data_str_m2_o1_o18_pcu_sym.83
_audit_creation_date              2020-01-03
_audit_creation_method            'Materials Studio'
_symmetry_space_group_name_H-M    'P1'
_symmetry_Int_Tables_number       1
_symmetry_cell_setting            triclinic
loop_
_symmetry_equiv_pos_as_xyz
  x,y,z
_cell_length_a                    28.6839
_cell_length_b                    32.2451
_cell_length_c                    30.9277
_cell_angle_alpha                 90.5708
_cell_angle_beta                  74.1570
_cell_angle_gamma                 88.7825
loop_
_atom_site_label
_atom_site_type_symbol
_atom_site_fract_x
_atom_site_fract_y
_atom_site_fract_z
_atom_site_U_iso_or_equiv
_atom_site_adp_type
_atom_site_occupancy
C1     C     0.00044   0.08746   0.24987   0.00000  Uiso   1.00
C2     C     0.03683   0.02045   0.21815   0.00000  Uiso   1.00
C3     C     0.33324   0.29050   0.24955   0.00000  Uiso   1.00
C4     C     0.00111   0.04287   0.25019   0.00000  Uiso   1.00
C5     C     0.20017   0.13905   0.22399   0.00000  Uiso   1.00
C6     C     0.13286   0.19336   0.27695   0.00000  Uiso   1.00
C7     C     0.15061   0.13889   0.22351   0.00000  Uiso   1.00
C8     C     0.18258   0.19444   0.27627   0.00000  Uiso   1.00
C9     C     0.30610   0.16557   0.33622   0.00000  Uiso   1.00
C10    C     0.02714   0.16916   0.16400   0.00000  Uiso   1.00
C11    C     0.29125   0.16263   0.38582   0.00000  Uiso   1.00
C12    C     0.33314   0.24589   0.24983   0.00000  Uiso   1.00
C13    C     0.04177   0.17827   0.11547   0.00000  Uiso   1.00
C14    C     0.30639   0.14605   0.45783   0.00000  Uiso   1.00
C15    C     0.02844   0.20996   0.04808   0.00000  Uiso   1.00
C16    C     0.32377   0.15019   0.41063   0.00000  Uiso   1.00
C17    C     0.01056   0.19889   0.09383   0.00000  Uiso   1.00
C18    C     0.24270   0.17147   0.40808   0.00000  Uiso   1.00
C19    C     0.08994   0.16995   0.09202   0.00000  Uiso   1.00
C20    C     0.22506   0.17033   0.45498   0.00000  Uiso   1.00
C21    C     0.10910   0.18226   0.04753   0.00000  Uiso   1.00
C22    C     0.25762   0.15763   0.47990   0.00000  Uiso   1.00
C23    C     0.19347   0.16745   0.04885   0.00000  Uiso   1.00
C24    C     0.07722   0.19985   0.02462   0.00000  Uiso   1.00
C25    C     0.17565   0.18088   0.47775   0.00000  Uiso   1.00
C26    C     0.15916   0.17626   0.02501   0.00000  Uiso   1.00
C27    C     0.28814   0.24839   0.14335   0.00000  Uiso   1.00
C28    C     0.05243   0.10018   0.37058   0.00000  Uiso   1.00
C29    C     0.32819   0.08670   0.49663   0.00000  Uiso   1.00
C30    C     0.00785   0.27680   0.02221   0.00000  Uiso   1.00
C31    C     0.16611   0.09593   0.15478   0.00000  Uiso   1.00
C32    C     0.18760   0.26661   0.29558   0.00000  Uiso   1.00
C33    C     0.14227   0.19657   0.45530   0.00000  Uiso   1.00
C34    C     0.24132   0.15780   0.02683   0.00000  Uiso   1.00
C35    C     0.09459   0.20661   0.47842   0.00000  Uiso   1.00
C36    C     0.29884   0.02257   0.28247   0.00000  Uiso   1.00
C37    C     0.03608   0.31076   0.21769   0.00000  Uiso   1.00
C38    C     0.29897   0.31295   0.28264   0.00000  Uiso   1.00
Cu39   Cu    0.04689   0.16667   0.25000   0.00000  Uiso   1.00
Cu40   Cu    0.28645   0.16666   0.25000   0.00000  Uiso   1.00
H41    H     0.11199   0.15262   0.10904   0.00000  Uiso   1.00
H42    H     0.05538   0.07926   0.39797   0.00000  Uiso   1.00
H43    H     0.08799   0.09999   0.34477   0.00000  Uiso   1.00
H44    H     0.02486   0.08846   0.35457   0.00000  Uiso   1.00
H45    H     0.04012   0.13504   0.47118   0.00000  Uiso   1.00
H46    H     0.01891   0.07727   0.01769   0.00000  Uiso   1.00
H47    H     0.00227   0.06581   0.46670   0.00000  Uiso   1.00
H48    H     0.29009   0.08289   0.01666   0.00000  Uiso   1.00
H49    H     0.29550   0.22688   0.03621   0.00000  Uiso   1.00
H50    H     0.31794   0.29153   0.00297   0.00000  Uiso   1.00
H51    H     0.04628   0.28227   0.00415   0.00000  Uiso   1.00
H52    H     0.21908   0.17917   0.38767   0.00000  Uiso   1.00
H53    H     0.33294   0.29179   0.05598   0.00000  Uiso   1.00
H54    H     0.18451   0.16972   0.08493   0.00000  Uiso   1.00
H55    H     0.15184   0.20284   0.41993   0.00000  Uiso   1.00
H56    H     0.27186   0.03994   0.30798   0.00000  Uiso   1.00
H57    H     0.06330   0.29331   0.19248   0.00000  Uiso   1.00
H58    H     0.27367   0.29715   0.30929   0.00000  Uiso   1.00
H59    H     0.06436   0.03618   0.19305   0.00000  Uiso   1.00
H60    H     0.22598   0.11667   0.20405   0.00000  Uiso   1.00
H61    H     0.10652   0.21395   0.29914   0.00000  Uiso   1.00
H62    H     0.12211   0.08215   0.21754   0.00000  Uiso   1.00
H63    H     0.26575   0.15101   0.04716   0.00000  Uiso   1.00
H64    H     0.14410   0.08306   0.13360   0.00000  Uiso   1.00
H65    H     0.19292   0.07173   0.15834   0.00000  Uiso   1.00
H66    H     0.18568   0.12308   0.13779   0.00000  Uiso   1.00
H67    H     0.18283   0.21695   0.33796   0.00000  Uiso   1.00
H68    H     0.14890   0.27256   0.29728   0.00000  Uiso   1.00
H69    H     0.21045   0.27522   0.26188   0.00000  Uiso   1.00
H70    H     0.19561   0.28692   0.32162   0.00000  Uiso   1.00
H71    H     0.07094   0.21872   0.45933   0.00000  Uiso   1.00
H72    H     0.26835   0.20254   0.10371   0.00000  Uiso   1.00
H73    H     0.27669   0.27304   0.12336   0.00000  Uiso   1.00
H74    H     0.32166   0.25783   0.15193   0.00000  Uiso   1.00
H75    H     0.25899   0.24505   0.17509   0.00000  Uiso   1.00
H76    H     0.06520   0.15485   0.40212   0.00000  Uiso   1.00
N77    N     0.11736   0.16668   0.24999   0.00000  Uiso   1.00
N78    N     0.21597   0.16666   0.25001   0.00000  Uiso   1.00
N79    N     0.29533   0.20938   0.11859   0.00000  Uiso   1.00
N80    N     0.04020   0.14202   0.38788   0.00000  Uiso   1.00
N81    N     0.00377   0.12938   0.48320   0.00000  Uiso   1.00
N82    N     0.33191   0.23282   0.02608   0.00000  Uiso   1.00
N83    N     0.13450   0.10770   0.19845   0.00000  Uiso   1.00
N84    N     0.19699   0.22360   0.30448   0.00000  Uiso   1.00
O85    O     0.03958   0.10655   0.25000   0.00000  Uiso   1.00
O86    O     0.29375   0.22678   0.25000   0.00000  Uiso   1.00
O87    O     0.29372   0.10654   0.25001   0.00000  Uiso   1.00
O88    O     0.03961   0.22679   0.25000   0.00000  Uiso   1.00
O89    O     0.01852   0.16668   0.31492   0.00000  Uiso   1.00
O90    O     0.31481   0.16666   0.18509   0.00000  Uiso   1.00
O91    O     0.27267   0.16667   0.31492   0.00000  Uiso   1.00
O92    O     0.06067   0.16667   0.18508   0.00000  Uiso   1.00
C93    C     0.33378   0.08746   0.24987   0.00000  Uiso   1.00
C94    C     0.37017   0.02045   0.21815   0.00000  Uiso   1.00
C95    C     0.66657   0.29050   0.24955   0.00000  Uiso   1.00
C96    C     0.33444   0.04287   0.25019   0.00000  Uiso   1.00
C97    C     0.53350   0.13905   0.22399   0.00000  Uiso   1.00
C98    C     0.46620   0.19336   0.27695   0.00000  Uiso   1.00
C99    C     0.48395   0.13889   0.22351   0.00000  Uiso   1.00
C100   C     0.51591   0.19444   0.27627   0.00000  Uiso   1.00
C101   C     0.63944   0.16557   0.33622   0.00000  Uiso   1.00
C102   C     0.36047   0.16916   0.16400   0.00000  Uiso   1.00
C103   C     0.62459   0.16263   0.38582   0.00000  Uiso   1.00
C104   C     0.66647   0.24589   0.24983   0.00000  Uiso   1.00
C105   C     0.37511   0.17827   0.11547   0.00000  Uiso   1.00
C106   C     0.63972   0.14605   0.45783   0.00000  Uiso   1.00
C107   C     0.36177   0.20996   0.04808   0.00000  Uiso   1.00
C108   C     0.65710   0.15019   0.41063   0.00000  Uiso   1.00
C109   C     0.34389   0.19889   0.09383   0.00000  Uiso   1.00
C110   C     0.57604   0.17147   0.40808   0.00000  Uiso   1.00
C111   C     0.42328   0.16995   0.09202   0.00000  Uiso   1.00
C112   C     0.55839   0.17033   0.45498   0.00000  Uiso   1.00
C113   C     0.44243   0.18226   0.04753   0.00000  Uiso   1.00
C114   C     0.59096   0.15763   0.47990   0.00000  Uiso   1.00
C115   C     0.52681   0.16745   0.04885   0.00000  Uiso   1.00
C116   C     0.41055   0.19985   0.02462   0.00000  Uiso   1.00
C117   C     0.50899   0.18088   0.47775   0.00000  Uiso   1.00
C118   C     0.49250   0.17626   0.02501   0.00000  Uiso   1.00
C119   C     0.62147   0.24839   0.14335   0.00000  Uiso   1.00
C120   C     0.38576   0.10018   0.37058   0.00000  Uiso   1.00
C121   C     0.66152   0.08670   0.49663   0.00000  Uiso   1.00
C122   C     0.34119   0.27680   0.02221   0.00000  Uiso   1.00
C123   C     0.49944   0.09593   0.15478   0.00000  Uiso   1.00
C124   C     0.52093   0.26661   0.29558   0.00000  Uiso   1.00
C125   C     0.47560   0.19657   0.45530   0.00000  Uiso   1.00
C126   C     0.57465   0.15780   0.02683   0.00000  Uiso   1.00
C127   C     0.42792   0.20661   0.47842   0.00000  Uiso   1.00
C128   C     0.63217   0.02257   0.28247   0.00000  Uiso   1.00
C129   C     0.36942   0.31076   0.21769   0.00000  Uiso   1.00
C130   C     0.63230   0.31295   0.28264   0.00000  Uiso   1.00
Cu131  Cu    0.38022   0.16667   0.25000   0.00000  Uiso   1.00
Cu132  Cu    0.61978   0.16666   0.25000   0.00000  Uiso   1.00
H133   H     0.44532   0.15262   0.10904   0.00000  Uiso   1.00
H134   H     0.38871   0.07926   0.39797   0.00000  Uiso   1.00
H135   H     0.42133   0.09999   0.34477   0.00000  Uiso   1.00
H136   H     0.35819   0.08846   0.35457   0.00000  Uiso   1.00
H137   H     0.37345   0.13504   0.47118   0.00000  Uiso   1.00
H138   H     0.35224   0.07727   0.01769   0.00000  Uiso   1.00
H139   H     0.33560   0.06581   0.46670   0.00000  Uiso   1.00
H140   H     0.62342   0.08289   0.01666   0.00000  Uiso   1.00
H141   H     0.62884   0.22688   0.03621   0.00000  Uiso   1.00
H142   H     0.65127   0.29153   0.00297   0.00000  Uiso   1.00
H143   H     0.37961   0.28227   0.00415   0.00000  Uiso   1.00
H144   H     0.55241   0.17917   0.38767   0.00000  Uiso   1.00
H145   H     0.66627   0.29179   0.05598   0.00000  Uiso   1.00
H146   H     0.51784   0.16972   0.08493   0.00000  Uiso   1.00
H147   H     0.48517   0.20284   0.41993   0.00000  Uiso   1.00
H148   H     0.60520   0.03994   0.30798   0.00000  Uiso   1.00
H149   H     0.39663   0.29331   0.19248   0.00000  Uiso   1.00
H150   H     0.60700   0.29715   0.30929   0.00000  Uiso   1.00
H151   H     0.39769   0.03618   0.19305   0.00000  Uiso   1.00
H152   H     0.55932   0.11667   0.20405   0.00000  Uiso   1.00
H153   H     0.43985   0.21395   0.29914   0.00000  Uiso   1.00
H154   H     0.45545   0.08215   0.21754   0.00000  Uiso   1.00
H155   H     0.59908   0.15101   0.04716   0.00000  Uiso   1.00
H156   H     0.47743   0.08306   0.13360   0.00000  Uiso   1.00
H157   H     0.52625   0.07173   0.15834   0.00000  Uiso   1.00
H158   H     0.51901   0.12308   0.13779   0.00000  Uiso   1.00
H159   H     0.51616   0.21695   0.33796   0.00000  Uiso   1.00
H160   H     0.48223   0.27256   0.29728   0.00000  Uiso   1.00
H161   H     0.54379   0.27522   0.26188   0.00000  Uiso   1.00
H162   H     0.52895   0.28692   0.32162   0.00000  Uiso   1.00
H163   H     0.40427   0.21872   0.45933   0.00000  Uiso   1.00
H164   H     0.60169   0.20254   0.10371   0.00000  Uiso   1.00
H165   H     0.61002   0.27304   0.12336   0.00000  Uiso   1.00
H166   H     0.65499   0.25783   0.15193   0.00000  Uiso   1.00
H167   H     0.59232   0.24505   0.17509   0.00000  Uiso   1.00
H168   H     0.39853   0.15485   0.40212   0.00000  Uiso   1.00
N169   N     0.45069   0.16668   0.24999   0.00000  Uiso   1.00
N170   N     0.54931   0.16666   0.25001   0.00000  Uiso   1.00
N171   N     0.62867   0.20938   0.11859   0.00000  Uiso   1.00
N172   N     0.37353   0.14202   0.38788   0.00000  Uiso   1.00
N173   N     0.33710   0.12938   0.48320   0.00000  Uiso   1.00
N174   N     0.66525   0.23282   0.02608   0.00000  Uiso   1.00
N175   N     0.46784   0.10770   0.19845   0.00000  Uiso   1.00
N176   N     0.53032   0.22360   0.30448   0.00000  Uiso   1.00
O177   O     0.37291   0.10655   0.25000   0.00000  Uiso   1.00
O178   O     0.62709   0.22678   0.25000   0.00000  Uiso   1.00
O179   O     0.62706   0.10654   0.25001   0.00000  Uiso   1.00
O180   O     0.37294   0.22679   0.25000   0.00000  Uiso   1.00
O181   O     0.35186   0.16668   0.31492   0.00000  Uiso   1.00
O182   O     0.64814   0.16666   0.18509   0.00000  Uiso   1.00
O183   O     0.60600   0.16667   0.31492   0.00000  Uiso   1.00
O184   O     0.39400   0.16667   0.18508   0.00000  Uiso   1.00
C185   C     0.66711   0.08746   0.24987   0.00000  Uiso   1.00
C186   C     0.70350   0.02045   0.21815   0.00000  Uiso   1.00
C187   C     0.99990   0.29050   0.24955   0.00000  Uiso   1.00
C188   C     0.66777   0.04287   0.25019   0.00000  Uiso   1.00
C189   C     0.86684   0.13905   0.22399   0.00000  Uiso   1.00
C190   C     0.79953   0.19336   0.27695   0.00000  Uiso   1.00
C191   C     0.81728   0.13889   0.22351   0.00000  Uiso   1.00
C192   C     0.84924   0.19444   0.27627   0.00000  Uiso   1.00
C193   C     0.97277   0.16557   0.33622   0.00000  Uiso   1.00
C194   C     0.69381   0.16916   0.16400   0.00000  Uiso   1.00
C195   C     0.95792   0.16263   0.38582   0.00000  Uiso   1.00
C196   C     0.99981   0.24589   0.24983   0.00000  Uiso   1.00
C197   C     0.70844   0.17827   0.11547   0.00000  Uiso   1.00
C198   C     0.97306   0.14605   0.45783   0.00000  Uiso   1.00
C199   C     0.69511   0.20996   0.04808   0.00000  Uiso   1.00
C200   C     0.99044   0.15019   0.41063   0.00000  Uiso   1.00
C201   C     0.67722   0.19889   0.09383   0.00000  Uiso   1.00
C202   C     0.90937   0.17147   0.40808   0.00000  Uiso   1.00
C203   C     0.75661   0.16995   0.09202   0.00000  Uiso   1.00
C204   C     0.89172   0.17033   0.45498   0.00000  Uiso   1.00
C205   C     0.77576   0.18226   0.04753   0.00000  Uiso   1.00
C206   C     0.92429   0.15763   0.47990   0.00000  Uiso   1.00
C207   C     0.86014   0.16745   0.04885   0.00000  Uiso   1.00
C208   C     0.74388   0.19985   0.02462   0.00000  Uiso   1.00
C209   C     0.84232   0.18088   0.47775   0.00000  Uiso   1.00
C210   C     0.82583   0.17626   0.02501   0.00000  Uiso   1.00
C211   C     0.95481   0.24839   0.14335   0.00000  Uiso   1.00
C212   C     0.71909   0.10018   0.37058   0.00000  Uiso   1.00
C213   C     0.99486   0.08670   0.49663   0.00000  Uiso   1.00
C214   C     0.67452   0.27680   0.02221   0.00000  Uiso   1.00
C215   C     0.83277   0.09593   0.15478   0.00000  Uiso   1.00
C216   C     0.85427   0.26661   0.29558   0.00000  Uiso   1.00
C217   C     0.80894   0.19657   0.45530   0.00000  Uiso   1.00
C218   C     0.90799   0.15780   0.02683   0.00000  Uiso   1.00
C219   C     0.76125   0.20661   0.47842   0.00000  Uiso   1.00
C220   C     0.96551   0.02257   0.28247   0.00000  Uiso   1.00
C221   C     0.70275   0.31076   0.21769   0.00000  Uiso   1.00
C222   C     0.96563   0.31295   0.28264   0.00000  Uiso   1.00
Cu223  Cu    0.71355   0.16667   0.25000   0.00000  Uiso   1.00
Cu224  Cu    0.95311   0.16666   0.25000   0.00000  Uiso   1.00
H225   H     0.77866   0.15262   0.10904   0.00000  Uiso   1.00
H226   H     0.72204   0.07926   0.39797   0.00000  Uiso   1.00
H227   H     0.75466   0.09999   0.34477   0.00000  Uiso   1.00
H228   H     0.69153   0.08846   0.35457   0.00000  Uiso   1.00
H229   H     0.70679   0.13504   0.47118   0.00000  Uiso   1.00
H230   H     0.68558   0.07727   0.01769   0.00000  Uiso   1.00
H231   H     0.66893   0.06581   0.46670   0.00000  Uiso   1.00
H232   H     0.95676   0.08289   0.01666   0.00000  Uiso   1.00
H233   H     0.96217   0.22688   0.03621   0.00000  Uiso   1.00
H234   H     0.98460   0.29153   0.00297   0.00000  Uiso   1.00
H235   H     0.71294   0.28227   0.00415   0.00000  Uiso   1.00
H236   H     0.88574   0.17917   0.38767   0.00000  Uiso   1.00
H237   H     0.99960   0.29179   0.05598   0.00000  Uiso   1.00
H238   H     0.85118   0.16972   0.08493   0.00000  Uiso   1.00
H239   H     0.81850   0.20284   0.41993   0.00000  Uiso   1.00
H240   H     0.93853   0.03994   0.30798   0.00000  Uiso   1.00
H241   H     0.72996   0.29331   0.19248   0.00000  Uiso   1.00
H242   H     0.94034   0.29715   0.30929   0.00000  Uiso   1.00
H243   H     0.73102   0.03618   0.19305   0.00000  Uiso   1.00
H244   H     0.89265   0.11667   0.20405   0.00000  Uiso   1.00
H245   H     0.77319   0.21395   0.29914   0.00000  Uiso   1.00
H246   H     0.78878   0.08215   0.21754   0.00000  Uiso   1.00
H247   H     0.93242   0.15101   0.04716   0.00000  Uiso   1.00
H248   H     0.81076   0.08306   0.13360   0.00000  Uiso   1.00
H249   H     0.85958   0.07173   0.15834   0.00000  Uiso   1.00
H250   H     0.85234   0.12308   0.13779   0.00000  Uiso   1.00
H251   H     0.84950   0.21695   0.33796   0.00000  Uiso   1.00
H252   H     0.81556   0.27256   0.29728   0.00000  Uiso   1.00
H253   H     0.87712   0.27522   0.26188   0.00000  Uiso   1.00
H254   H     0.86228   0.28692   0.32162   0.00000  Uiso   1.00
H255   H     0.73761   0.21872   0.45933   0.00000  Uiso   1.00
H256   H     0.93502   0.20254   0.10371   0.00000  Uiso   1.00
H257   H     0.94335   0.27304   0.12336   0.00000  Uiso   1.00
H258   H     0.98833   0.25783   0.15193   0.00000  Uiso   1.00
H259   H     0.92565   0.24505   0.17509   0.00000  Uiso   1.00
H260   H     0.73186   0.15485   0.40212   0.00000  Uiso   1.00
N261   N     0.78403   0.16668   0.24999   0.00000  Uiso   1.00
N262   N     0.88264   0.16666   0.25001   0.00000  Uiso   1.00
N263   N     0.96200   0.20938   0.11859   0.00000  Uiso   1.00
N264   N     0.70687   0.14202   0.38788   0.00000  Uiso   1.00
N265   N     0.67043   0.12938   0.48320   0.00000  Uiso   1.00
N266   N     0.99858   0.23282   0.02608   0.00000  Uiso   1.00
N267   N     0.80117   0.10770   0.19845   0.00000  Uiso   1.00
N268   N     0.86366   0.22360   0.30448   0.00000  Uiso   1.00
O269   O     0.70625   0.10655   0.25000   0.00000  Uiso   1.00
O270   O     0.96042   0.22678   0.25000   0.00000  Uiso   1.00
O271   O     0.96039   0.10654   0.25001   0.00000  Uiso   1.00
O272   O     0.70628   0.22679   0.25000   0.00000  Uiso   1.00
O273   O     0.68519   0.16668   0.31492   0.00000  Uiso   1.00
O274   O     0.98148   0.16666   0.18509   0.00000  Uiso   1.00
O275   O     0.93933   0.16667   0.31492   0.00000  Uiso   1.00
O276   O     0.72733   0.16667   0.18508   0.00000  Uiso   1.00
C277   C     0.00044   0.42079   0.24987   0.00000  Uiso   1.00
C278   C     0.03683   0.35378   0.21815   0.00000  Uiso   1.00
C279   C     0.33324   0.62384   0.24955   0.00000  Uiso   1.00
C280   C     0.00111   0.37621   0.25019   0.00000  Uiso   1.00
C281   C     0.20017   0.47238   0.22399   0.00000  Uiso   1.00
C282   C     0.13286   0.52670   0.27695   0.00000  Uiso   1.00
C283   C     0.15061   0.47222   0.22351   0.00000  Uiso   1.00
C284   C     0.18258   0.52778   0.27627   0.00000  Uiso   1.00
C285   C     0.30610   0.49890   0.33622   0.00000  Uiso   1.00
C286   C     0.02714   0.50249   0.16400   0.00000  Uiso   1.00
C287   C     0.29125   0.49596   0.38582   0.00000  Uiso   1.00
C288   C     0.33314   0.57922   0.24983   0.00000  Uiso   1.00
C289   C     0.04177   0.51160   0.11547   0.00000  Uiso   1.00
C290   C     0.30639   0.47938   0.45783   0.00000  Uiso   1.00
C291   C     0.02844   0.54329   0.04808   0.00000  Uiso   1.00
C292   C     0.32377   0.48352   0.41063   0.00000  Uiso   1.00
C293   C     0.01056   0.53222   0.09383   0.00000  Uiso   1.00
C294   C     0.24270   0.50480   0.40808   0.00000  Uiso   1.00
C295   C     0.08994   0.50329   0.09202   0.00000  Uiso   1.00
C296   C     0.22506   0.50367   0.45498   0.00000  Uiso   1.00
C297   C     0.10910   0.51559   0.04753   0.00000  Uiso   1.00
C298   C     0.25762   0.49096   0.47990   0.00000  Uiso   1.00
C299   C     0.19347   0.50078   0.04885   0.00000  Uiso   1.00
C300   C     0.07722   0.53318   0.02462   0.00000  Uiso   1.00
C301   C     0.17565   0.51421   0.47775   0.00000  Uiso   1.00
C302   C     0.15916   0.50959   0.02501   0.00000  Uiso   1.00
C303   C     0.28814   0.58173   0.14335   0.00000  Uiso   1.00
C304   C     0.05243   0.43351   0.37058   0.00000  Uiso   1.00
C305   C     0.32819   0.42004   0.49663   0.00000  Uiso   1.00
C306   C     0.00785   0.61013   0.02221   0.00000  Uiso   1.00
C307   C     0.16611   0.42927   0.15478   0.00000  Uiso   1.00
C308   C     0.18760   0.59995   0.29558   0.00000  Uiso   1.00
C309   C     0.14227   0.52990   0.45530   0.00000  Uiso   1.00
C310   C     0.24132   0.49113   0.02683   0.00000  Uiso   1.00
C311   C     0.09459   0.53995   0.47842   0.00000  Uiso   1.00
C312   C     0.29884   0.35590   0.28247   0.00000  Uiso   1.00
C313   C     0.03608   0.64410   0.21769   0.00000  Uiso   1.00
C314   C     0.29897   0.64628   0.28264   0.00000  Uiso   1.00
Cu315  Cu    0.04689   0.50001   0.25000   0.00000  Uiso   1.00
Cu316  Cu    0.28645   0.49999   0.25000   0.00000  Uiso   1.00
H317   H     0.11199   0.48595   0.10904   0.00000  Uiso   1.00
H318   H     0.05538   0.41259   0.39797   0.00000  Uiso   1.00
H319   H     0.08799   0.43332   0.34477   0.00000  Uiso   1.00
H320   H     0.02486   0.42180   0.35457   0.00000  Uiso   1.00
H321   H     0.04012   0.46837   0.47118   0.00000  Uiso   1.00
H322   H     0.01891   0.41061   0.01769   0.00000  Uiso   1.00
H323   H     0.00227   0.39914   0.46670   0.00000  Uiso   1.00
H324   H     0.29009   0.41622   0.01666   0.00000  Uiso   1.00
H325   H     0.29550   0.56022   0.03621   0.00000  Uiso   1.00
H326   H     0.31794   0.62486   0.00297   0.00000  Uiso   1.00
H327   H     0.04628   0.61560   0.00415   0.00000  Uiso   1.00
H328   H     0.21908   0.51250   0.38767   0.00000  Uiso   1.00
H329   H     0.33294   0.62512   0.05598   0.00000  Uiso   1.00
H330   H     0.18451   0.50306   0.08493   0.00000  Uiso   1.00
H331   H     0.15184   0.53617   0.41993   0.00000  Uiso   1.00
H332   H     0.27186   0.37328   0.30798   0.00000  Uiso   1.00
H333   H     0.06330   0.62664   0.19248   0.00000  Uiso   1.00
H334   H     0.27367   0.63049   0.30929   0.00000  Uiso   1.00
H335   H     0.06436   0.36952   0.19305   0.00000  Uiso   1.00
H336   H     0.22598   0.45001   0.20405   0.00000  Uiso   1.00
H337   H     0.10652   0.54728   0.29914   0.00000  Uiso   1.00
H338   H     0.12211   0.41548   0.21754   0.00000  Uiso   1.00
H339   H     0.26575   0.48434   0.04716   0.00000  Uiso   1.00
H340   H     0.14410   0.41639   0.13360   0.00000  Uiso   1.00
H341   H     0.19292   0.40506   0.15834   0.00000  Uiso   1.00
H342   H     0.18568   0.45641   0.13779   0.00000  Uiso   1.00
H343   H     0.18283   0.55028   0.33796   0.00000  Uiso   1.00
H344   H     0.14890   0.60589   0.29728   0.00000  Uiso   1.00
H345   H     0.21045   0.60855   0.26188   0.00000  Uiso   1.00
H346   H     0.19561   0.62025   0.32162   0.00000  Uiso   1.00
H347   H     0.07094   0.55205   0.45933   0.00000  Uiso   1.00
H348   H     0.26835   0.53587   0.10371   0.00000  Uiso   1.00
H349   H     0.27669   0.60637   0.12336   0.00000  Uiso   1.00
H350   H     0.32166   0.59116   0.15193   0.00000  Uiso   1.00
H351   H     0.25899   0.57838   0.17509   0.00000  Uiso   1.00
H352   H     0.06520   0.48819   0.40212   0.00000  Uiso   1.00
N353   N     0.11736   0.50001   0.24999   0.00000  Uiso   1.00
N354   N     0.21597   0.49999   0.25001   0.00000  Uiso   1.00
N355   N     0.29533   0.54271   0.11859   0.00000  Uiso   1.00
N356   N     0.04020   0.47535   0.38788   0.00000  Uiso   1.00
N357   N     0.00377   0.46272   0.48320   0.00000  Uiso   1.00
N358   N     0.33191   0.56616   0.02608   0.00000  Uiso   1.00
N359   N     0.13450   0.44103   0.19845   0.00000  Uiso   1.00
N360   N     0.19699   0.55694   0.30448   0.00000  Uiso   1.00
O361   O     0.03958   0.43989   0.25000   0.00000  Uiso   1.00
O362   O     0.29375   0.56011   0.25000   0.00000  Uiso   1.00
O363   O     0.29372   0.43988   0.25001   0.00000  Uiso   1.00
O364   O     0.03961   0.56012   0.25000   0.00000  Uiso   1.00
O365   O     0.01852   0.50001   0.31492   0.00000  Uiso   1.00
O366   O     0.31481   0.49999   0.18509   0.00000  Uiso   1.00
O367   O     0.27267   0.50000   0.31492   0.00000  Uiso   1.00
O368   O     0.06067   0.50000   0.18508   0.00000  Uiso   1.00
C369   C     0.33378   0.42079   0.24987   0.00000  Uiso   1.00
C370   C     0.37017   0.35378   0.21815   0.00000  Uiso   1.00
C371   C     0.66657   0.62384   0.24955   0.00000  Uiso   1.00
C372   C     0.33444   0.37621   0.25019   0.00000  Uiso   1.00
C373   C     0.53350   0.47238   0.22399   0.00000  Uiso   1.00
C374   C     0.46620   0.52670   0.27695   0.00000  Uiso   1.00
C375   C     0.48395   0.47222   0.22351   0.00000  Uiso   1.00
C376   C     0.51591   0.52778   0.27627   0.00000  Uiso   1.00
C377   C     0.63944   0.49890   0.33622   0.00000  Uiso   1.00
C378   C     0.36047   0.50249   0.16400   0.00000  Uiso   1.00
C379   C     0.62459   0.49596   0.38582   0.00000  Uiso   1.00
C380   C     0.66647   0.57922   0.24983   0.00000  Uiso   1.00
C381   C     0.37511   0.51160   0.11547   0.00000  Uiso   1.00
C382   C     0.63972   0.47938   0.45783   0.00000  Uiso   1.00
C383   C     0.36177   0.54329   0.04808   0.00000  Uiso   1.00
C384   C     0.65710   0.48352   0.41063   0.00000  Uiso   1.00
C385   C     0.34389   0.53222   0.09383   0.00000  Uiso   1.00
C386   C     0.57604   0.50480   0.40808   0.00000  Uiso   1.00
C387   C     0.42328   0.50329   0.09202   0.00000  Uiso   1.00
C388   C     0.55839   0.50367   0.45498   0.00000  Uiso   1.00
C389   C     0.44243   0.51559   0.04753   0.00000  Uiso   1.00
C390   C     0.59096   0.49096   0.47990   0.00000  Uiso   1.00
C391   C     0.52681   0.50078   0.04885   0.00000  Uiso   1.00
C392   C     0.41055   0.53318   0.02462   0.00000  Uiso   1.00
C393   C     0.50899   0.51421   0.47775   0.00000  Uiso   1.00
C394   C     0.49250   0.50959   0.02501   0.00000  Uiso   1.00
C395   C     0.62147   0.58173   0.14335   0.00000  Uiso   1.00
C396   C     0.38576   0.43351   0.37058   0.00000  Uiso   1.00
C397   C     0.66152   0.42004   0.49663   0.00000  Uiso   1.00
C398   C     0.34119   0.61013   0.02221   0.00000  Uiso   1.00
C399   C     0.49944   0.42927   0.15478   0.00000  Uiso   1.00
C400   C     0.52093   0.59995   0.29558   0.00000  Uiso   1.00
C401   C     0.47560   0.52990   0.45530   0.00000  Uiso   1.00
C402   C     0.57465   0.49113   0.02683   0.00000  Uiso   1.00
C403   C     0.42792   0.53995   0.47842   0.00000  Uiso   1.00
C404   C     0.63217   0.35590   0.28247   0.00000  Uiso   1.00
C405   C     0.36942   0.64410   0.21769   0.00000  Uiso   1.00
C406   C     0.63230   0.64628   0.28264   0.00000  Uiso   1.00
Cu407  Cu    0.38022   0.50001   0.25000   0.00000  Uiso   1.00
Cu408  Cu    0.61978   0.49999   0.25000   0.00000  Uiso   1.00
H409   H     0.44532   0.48595   0.10904   0.00000  Uiso   1.00
H410   H     0.38871   0.41259   0.39797   0.00000  Uiso   1.00
H411   H     0.42133   0.43332   0.34477   0.00000  Uiso   1.00
H412   H     0.35819   0.42180   0.35457   0.00000  Uiso   1.00
H413   H     0.37345   0.46837   0.47118   0.00000  Uiso   1.00
H414   H     0.35224   0.41061   0.01769   0.00000  Uiso   1.00
H415   H     0.33560   0.39914   0.46670   0.00000  Uiso   1.00
H416   H     0.62342   0.41622   0.01666   0.00000  Uiso   1.00
H417   H     0.62884   0.56022   0.03621   0.00000  Uiso   1.00
H418   H     0.65127   0.62486   0.00297   0.00000  Uiso   1.00
H419   H     0.37961   0.61560   0.00415   0.00000  Uiso   1.00
H420   H     0.55241   0.51250   0.38767   0.00000  Uiso   1.00
H421   H     0.66627   0.62512   0.05598   0.00000  Uiso   1.00
H422   H     0.51784   0.50306   0.08493   0.00000  Uiso   1.00
H423   H     0.48517   0.53617   0.41993   0.00000  Uiso   1.00
H424   H     0.60520   0.37328   0.30798   0.00000  Uiso   1.00
H425   H     0.39663   0.62664   0.19248   0.00000  Uiso   1.00
H426   H     0.60700   0.63049   0.30929   0.00000  Uiso   1.00
H427   H     0.39769   0.36952   0.19305   0.00000  Uiso   1.00
H428   H     0.55932   0.45001   0.20405   0.00000  Uiso   1.00
H429   H     0.43985   0.54728   0.29914   0.00000  Uiso   1.00
H430   H     0.45545   0.41548   0.21754   0.00000  Uiso   1.00
H431   H     0.59908   0.48434   0.04716   0.00000  Uiso   1.00
H432   H     0.47743   0.41639   0.13360   0.00000  Uiso   1.00
H433   H     0.52625   0.40506   0.15834   0.00000  Uiso   1.00
H434   H     0.51901   0.45641   0.13779   0.00000  Uiso   1.00
H435   H     0.51616   0.55028   0.33796   0.00000  Uiso   1.00
H436   H     0.48223   0.60589   0.29728   0.00000  Uiso   1.00
H437   H     0.54379   0.60855   0.26188   0.00000  Uiso   1.00
H438   H     0.52895   0.62025   0.32162   0.00000  Uiso   1.00
H439   H     0.40427   0.55205   0.45933   0.00000  Uiso   1.00
H440   H     0.60169   0.53587   0.10371   0.00000  Uiso   1.00
H441   H     0.61002   0.60637   0.12336   0.00000  Uiso   1.00
H442   H     0.65499   0.59116   0.15193   0.00000  Uiso   1.00
H443   H     0.59232   0.57838   0.17509   0.00000  Uiso   1.00
H444   H     0.39853   0.48819   0.40212   0.00000  Uiso   1.00
N445   N     0.45069   0.50001   0.24999   0.00000  Uiso   1.00
N446   N     0.54931   0.49999   0.25001   0.00000  Uiso   1.00
N447   N     0.62867   0.54271   0.11859   0.00000  Uiso   1.00
N448   N     0.37353   0.47535   0.38788   0.00000  Uiso   1.00
N449   N     0.33710   0.46272   0.48320   0.00000  Uiso   1.00
N450   N     0.66525   0.56616   0.02608   0.00000  Uiso   1.00
N451   N     0.46784   0.44103   0.19845   0.00000  Uiso   1.00
N452   N     0.53032   0.55694   0.30448   0.00000  Uiso   1.00
O453   O     0.37291   0.43989   0.25000   0.00000  Uiso   1.00
O454   O     0.62709   0.56011   0.25000   0.00000  Uiso   1.00
O455   O     0.62706   0.43988   0.25001   0.00000  Uiso   1.00
O456   O     0.37294   0.56012   0.25000   0.00000  Uiso   1.00
O457   O     0.35186   0.50001   0.31492   0.00000  Uiso   1.00
O458   O     0.64814   0.49999   0.18509   0.00000  Uiso   1.00
O459   O     0.60600   0.50000   0.31492   0.00000  Uiso   1.00
O460   O     0.39400   0.50000   0.18508   0.00000  Uiso   1.00
C461   C     0.66711   0.42079   0.24987   0.00000  Uiso   1.00
C462   C     0.70350   0.35378   0.21815   0.00000  Uiso   1.00
C463   C     0.99990   0.62384   0.24955   0.00000  Uiso   1.00
C464   C     0.66777   0.37621   0.25019   0.00000  Uiso   1.00
C465   C     0.86684   0.47238   0.22399   0.00000  Uiso   1.00
C466   C     0.79953   0.52670   0.27695   0.00000  Uiso   1.00
C467   C     0.81728   0.47222   0.22351   0.00000  Uiso   1.00
C468   C     0.84924   0.52778   0.27627   0.00000  Uiso   1.00
C469   C     0.97277   0.49890   0.33622   0.00000  Uiso   1.00
C470   C     0.69381   0.50249   0.16400   0.00000  Uiso   1.00
C471   C     0.95792   0.49596   0.38582   0.00000  Uiso   1.00
C472   C     0.99981   0.57922   0.24983   0.00000  Uiso   1.00
C473   C     0.70844   0.51160   0.11547   0.00000  Uiso   1.00
C474   C     0.97306   0.47938   0.45783   0.00000  Uiso   1.00
C475   C     0.69511   0.54329   0.04808   0.00000  Uiso   1.00
C476   C     0.99044   0.48352   0.41063   0.00000  Uiso   1.00
C477   C     0.67722   0.53222   0.09383   0.00000  Uiso   1.00
C478   C     0.90937   0.50480   0.40808   0.00000  Uiso   1.00
C479   C     0.75661   0.50329   0.09202   0.00000  Uiso   1.00
C480   C     0.89172   0.50367   0.45498   0.00000  Uiso   1.00
C481   C     0.77576   0.51559   0.04753   0.00000  Uiso   1.00
C482   C     0.92429   0.49096   0.47990   0.00000  Uiso   1.00
C483   C     0.86014   0.50078   0.04885   0.00000  Uiso   1.00
C484   C     0.74388   0.53318   0.02462   0.00000  Uiso   1.00
C485   C     0.84232   0.51421   0.47775   0.00000  Uiso   1.00
C486   C     0.82583   0.50959   0.02501   0.00000  Uiso   1.00
C487   C     0.95481   0.58173   0.14335   0.00000  Uiso   1.00
C488   C     0.71909   0.43351   0.37058   0.00000  Uiso   1.00
C489   C     0.99486   0.42004   0.49663   0.00000  Uiso   1.00
C490   C     0.67452   0.61013   0.02221   0.00000  Uiso   1.00
C491   C     0.83277   0.42927   0.15478   0.00000  Uiso   1.00
C492   C     0.85427   0.59995   0.29558   0.00000  Uiso   1.00
C493   C     0.80894   0.52990   0.45530   0.00000  Uiso   1.00
C494   C     0.90799   0.49113   0.02683   0.00000  Uiso   1.00
C495   C     0.76125   0.53995   0.47842   0.00000  Uiso   1.00
C496   C     0.96551   0.35590   0.28247   0.00000  Uiso   1.00
C497   C     0.70275   0.64410   0.21769   0.00000  Uiso   1.00
C498   C     0.96563   0.64628   0.28264   0.00000  Uiso   1.00
Cu499  Cu    0.71355   0.50001   0.25000   0.00000  Uiso   1.00
Cu500  Cu    0.95311   0.49999   0.25000   0.00000  Uiso   1.00
H501   H     0.77866   0.48595   0.10904   0.00000  Uiso   1.00
H502   H     0.72204   0.41259   0.39797   0.00000  Uiso   1.00
H503   H     0.75466   0.43332   0.34477   0.00000  Uiso   1.00
H504   H     0.69153   0.42180   0.35457   0.00000  Uiso   1.00
H505   H     0.70679   0.46837   0.47118   0.00000  Uiso   1.00
H506   H     0.68558   0.41061   0.01769   0.00000  Uiso   1.00
H507   H     0.66893   0.39914   0.46670   0.00000  Uiso   1.00
H508   H     0.95676   0.41622   0.01666   0.00000  Uiso   1.00
H509   H     0.96217   0.56022   0.03621   0.00000  Uiso   1.00
H510   H     0.98460   0.62486   0.00297   0.00000  Uiso   1.00
H511   H     0.71294   0.61560   0.00415   0.00000  Uiso   1.00
H512   H     0.88574   0.51250   0.38767   0.00000  Uiso   1.00
H513   H     0.99960   0.62512   0.05598   0.00000  Uiso   1.00
H514   H     0.85118   0.50306   0.08493   0.00000  Uiso   1.00
H515   H     0.81850   0.53617   0.41993   0.00000  Uiso   1.00
H516   H     0.93853   0.37328   0.30798   0.00000  Uiso   1.00
H517   H     0.72996   0.62664   0.19248   0.00000  Uiso   1.00
H518   H     0.94034   0.63049   0.30929   0.00000  Uiso   1.00
H519   H     0.73102   0.36952   0.19305   0.00000  Uiso   1.00
H520   H     0.89265   0.45001   0.20405   0.00000  Uiso   1.00
H521   H     0.77319   0.54728   0.29914   0.00000  Uiso   1.00
H522   H     0.78878   0.41548   0.21754   0.00000  Uiso   1.00
H523   H     0.93242   0.48434   0.04716   0.00000  Uiso   1.00
H524   H     0.81076   0.41639   0.13360   0.00000  Uiso   1.00
H525   H     0.85958   0.40506   0.15834   0.00000  Uiso   1.00
H526   H     0.85234   0.45641   0.13779   0.00000  Uiso   1.00
H527   H     0.84950   0.55028   0.33796   0.00000  Uiso   1.00
H528   H     0.81556   0.60589   0.29728   0.00000  Uiso   1.00
H529   H     0.87712   0.60855   0.26188   0.00000  Uiso   1.00
H530   H     0.86228   0.62025   0.32162   0.00000  Uiso   1.00
H531   H     0.73761   0.55205   0.45933   0.00000  Uiso   1.00
H532   H     0.93502   0.53587   0.10371   0.00000  Uiso   1.00
H533   H     0.94335   0.60637   0.12336   0.00000  Uiso   1.00
H534   H     0.98833   0.59116   0.15193   0.00000  Uiso   1.00
H535   H     0.92565   0.57838   0.17509   0.00000  Uiso   1.00
H536   H     0.73186   0.48819   0.40212   0.00000  Uiso   1.00
N537   N     0.78403   0.50001   0.24999   0.00000  Uiso   1.00
N538   N     0.88264   0.49999   0.25001   0.00000  Uiso   1.00
N539   N     0.96200   0.54271   0.11859   0.00000  Uiso   1.00
N540   N     0.70687   0.47535   0.38788   0.00000  Uiso   1.00
N541   N     0.67043   0.46272   0.48320   0.00000  Uiso   1.00
N542   N     0.99858   0.56616   0.02608   0.00000  Uiso   1.00
N543   N     0.80117   0.44103   0.19845   0.00000  Uiso   1.00
N544   N     0.86366   0.55694   0.30448   0.00000  Uiso   1.00
O545   O     0.70625   0.43989   0.25000   0.00000  Uiso   1.00
O546   O     0.96042   0.56011   0.25000   0.00000  Uiso   1.00
O547   O     0.96039   0.43988   0.25001   0.00000  Uiso   1.00
O548   O     0.70628   0.56012   0.25000   0.00000  Uiso   1.00
O549   O     0.68519   0.50001   0.31492   0.00000  Uiso   1.00
O550   O     0.98148   0.49999   0.18509   0.00000  Uiso   1.00
O551   O     0.93933   0.50000   0.31492   0.00000  Uiso   1.00
O552   O     0.72733   0.50000   0.18508   0.00000  Uiso   1.00
C553   C     0.00044   0.75412   0.24987   0.00000  Uiso   1.00
C554   C     0.03683   0.68711   0.21815   0.00000  Uiso   1.00
C555   C     0.33324   0.95717   0.24955   0.00000  Uiso   1.00
C556   C     0.00111   0.70954   0.25019   0.00000  Uiso   1.00
C557   C     0.20017   0.80571   0.22399   0.00000  Uiso   1.00
C558   C     0.13286   0.86003   0.27695   0.00000  Uiso   1.00
C559   C     0.15061   0.80555   0.22351   0.00000  Uiso   1.00
C560   C     0.18258   0.86111   0.27627   0.00000  Uiso   1.00
C561   C     0.30610   0.83223   0.33622   0.00000  Uiso   1.00
C562   C     0.02714   0.83582   0.16400   0.00000  Uiso   1.00
C563   C     0.29125   0.82930   0.38582   0.00000  Uiso   1.00
C564   C     0.33314   0.91256   0.24983   0.00000  Uiso   1.00
C565   C     0.04177   0.84493   0.11547   0.00000  Uiso   1.00
C566   C     0.30639   0.81272   0.45783   0.00000  Uiso   1.00
C567   C     0.02844   0.87662   0.04808   0.00000  Uiso   1.00
C568   C     0.32377   0.81686   0.41063   0.00000  Uiso   1.00
C569   C     0.01056   0.86556   0.09383   0.00000  Uiso   1.00
C570   C     0.24270   0.83813   0.40808   0.00000  Uiso   1.00
C571   C     0.08994   0.83662   0.09202   0.00000  Uiso   1.00
C572   C     0.22506   0.83700   0.45498   0.00000  Uiso   1.00
C573   C     0.10910   0.84893   0.04753   0.00000  Uiso   1.00
C574   C     0.25762   0.82429   0.47990   0.00000  Uiso   1.00
C575   C     0.19347   0.83412   0.04885   0.00000  Uiso   1.00
C576   C     0.07722   0.86651   0.02462   0.00000  Uiso   1.00
C577   C     0.17565   0.84755   0.47775   0.00000  Uiso   1.00
C578   C     0.15916   0.84292   0.02501   0.00000  Uiso   1.00
C579   C     0.28814   0.91506   0.14335   0.00000  Uiso   1.00
C580   C     0.05243   0.76685   0.37058   0.00000  Uiso   1.00
C581   C     0.32819   0.75337   0.49663   0.00000  Uiso   1.00
C582   C     0.00785   0.94346   0.02221   0.00000  Uiso   1.00
C583   C     0.16611   0.76260   0.15478   0.00000  Uiso   1.00
C584   C     0.18760   0.93328   0.29558   0.00000  Uiso   1.00
C585   C     0.14227   0.86324   0.45530   0.00000  Uiso   1.00
C586   C     0.24132   0.82447   0.02683   0.00000  Uiso   1.00
C587   C     0.09459   0.87328   0.47842   0.00000  Uiso   1.00
C588   C     0.29884   0.68923   0.28247   0.00000  Uiso   1.00
C589   C     0.03608   0.97743   0.21769   0.00000  Uiso   1.00
C590   C     0.29897   0.97961   0.28264   0.00000  Uiso   1.00
Cu591  Cu    0.04689   0.83334   0.25000   0.00000  Uiso   1.00
Cu592  Cu    0.28645   0.83333   0.25000   0.00000  Uiso   1.00
H593   H     0.11199   0.81928   0.10904   0.00000  Uiso   1.00
H594   H     0.05538   0.74592   0.39797   0.00000  Uiso   1.00
H595   H     0.08799   0.76666   0.34477   0.00000  Uiso   1.00
H596   H     0.02486   0.75513   0.35457   0.00000  Uiso   1.00
H597   H     0.04012   0.80170   0.47118   0.00000  Uiso   1.00
H598   H     0.01891   0.74394   0.01769   0.00000  Uiso   1.00
H599   H     0.00227   0.73247   0.46670   0.00000  Uiso   1.00
H600   H     0.29009   0.74956   0.01666   0.00000  Uiso   1.00
H601   H     0.29550   0.89355   0.03621   0.00000  Uiso   1.00
H602   H     0.31794   0.95820   0.00297   0.00000  Uiso   1.00
H603   H     0.04628   0.94893   0.00415   0.00000  Uiso   1.00
H604   H     0.21908   0.84584   0.38767   0.00000  Uiso   1.00
H605   H     0.33294   0.95845   0.05598   0.00000  Uiso   1.00
H606   H     0.18451   0.83639   0.08493   0.00000  Uiso   1.00
H607   H     0.15184   0.86950   0.41993   0.00000  Uiso   1.00
H608   H     0.27186   0.70661   0.30798   0.00000  Uiso   1.00
H609   H     0.06330   0.95998   0.19248   0.00000  Uiso   1.00
H610   H     0.27367   0.96382   0.30929   0.00000  Uiso   1.00
H611   H     0.06436   0.70285   0.19305   0.00000  Uiso   1.00
H612   H     0.22598   0.78334   0.20405   0.00000  Uiso   1.00
H613   H     0.10652   0.88061   0.29914   0.00000  Uiso   1.00
H614   H     0.12211   0.74882   0.21754   0.00000  Uiso   1.00
H615   H     0.26575   0.81768   0.04716   0.00000  Uiso   1.00
H616   H     0.14410   0.74973   0.13360   0.00000  Uiso   1.00
H617   H     0.19292   0.73840   0.15834   0.00000  Uiso   1.00
H618   H     0.18568   0.78974   0.13779   0.00000  Uiso   1.00
H619   H     0.18283   0.88361   0.33796   0.00000  Uiso   1.00
H620   H     0.14890   0.93922   0.29728   0.00000  Uiso   1.00
H621   H     0.21045   0.94189   0.26188   0.00000  Uiso   1.00
H622   H     0.19561   0.95358   0.32162   0.00000  Uiso   1.00
H623   H     0.07094   0.88538   0.45933   0.00000  Uiso   1.00
H624   H     0.26835   0.86920   0.10371   0.00000  Uiso   1.00
H625   H     0.27669   0.93971   0.12336   0.00000  Uiso   1.00
H626   H     0.32166   0.92449   0.15193   0.00000  Uiso   1.00
H627   H     0.25899   0.91171   0.17509   0.00000  Uiso   1.00
H628   H     0.06520   0.82152   0.40212   0.00000  Uiso   1.00
N629   N     0.11736   0.83334   0.24999   0.00000  Uiso   1.00
N630   N     0.21597   0.83332   0.25001   0.00000  Uiso   1.00
N631   N     0.29533   0.87605   0.11859   0.00000  Uiso   1.00
N632   N     0.04020   0.80869   0.38788   0.00000  Uiso   1.00
N633   N     0.00377   0.79605   0.48320   0.00000  Uiso   1.00
N634   N     0.33191   0.89949   0.02608   0.00000  Uiso   1.00
N635   N     0.13450   0.77437   0.19845   0.00000  Uiso   1.00
N636   N     0.19699   0.89027   0.30448   0.00000  Uiso   1.00
O637   O     0.03958   0.77322   0.25000   0.00000  Uiso   1.00
O638   O     0.29375   0.89345   0.25000   0.00000  Uiso   1.00
O639   O     0.29372   0.77321   0.25001   0.00000  Uiso   1.00
O640   O     0.03961   0.89346   0.25000   0.00000  Uiso   1.00
O641   O     0.01852   0.83334   0.31492   0.00000  Uiso   1.00
O642   O     0.31481   0.83332   0.18509   0.00000  Uiso   1.00
O643   O     0.27267   0.83333   0.31492   0.00000  Uiso   1.00
O644   O     0.06067   0.83333   0.18508   0.00000  Uiso   1.00
C645   C     0.33378   0.75412   0.24987   0.00000  Uiso   1.00
C646   C     0.37017   0.68711   0.21815   0.00000  Uiso   1.00
C647   C     0.66657   0.95717   0.24955   0.00000  Uiso   1.00
C648   C     0.33444   0.70954   0.25019   0.00000  Uiso   1.00
C649   C     0.53350   0.80571   0.22399   0.00000  Uiso   1.00
C650   C     0.46620   0.86003   0.27695   0.00000  Uiso   1.00
C651   C     0.48395   0.80555   0.22351   0.00000  Uiso   1.00
C652   C     0.51591   0.86111   0.27627   0.00000  Uiso   1.00
C653   C     0.63944   0.83223   0.33622   0.00000  Uiso   1.00
C654   C     0.36047   0.83582   0.16400   0.00000  Uiso   1.00
C655   C     0.62459   0.82930   0.38582   0.00000  Uiso   1.00
C656   C     0.66647   0.91256   0.24983   0.00000  Uiso   1.00
C657   C     0.37511   0.84493   0.11547   0.00000  Uiso   1.00
C658   C     0.63972   0.81272   0.45783   0.00000  Uiso   1.00
C659   C     0.36177   0.87662   0.04808   0.00000  Uiso   1.00
C660   C     0.65710   0.81686   0.41063   0.00000  Uiso   1.00
C661   C     0.34389   0.86556   0.09383   0.00000  Uiso   1.00
C662   C     0.57604   0.83813   0.40808   0.00000  Uiso   1.00
C663   C     0.42328   0.83662   0.09202   0.00000  Uiso   1.00
C664   C     0.55839   0.83700   0.45498   0.00000  Uiso   1.00
C665   C     0.44243   0.84893   0.04753   0.00000  Uiso   1.00
C666   C     0.59096   0.82429   0.47990   0.00000  Uiso   1.00
C667   C     0.52681   0.83412   0.04885   0.00000  Uiso   1.00
C668   C     0.41055   0.86651   0.02462   0.00000  Uiso   1.00
C669   C     0.50899   0.84755   0.47775   0.00000  Uiso   1.00
C670   C     0.49250   0.84292   0.02501   0.00000  Uiso   1.00
C671   C     0.62147   0.91506   0.14335   0.00000  Uiso   1.00
C672   C     0.38576   0.76685   0.37058   0.00000  Uiso   1.00
C673   C     0.66152   0.75337   0.49663   0.00000  Uiso   1.00
C674   C     0.34119   0.94346   0.02221   0.00000  Uiso   1.00
C675   C     0.49944   0.76260   0.15478   0.00000  Uiso   1.00
C676   C     0.52093   0.93328   0.29558   0.00000  Uiso   1.00
C677   C     0.47560   0.86324   0.45530   0.00000  Uiso   1.00
C678   C     0.57465   0.82447   0.02683   0.00000  Uiso   1.00
C679   C     0.42792   0.87328   0.47842   0.00000  Uiso   1.00
C680   C     0.63217   0.68923   0.28247   0.00000  Uiso   1.00
C681   C     0.36942   0.97743   0.21769   0.00000  Uiso   1.00
C682   C     0.63230   0.97961   0.28264   0.00000  Uiso   1.00
Cu683  Cu    0.38022   0.83334   0.25000   0.00000  Uiso   1.00
Cu684  Cu    0.61978   0.83333   0.25000   0.00000  Uiso   1.00
H685   H     0.44532   0.81928   0.10904   0.00000  Uiso   1.00
H686   H     0.38871   0.74592   0.39797   0.00000  Uiso   1.00
H687   H     0.42133   0.76666   0.34477   0.00000  Uiso   1.00
H688   H     0.35819   0.75513   0.35457   0.00000  Uiso   1.00
H689   H     0.37345   0.80170   0.47118   0.00000  Uiso   1.00
H690   H     0.35224   0.74394   0.01769   0.00000  Uiso   1.00
H691   H     0.33560   0.73247   0.46670   0.00000  Uiso   1.00
H692   H     0.62342   0.74956   0.01666   0.00000  Uiso   1.00
H693   H     0.62884   0.89355   0.03621   0.00000  Uiso   1.00
H694   H     0.65127   0.95820   0.00297   0.00000  Uiso   1.00
H695   H     0.37961   0.94893   0.00415   0.00000  Uiso   1.00
H696   H     0.55241   0.84584   0.38767   0.00000  Uiso   1.00
H697   H     0.66627   0.95845   0.05598   0.00000  Uiso   1.00
H698   H     0.51784   0.83639   0.08493   0.00000  Uiso   1.00
H699   H     0.48517   0.86950   0.41993   0.00000  Uiso   1.00
H700   H     0.60520   0.70661   0.30798   0.00000  Uiso   1.00
H701   H     0.39663   0.95998   0.19248   0.00000  Uiso   1.00
H702   H     0.60700   0.96382   0.30929   0.00000  Uiso   1.00
H703   H     0.39769   0.70285   0.19305   0.00000  Uiso   1.00
H704   H     0.55932   0.78334   0.20405   0.00000  Uiso   1.00
H705   H     0.43985   0.88061   0.29914   0.00000  Uiso   1.00
H706   H     0.45545   0.74882   0.21754   0.00000  Uiso   1.00
H707   H     0.59908   0.81768   0.04716   0.00000  Uiso   1.00
H708   H     0.47743   0.74973   0.13360   0.00000  Uiso   1.00
H709   H     0.52625   0.73840   0.15834   0.00000  Uiso   1.00
H710   H     0.51901   0.78974   0.13779   0.00000  Uiso   1.00
H711   H     0.51616   0.88361   0.33796   0.00000  Uiso   1.00
H712   H     0.48223   0.93922   0.29728   0.00000  Uiso   1.00
H713   H     0.54379   0.94189   0.26188   0.00000  Uiso   1.00
H714   H     0.52895   0.95358   0.32162   0.00000  Uiso   1.00
H715   H     0.40427   0.88538   0.45933   0.00000  Uiso   1.00
H716   H     0.60169   0.86920   0.10371   0.00000  Uiso   1.00
H717   H     0.61002   0.93971   0.12336   0.00000  Uiso   1.00
H718   H     0.65499   0.92449   0.15193   0.00000  Uiso   1.00
H719   H     0.59232   0.91171   0.17509   0.00000  Uiso   1.00
H720   H     0.39853   0.82152   0.40212   0.00000  Uiso   1.00
N721   N     0.45069   0.83334   0.24999   0.00000  Uiso   1.00
N722   N     0.54931   0.83332   0.25001   0.00000  Uiso   1.00
N723   N     0.62867   0.87605   0.11859   0.00000  Uiso   1.00
N724   N     0.37353   0.80869   0.38788   0.00000  Uiso   1.00
N725   N     0.33710   0.79605   0.48320   0.00000  Uiso   1.00
N726   N     0.66525   0.89949   0.02608   0.00000  Uiso   1.00
N727   N     0.46784   0.77437   0.19845   0.00000  Uiso   1.00
N728   N     0.53032   0.89027   0.30448   0.00000  Uiso   1.00
O729   O     0.37291   0.77322   0.25000   0.00000  Uiso   1.00
O730   O     0.62709   0.89345   0.25000   0.00000  Uiso   1.00
O731   O     0.62706   0.77321   0.25001   0.00000  Uiso   1.00
O732   O     0.37294   0.89346   0.25000   0.00000  Uiso   1.00
O733   O     0.35186   0.83334   0.31492   0.00000  Uiso   1.00
O734   O     0.64814   0.83332   0.18509   0.00000  Uiso   1.00
O735   O     0.60600   0.83333   0.31492   0.00000  Uiso   1.00
O736   O     0.39400   0.83333   0.18508   0.00000  Uiso   1.00
C737   C     0.66711   0.75412   0.24987   0.00000  Uiso   1.00
C738   C     0.70350   0.68711   0.21815   0.00000  Uiso   1.00
C739   C     0.99990   0.95717   0.24955   0.00000  Uiso   1.00
C740   C     0.66777   0.70954   0.25019   0.00000  Uiso   1.00
C741   C     0.86684   0.80571   0.22399   0.00000  Uiso   1.00
C742   C     0.79953   0.86003   0.27695   0.00000  Uiso   1.00
C743   C     0.81728   0.80555   0.22351   0.00000  Uiso   1.00
C744   C     0.84924   0.86111   0.27627   0.00000  Uiso   1.00
C745   C     0.97277   0.83223   0.33622   0.00000  Uiso   1.00
C746   C     0.69381   0.83582   0.16400   0.00000  Uiso   1.00
C747   C     0.95792   0.82930   0.38582   0.00000  Uiso   1.00
C748   C     0.99981   0.91256   0.24983   0.00000  Uiso   1.00
C749   C     0.70844   0.84493   0.11547   0.00000  Uiso   1.00
C750   C     0.97306   0.81272   0.45783   0.00000  Uiso   1.00
C751   C     0.69511   0.87662   0.04808   0.00000  Uiso   1.00
C752   C     0.99044   0.81686   0.41063   0.00000  Uiso   1.00
C753   C     0.67722   0.86556   0.09383   0.00000  Uiso   1.00
C754   C     0.90937   0.83813   0.40808   0.00000  Uiso   1.00
C755   C     0.75661   0.83662   0.09202   0.00000  Uiso   1.00
C756   C     0.89172   0.83700   0.45498   0.00000  Uiso   1.00
C757   C     0.77576   0.84893   0.04753   0.00000  Uiso   1.00
C758   C     0.92429   0.82429   0.47990   0.00000  Uiso   1.00
C759   C     0.86014   0.83412   0.04885   0.00000  Uiso   1.00
C760   C     0.74388   0.86651   0.02462   0.00000  Uiso   1.00
C761   C     0.84232   0.84755   0.47775   0.00000  Uiso   1.00
C762   C     0.82583   0.84292   0.02501   0.00000  Uiso   1.00
C763   C     0.95481   0.91506   0.14335   0.00000  Uiso   1.00
C764   C     0.71909   0.76685   0.37058   0.00000  Uiso   1.00
C765   C     0.99486   0.75337   0.49663   0.00000  Uiso   1.00
C766   C     0.67452   0.94346   0.02221   0.00000  Uiso   1.00
C767   C     0.83277   0.76260   0.15478   0.00000  Uiso   1.00
C768   C     0.85427   0.93328   0.29558   0.00000  Uiso   1.00
C769   C     0.80894   0.86324   0.45530   0.00000  Uiso   1.00
C770   C     0.90799   0.82447   0.02683   0.00000  Uiso   1.00
C771   C     0.76125   0.87328   0.47842   0.00000  Uiso   1.00
C772   C     0.96551   0.68923   0.28247   0.00000  Uiso   1.00
C773   C     0.70275   0.97743   0.21769   0.00000  Uiso   1.00
C774   C     0.96563   0.97961   0.28264   0.00000  Uiso   1.00
Cu775  Cu    0.71355   0.83334   0.25000   0.00000  Uiso   1.00
Cu776  Cu    0.95311   0.83333   0.25000   0.00000  Uiso   1.00
H777   H     0.77866   0.81928   0.10904   0.00000  Uiso   1.00
H778   H     0.72204   0.74592   0.39797   0.00000  Uiso   1.00
H779   H     0.75466   0.76666   0.34477   0.00000  Uiso   1.00
H780   H     0.69153   0.75513   0.35457   0.00000  Uiso   1.00
H781   H     0.70679   0.80170   0.47118   0.00000  Uiso   1.00
H782   H     0.68558   0.74394   0.01769   0.00000  Uiso   1.00
H783   H     0.66893   0.73247   0.46670   0.00000  Uiso   1.00
H784   H     0.95676   0.74956   0.01666   0.00000  Uiso   1.00
H785   H     0.96217   0.89355   0.03621   0.00000  Uiso   1.00
H786   H     0.98460   0.95820   0.00297   0.00000  Uiso   1.00
H787   H     0.71294   0.94893   0.00415   0.00000  Uiso   1.00
H788   H     0.88574   0.84584   0.38767   0.00000  Uiso   1.00
H789   H     0.99960   0.95845   0.05598   0.00000  Uiso   1.00
H790   H     0.85118   0.83639   0.08493   0.00000  Uiso   1.00
H791   H     0.81850   0.86950   0.41993   0.00000  Uiso   1.00
H792   H     0.93853   0.70661   0.30798   0.00000  Uiso   1.00
H793   H     0.72996   0.95998   0.19248   0.00000  Uiso   1.00
H794   H     0.94034   0.96382   0.30929   0.00000  Uiso   1.00
H795   H     0.73102   0.70285   0.19305   0.00000  Uiso   1.00
H796   H     0.89265   0.78334   0.20405   0.00000  Uiso   1.00
H797   H     0.77319   0.88061   0.29914   0.00000  Uiso   1.00
H798   H     0.78878   0.74882   0.21754   0.00000  Uiso   1.00
H799   H     0.93242   0.81768   0.04716   0.00000  Uiso   1.00
H800   H     0.81076   0.74973   0.13360   0.00000  Uiso   1.00
H801   H     0.85958   0.73840   0.15834   0.00000  Uiso   1.00
H802   H     0.85234   0.78974   0.13779   0.00000  Uiso   1.00
H803   H     0.84950   0.88361   0.33796   0.00000  Uiso   1.00
H804   H     0.81556   0.93922   0.29728   0.00000  Uiso   1.00
H805   H     0.87712   0.94189   0.26188   0.00000  Uiso   1.00
H806   H     0.86228   0.95358   0.32162   0.00000  Uiso   1.00
H807   H     0.73761   0.88538   0.45933   0.00000  Uiso   1.00
H808   H     0.93502   0.86920   0.10371   0.00000  Uiso   1.00
H809   H     0.94335   0.93971   0.12336   0.00000  Uiso   1.00
H810   H     0.98833   0.92449   0.15193   0.00000  Uiso   1.00
H811   H     0.92565   0.91171   0.17509   0.00000  Uiso   1.00
H812   H     0.73186   0.82152   0.40212   0.00000  Uiso   1.00
N813   N     0.78403   0.83334   0.24999   0.00000  Uiso   1.00
N814   N     0.88264   0.83332   0.25001   0.00000  Uiso   1.00
N815   N     0.96200   0.87605   0.11859   0.00000  Uiso   1.00
N816   N     0.70687   0.80869   0.38788   0.00000  Uiso   1.00
N817   N     0.67043   0.79605   0.48320   0.00000  Uiso   1.00
N818   N     0.99858   0.89949   0.02608   0.00000  Uiso   1.00
N819   N     0.80117   0.77437   0.19845   0.00000  Uiso   1.00
N820   N     0.86366   0.89027   0.30448   0.00000  Uiso   1.00
O821   O     0.70625   0.77322   0.25000   0.00000  Uiso   1.00
O822   O     0.96042   0.89345   0.25000   0.00000  Uiso   1.00
O823   O     0.96039   0.77321   0.25001   0.00000  Uiso   1.00
O824   O     0.70628   0.89346   0.25000   0.00000  Uiso   1.00
O825   O     0.68519   0.83334   0.31492   0.00000  Uiso   1.00
O826   O     0.98148   0.83332   0.18509   0.00000  Uiso   1.00
O827   O     0.93933   0.83333   0.31492   0.00000  Uiso   1.00
O828   O     0.72733   0.83333   0.18508   0.00000  Uiso   1.00
C829   C     0.00044   0.08746   0.74987   0.00000  Uiso   1.00
C830   C     0.03683   0.02045   0.71815   0.00000  Uiso   1.00
C831   C     0.33324   0.29050   0.74955   0.00000  Uiso   1.00
C832   C     0.00111   0.04287   0.75019   0.00000  Uiso   1.00
C833   C     0.20017   0.13905   0.72399   0.00000  Uiso   1.00
C834   C     0.13286   0.19336   0.77695   0.00000  Uiso   1.00
C835   C     0.15061   0.13889   0.72351   0.00000  Uiso   1.00
C836   C     0.18258   0.19444   0.77627   0.00000  Uiso   1.00
C837   C     0.30610   0.16557   0.83622   0.00000  Uiso   1.00
C838   C     0.02714   0.16916   0.66400   0.00000  Uiso   1.00
C839   C     0.29125   0.16263   0.88582   0.00000  Uiso   1.00
C840   C     0.33314   0.24589   0.74983   0.00000  Uiso   1.00
C841   C     0.04177   0.17827   0.61547   0.00000  Uiso   1.00
C842   C     0.30639   0.14605   0.95783   0.00000  Uiso   1.00
C843   C     0.02844   0.20996   0.54808   0.00000  Uiso   1.00
C844   C     0.32377   0.15019   0.91063   0.00000  Uiso   1.00
C845   C     0.01056   0.19889   0.59383   0.00000  Uiso   1.00
C846   C     0.24270   0.17147   0.90808   0.00000  Uiso   1.00
C847   C     0.08994   0.16995   0.59202   0.00000  Uiso   1.00
C848   C     0.22506   0.17033   0.95498   0.00000  Uiso   1.00
C849   C     0.10910   0.18226   0.54753   0.00000  Uiso   1.00
C850   C     0.25762   0.15763   0.97990   0.00000  Uiso   1.00
C851   C     0.19347   0.16745   0.54885   0.00000  Uiso   1.00
C852   C     0.07722   0.19985   0.52462   0.00000  Uiso   1.00
C853   C     0.17565   0.18088   0.97775   0.00000  Uiso   1.00
C854   C     0.15916   0.17626   0.52501   0.00000  Uiso   1.00
C855   C     0.28814   0.24839   0.64335   0.00000  Uiso   1.00
C856   C     0.05243   0.10018   0.87058   0.00000  Uiso   1.00
C857   C     0.32819   0.08670   0.99663   0.00000  Uiso   1.00
C858   C     0.00785   0.27680   0.52221   0.00000  Uiso   1.00
C859   C     0.16611   0.09593   0.65478   0.00000  Uiso   1.00
C860   C     0.18760   0.26661   0.79558   0.00000  Uiso   1.00
C861   C     0.14227   0.19657   0.95530   0.00000  Uiso   1.00
C862   C     0.24132   0.15780   0.52683   0.00000  Uiso   1.00
C863   C     0.09459   0.20661   0.97842   0.00000  Uiso   1.00
C864   C     0.29884   0.02257   0.78247   0.00000  Uiso   1.00
C865   C     0.03608   0.31076   0.71769   0.00000  Uiso   1.00
C866   C     0.29897   0.31295   0.78264   0.00000  Uiso   1.00
Cu867  Cu    0.04689   0.16667   0.75000   0.00000  Uiso   1.00
Cu868  Cu    0.28645   0.16666   0.75000   0.00000  Uiso   1.00
H869   H     0.11199   0.15262   0.60904   0.00000  Uiso   1.00
H870   H     0.05538   0.07926   0.89797   0.00000  Uiso   1.00
H871   H     0.08799   0.09999   0.84477   0.00000  Uiso   1.00
H872   H     0.02486   0.08846   0.85457   0.00000  Uiso   1.00
H873   H     0.04012   0.13504   0.97118   0.00000  Uiso   1.00
H874   H     0.01891   0.07727   0.51769   0.00000  Uiso   1.00
H875   H     0.00227   0.06581   0.96670   0.00000  Uiso   1.00
H876   H     0.29009   0.08289   0.51666   0.00000  Uiso   1.00
H877   H     0.29550   0.22688   0.53621   0.00000  Uiso   1.00
H878   H     0.31794   0.29153   0.50297   0.00000  Uiso   1.00
H879   H     0.04628   0.28227   0.50415   0.00000  Uiso   1.00
H880   H     0.21908   0.17917   0.88767   0.00000  Uiso   1.00
H881   H     0.33294   0.29179   0.55598   0.00000  Uiso   1.00
H882   H     0.18451   0.16972   0.58493   0.00000  Uiso   1.00
H883   H     0.15184   0.20284   0.91993   0.00000  Uiso   1.00
H884   H     0.27186   0.03994   0.80798   0.00000  Uiso   1.00
H885   H     0.06330   0.29331   0.69248   0.00000  Uiso   1.00
H886   H     0.27367   0.29715   0.80929   0.00000  Uiso   1.00
H887   H     0.06436   0.03618   0.69305   0.00000  Uiso   1.00
H888   H     0.22598   0.11667   0.70405   0.00000  Uiso   1.00
H889   H     0.10652   0.21395   0.79914   0.00000  Uiso   1.00
H890   H     0.12211   0.08215   0.71754   0.00000  Uiso   1.00
H891   H     0.26575   0.15101   0.54716   0.00000  Uiso   1.00
H892   H     0.14410   0.08306   0.63360   0.00000  Uiso   1.00
H893   H     0.19292   0.07173   0.65834   0.00000  Uiso   1.00
H894   H     0.18568   0.12308   0.63779   0.00000  Uiso   1.00
H895   H     0.18283   0.21695   0.83796   0.00000  Uiso   1.00
H896   H     0.14890   0.27256   0.79728   0.00000  Uiso   1.00
H897   H     0.21045   0.27522   0.76188   0.00000  Uiso   1.00
H898   H     0.19561   0.28692   0.82162   0.00000  Uiso   1.00
H899   H     0.07094   0.21872   0.95933   0.00000  Uiso   1.00
H900   H     0.26835   0.20254   0.60371   0.00000  Uiso   1.00
H901   H     0.27669   0.27304   0.62336   0.00000  Uiso   1.00
H902   H     0.32166   0.25783   0.65193   0.00000  Uiso   1.00
H903   H     0.25899   0.24505   0.67509   0.00000  Uiso   1.00
H904   H     0.06520   0.15485   0.90212   0.00000  Uiso   1.00
N905   N     0.11736   0.16668   0.74999   0.00000  Uiso   1.00
N906   N     0.21597   0.16666   0.75001   0.00000  Uiso   1.00
N907   N     0.29533   0.20938   0.61859   0.00000  Uiso   1.00
N908   N     0.04020   0.14202   0.88788   0.00000  Uiso   1.00
N909   N     0.00377   0.12938   0.98320   0.00000  Uiso   1.00
N910   N     0.33191   0.23282   0.52608   0.00000  Uiso   1.00
N911   N     0.13450   0.10770   0.69845   0.00000  Uiso   1.00
N912   N     0.19699   0.22360   0.80448   0.00000  Uiso   1.00
O913   O     0.03958   0.10655   0.75000   0.00000  Uiso   1.00
O914   O     0.29375   0.22678   0.75000   0.00000  Uiso   1.00
O915   O     0.29372   0.10654   0.75001   0.00000  Uiso   1.00
O916   O     0.03961   0.22679   0.75000   0.00000  Uiso   1.00
O917   O     0.01852   0.16668   0.81492   0.00000  Uiso   1.00
O918   O     0.31481   0.16666   0.68509   0.00000  Uiso   1.00
O919   O     0.27267   0.16667   0.81492   0.00000  Uiso   1.00
O920   O     0.06067   0.16667   0.68508   0.00000  Uiso   1.00
C921   C     0.33378   0.08746   0.74987   0.00000  Uiso   1.00
C922   C     0.37017   0.02045   0.71815   0.00000  Uiso   1.00
C923   C     0.66657   0.29050   0.74955   0.00000  Uiso   1.00
C924   C     0.33444   0.04287   0.75019   0.00000  Uiso   1.00
C925   C     0.53350   0.13905   0.72399   0.00000  Uiso   1.00
C926   C     0.46620   0.19336   0.77695   0.00000  Uiso   1.00
C927   C     0.48395   0.13889   0.72351   0.00000  Uiso   1.00
C928   C     0.51591   0.19444   0.77627   0.00000  Uiso   1.00
C929   C     0.63944   0.16557   0.83622   0.00000  Uiso   1.00
C930   C     0.36047   0.16916   0.66400   0.00000  Uiso   1.00
C931   C     0.62459   0.16263   0.88582   0.00000  Uiso   1.00
C932   C     0.66647   0.24589   0.74983   0.00000  Uiso   1.00
C933   C     0.37511   0.17827   0.61547   0.00000  Uiso   1.00
C934   C     0.63972   0.14605   0.95783   0.00000  Uiso   1.00
C935   C     0.36177   0.20996   0.54808   0.00000  Uiso   1.00
C936   C     0.65710   0.15019   0.91063   0.00000  Uiso   1.00
C937   C     0.34389   0.19889   0.59383   0.00000  Uiso   1.00
C938   C     0.57604   0.17147   0.90808   0.00000  Uiso   1.00
C939   C     0.42328   0.16995   0.59202   0.00000  Uiso   1.00
C940   C     0.55839   0.17033   0.95498   0.00000  Uiso   1.00
C941   C     0.44243   0.18226   0.54753   0.00000  Uiso   1.00
C942   C     0.59096   0.15763   0.97990   0.00000  Uiso   1.00
C943   C     0.52681   0.16745   0.54885   0.00000  Uiso   1.00
C944   C     0.41055   0.19985   0.52462   0.00000  Uiso   1.00
C945   C     0.50899   0.18088   0.97775   0.00000  Uiso   1.00
C946   C     0.49250   0.17626   0.52501   0.00000  Uiso   1.00
C947   C     0.62147   0.24839   0.64335   0.00000  Uiso   1.00
C948   C     0.38576   0.10018   0.87058   0.00000  Uiso   1.00
C949   C     0.66152   0.08670   0.99663   0.00000  Uiso   1.00
C950   C     0.34119   0.27680   0.52221   0.00000  Uiso   1.00
C951   C     0.49944   0.09593   0.65478   0.00000  Uiso   1.00
C952   C     0.52093   0.26661   0.79558   0.00000  Uiso   1.00
C953   C     0.47560   0.19657   0.95530   0.00000  Uiso   1.00
C954   C     0.57465   0.15780   0.52683   0.00000  Uiso   1.00
C955   C     0.42792   0.20661   0.97842   0.00000  Uiso   1.00
C956   C     0.63217   0.02257   0.78247   0.00000  Uiso   1.00
C957   C     0.36942   0.31076   0.71769   0.00000  Uiso   1.00
C958   C     0.63230   0.31295   0.78264   0.00000  Uiso   1.00
Cu959  Cu    0.38022   0.16667   0.75000   0.00000  Uiso   1.00
Cu960  Cu    0.61978   0.16666   0.75000   0.00000  Uiso   1.00
H961   H     0.44532   0.15262   0.60904   0.00000  Uiso   1.00
H962   H     0.38871   0.07926   0.89797   0.00000  Uiso   1.00
H963   H     0.42133   0.09999   0.84477   0.00000  Uiso   1.00
H964   H     0.35819   0.08846   0.85457   0.00000  Uiso   1.00
H965   H     0.37345   0.13504   0.97118   0.00000  Uiso   1.00
H966   H     0.35224   0.07727   0.51769   0.00000  Uiso   1.00
H967   H     0.33560   0.06581   0.96670   0.00000  Uiso   1.00
H968   H     0.62342   0.08289   0.51666   0.00000  Uiso   1.00
H969   H     0.62884   0.22688   0.53621   0.00000  Uiso   1.00
H970   H     0.65127   0.29153   0.50297   0.00000  Uiso   1.00
H971   H     0.37961   0.28227   0.50415   0.00000  Uiso   1.00
H972   H     0.55241   0.17917   0.88767   0.00000  Uiso   1.00
H973   H     0.66627   0.29179   0.55598   0.00000  Uiso   1.00
H974   H     0.51784   0.16972   0.58493   0.00000  Uiso   1.00
H975   H     0.48517   0.20284   0.91993   0.00000  Uiso   1.00
H976   H     0.60520   0.03994   0.80798   0.00000  Uiso   1.00
H977   H     0.39663   0.29331   0.69248   0.00000  Uiso   1.00
H978   H     0.60700   0.29715   0.80929   0.00000  Uiso   1.00
H979   H     0.39769   0.03618   0.69305   0.00000  Uiso   1.00
H980   H     0.55932   0.11667   0.70405   0.00000  Uiso   1.00
H981   H     0.43985   0.21395   0.79914   0.00000  Uiso   1.00
H982   H     0.45545   0.08215   0.71754   0.00000  Uiso   1.00
H983   H     0.59908   0.15101   0.54716   0.00000  Uiso   1.00
H984   H     0.47743   0.08306   0.63360   0.00000  Uiso   1.00
H985   H     0.52625   0.07173   0.65834   0.00000  Uiso   1.00
H986   H     0.51901   0.12308   0.63779   0.00000  Uiso   1.00
H987   H     0.51616   0.21695   0.83796   0.00000  Uiso   1.00
H988   H     0.48223   0.27256   0.79728   0.00000  Uiso   1.00
H989   H     0.54379   0.27522   0.76188   0.00000  Uiso   1.00
H990   H     0.52895   0.28692   0.82162   0.00000  Uiso   1.00
H991   H     0.40427   0.21872   0.95933   0.00000  Uiso   1.00
H992   H     0.60169   0.20254   0.60371   0.00000  Uiso   1.00
H993   H     0.61002   0.27304   0.62336   0.00000  Uiso   1.00
H994   H     0.65499   0.25783   0.65193   0.00000  Uiso   1.00
H995   H     0.59232   0.24505   0.67509   0.00000  Uiso   1.00
H996   H     0.39853   0.15485   0.90212   0.00000  Uiso   1.00
N997   N     0.45069   0.16668   0.74999   0.00000  Uiso   1.00
N998   N     0.54931   0.16666   0.75001   0.00000  Uiso   1.00
N999   N     0.62867   0.20938   0.61859   0.00000  Uiso   1.00
N1000  N     0.37353   0.14202   0.88788   0.00000  Uiso   1.00
N1001  N     0.33710   0.12938   0.98320   0.00000  Uiso   1.00
N1002  N     0.66525   0.23282   0.52608   0.00000  Uiso   1.00
N1003  N     0.46784   0.10770   0.69845   0.00000  Uiso   1.00
N1004  N     0.53032   0.22360   0.80448   0.00000  Uiso   1.00
O1005  O     0.37291   0.10655   0.75000   0.00000  Uiso   1.00
O1006  O     0.62709   0.22678   0.75000   0.00000  Uiso   1.00
O1007  O     0.62706   0.10654   0.75001   0.00000  Uiso   1.00
O1008  O     0.37294   0.22679   0.75000   0.00000  Uiso   1.00
O1009  O     0.35186   0.16668   0.81492   0.00000  Uiso   1.00
O1010  O     0.64814   0.16666   0.68509   0.00000  Uiso   1.00
O1011  O     0.60600   0.16667   0.81492   0.00000  Uiso   1.00
O1012  O     0.39400   0.16667   0.68508   0.00000  Uiso   1.00
C1013  C     0.66711   0.08746   0.74987   0.00000  Uiso   1.00
C1014  C     0.70350   0.02045   0.71815   0.00000  Uiso   1.00
C1015  C     0.99990   0.29050   0.74955   0.00000  Uiso   1.00
C1016  C     0.66777   0.04287   0.75019   0.00000  Uiso   1.00
C1017  C     0.86684   0.13905   0.72399   0.00000  Uiso   1.00
C1018  C     0.79953   0.19336   0.77695   0.00000  Uiso   1.00
C1019  C     0.81728   0.13889   0.72351   0.00000  Uiso   1.00
C1020  C     0.84924   0.19444   0.77627   0.00000  Uiso   1.00
C1021  C     0.97277   0.16557   0.83622   0.00000  Uiso   1.00
C1022  C     0.69381   0.16916   0.66400   0.00000  Uiso   1.00
C1023  C     0.95792   0.16263   0.88582   0.00000  Uiso   1.00
C1024  C     0.99981   0.24589   0.74983   0.00000  Uiso   1.00
C1025  C     0.70844   0.17827   0.61547   0.00000  Uiso   1.00
C1026  C     0.97306   0.14605   0.95783   0.00000  Uiso   1.00
C1027  C     0.69511   0.20996   0.54808   0.00000  Uiso   1.00
C1028  C     0.99044   0.15019   0.91063   0.00000  Uiso   1.00
C1029  C     0.67722   0.19889   0.59383   0.00000  Uiso   1.00
C1030  C     0.90937   0.17147   0.90808   0.00000  Uiso   1.00
C1031  C     0.75661   0.16995   0.59202   0.00000  Uiso   1.00
C1032  C     0.89172   0.17033   0.95498   0.00000  Uiso   1.00
C1033  C     0.77576   0.18226   0.54753   0.00000  Uiso   1.00
C1034  C     0.92429   0.15763   0.97990   0.00000  Uiso   1.00
C1035  C     0.86014   0.16745   0.54885   0.00000  Uiso   1.00
C1036  C     0.74388   0.19985   0.52462   0.00000  Uiso   1.00
C1037  C     0.84232   0.18088   0.97775   0.00000  Uiso   1.00
C1038  C     0.82583   0.17626   0.52501   0.00000  Uiso   1.00
C1039  C     0.95481   0.24839   0.64335   0.00000  Uiso   1.00
C1040  C     0.71909   0.10018   0.87058   0.00000  Uiso   1.00
C1041  C     0.99486   0.08670   0.99663   0.00000  Uiso   1.00
C1042  C     0.67452   0.27680   0.52221   0.00000  Uiso   1.00
C1043  C     0.83277   0.09593   0.65478   0.00000  Uiso   1.00
C1044  C     0.85427   0.26661   0.79558   0.00000  Uiso   1.00
C1045  C     0.80894   0.19657   0.95530   0.00000  Uiso   1.00
C1046  C     0.90799   0.15780   0.52683   0.00000  Uiso   1.00
C1047  C     0.76125   0.20661   0.97842   0.00000  Uiso   1.00
C1048  C     0.96551   0.02257   0.78247   0.00000  Uiso   1.00
C1049  C     0.70275   0.31076   0.71769   0.00000  Uiso   1.00
C1050  C     0.96563   0.31295   0.78264   0.00000  Uiso   1.00
Cu1051 Cu    0.71355   0.16667   0.75000   0.00000  Uiso   1.00
Cu1052 Cu    0.95311   0.16666   0.75000   0.00000  Uiso   1.00
H1053  H     0.77866   0.15262   0.60904   0.00000  Uiso   1.00
H1054  H     0.72204   0.07926   0.89797   0.00000  Uiso   1.00
H1055  H     0.75466   0.09999   0.84477   0.00000  Uiso   1.00
H1056  H     0.69153   0.08846   0.85457   0.00000  Uiso   1.00
H1057  H     0.70679   0.13504   0.97118   0.00000  Uiso   1.00
H1058  H     0.68558   0.07727   0.51769   0.00000  Uiso   1.00
H1059  H     0.66893   0.06581   0.96670   0.00000  Uiso   1.00
H1060  H     0.95676   0.08289   0.51666   0.00000  Uiso   1.00
H1061  H     0.96217   0.22688   0.53621   0.00000  Uiso   1.00
H1062  H     0.98460   0.29153   0.50297   0.00000  Uiso   1.00
H1063  H     0.71294   0.28227   0.50415   0.00000  Uiso   1.00
H1064  H     0.88574   0.17917   0.88767   0.00000  Uiso   1.00
H1065  H     0.99960   0.29179   0.55598   0.00000  Uiso   1.00
H1066  H     0.85118   0.16972   0.58493   0.00000  Uiso   1.00
H1067  H     0.81850   0.20284   0.91993   0.00000  Uiso   1.00
H1068  H     0.93853   0.03994   0.80798   0.00000  Uiso   1.00
H1069  H     0.72996   0.29331   0.69248   0.00000  Uiso   1.00
H1070  H     0.94034   0.29715   0.80929   0.00000  Uiso   1.00
H1071  H     0.73102   0.03618   0.69305   0.00000  Uiso   1.00
H1072  H     0.89265   0.11667   0.70405   0.00000  Uiso   1.00
H1073  H     0.77319   0.21395   0.79914   0.00000  Uiso   1.00
H1074  H     0.78878   0.08215   0.71754   0.00000  Uiso   1.00
H1075  H     0.93242   0.15101   0.54716   0.00000  Uiso   1.00
H1076  H     0.81076   0.08306   0.63360   0.00000  Uiso   1.00
H1077  H     0.85958   0.07173   0.65834   0.00000  Uiso   1.00
H1078  H     0.85234   0.12308   0.63779   0.00000  Uiso   1.00
H1079  H     0.84950   0.21695   0.83796   0.00000  Uiso   1.00
H1080  H     0.81556   0.27256   0.79728   0.00000  Uiso   1.00
H1081  H     0.87712   0.27522   0.76188   0.00000  Uiso   1.00
H1082  H     0.86228   0.28692   0.82162   0.00000  Uiso   1.00
H1083  H     0.73761   0.21872   0.95933   0.00000  Uiso   1.00
H1084  H     0.93502   0.20254   0.60371   0.00000  Uiso   1.00
H1085  H     0.94335   0.27304   0.62336   0.00000  Uiso   1.00
H1086  H     0.98833   0.25783   0.65193   0.00000  Uiso   1.00
H1087  H     0.92565   0.24505   0.67509   0.00000  Uiso   1.00
H1088  H     0.73186   0.15485   0.90212   0.00000  Uiso   1.00
N1089  N     0.78403   0.16668   0.74999   0.00000  Uiso   1.00
N1090  N     0.88264   0.16666   0.75001   0.00000  Uiso   1.00
N1091  N     0.96200   0.20938   0.61859   0.00000  Uiso   1.00
N1092  N     0.70687   0.14202   0.88788   0.00000  Uiso   1.00
N1093  N     0.67043   0.12938   0.98320   0.00000  Uiso   1.00
N1094  N     0.99858   0.23282   0.52608   0.00000  Uiso   1.00
N1095  N     0.80117   0.10770   0.69845   0.00000  Uiso   1.00
N1096  N     0.86366   0.22360   0.80448   0.00000  Uiso   1.00
O1097  O     0.70625   0.10655   0.75000   0.00000  Uiso   1.00
O1098  O     0.96042   0.22678   0.75000   0.00000  Uiso   1.00
O1099  O     0.96039   0.10654   0.75001   0.00000  Uiso   1.00
O1100  O     0.70628   0.22679   0.75000   0.00000  Uiso   1.00
O1101  O     0.68519   0.16668   0.81492   0.00000  Uiso   1.00
O1102  O     0.98148   0.16666   0.68509   0.00000  Uiso   1.00
O1103  O     0.93933   0.16667   0.81492   0.00000  Uiso   1.00
O1104  O     0.72733   0.16667   0.68508   0.00000  Uiso   1.00
C1105  C     0.00044   0.42079   0.74987   0.00000  Uiso   1.00
C1106  C     0.03683   0.35378   0.71815   0.00000  Uiso   1.00
C1107  C     0.33324   0.62384   0.74955   0.00000  Uiso   1.00
C1108  C     0.00111   0.37621   0.75019   0.00000  Uiso   1.00
C1109  C     0.20017   0.47238   0.72399   0.00000  Uiso   1.00
C1110  C     0.13286   0.52670   0.77695   0.00000  Uiso   1.00
C1111  C     0.15061   0.47222   0.72351   0.00000  Uiso   1.00
C1112  C     0.18258   0.52778   0.77627   0.00000  Uiso   1.00
C1113  C     0.30610   0.49890   0.83622   0.00000  Uiso   1.00
C1114  C     0.02714   0.50249   0.66400   0.00000  Uiso   1.00
C1115  C     0.29125   0.49596   0.88582   0.00000  Uiso   1.00
C1116  C     0.33314   0.57922   0.74983   0.00000  Uiso   1.00
C1117  C     0.04177   0.51160   0.61547   0.00000  Uiso   1.00
C1118  C     0.30639   0.47938   0.95783   0.00000  Uiso   1.00
C1119  C     0.02844   0.54329   0.54808   0.00000  Uiso   1.00
C1120  C     0.32377   0.48352   0.91063   0.00000  Uiso   1.00
C1121  C     0.01056   0.53222   0.59383   0.00000  Uiso   1.00
C1122  C     0.24270   0.50480   0.90808   0.00000  Uiso   1.00
C1123  C     0.08994   0.50329   0.59202   0.00000  Uiso   1.00
C1124  C     0.22506   0.50367   0.95498   0.00000  Uiso   1.00
C1125  C     0.10910   0.51559   0.54753   0.00000  Uiso   1.00
C1126  C     0.25762   0.49096   0.97990   0.00000  Uiso   1.00
C1127  C     0.19347   0.50078   0.54885   0.00000  Uiso   1.00
C1128  C     0.07722   0.53318   0.52462   0.00000  Uiso   1.00
C1129  C     0.17565   0.51421   0.97775   0.00000  Uiso   1.00
C1130  C     0.15916   0.50959   0.52501   0.00000  Uiso   1.00
C1131  C     0.28814   0.58173   0.64335   0.00000  Uiso   1.00
C1132  C     0.05243   0.43351   0.87058   0.00000  Uiso   1.00
C1133  C     0.32819   0.42004   0.99663   0.00000  Uiso   1.00
C1134  C     0.00785   0.61013   0.52221   0.00000  Uiso   1.00
C1135  C     0.16611   0.42927   0.65478   0.00000  Uiso   1.00
C1136  C     0.18760   0.59995   0.79558   0.00000  Uiso   1.00
C1137  C     0.14227   0.52990   0.95530   0.00000  Uiso   1.00
C1138  C     0.24132   0.49113   0.52683   0.00000  Uiso   1.00
C1139  C     0.09459   0.53995   0.97842   0.00000  Uiso   1.00
C1140  C     0.29884   0.35590   0.78247   0.00000  Uiso   1.00
C1141  C     0.03608   0.64410   0.71769   0.00000  Uiso   1.00
C1142  C     0.29897   0.64628   0.78264   0.00000  Uiso   1.00
Cu1143 Cu    0.04689   0.50001   0.75000   0.00000  Uiso   1.00
Cu1144 Cu    0.28645   0.49999   0.75000   0.00000  Uiso   1.00
H1145  H     0.11199   0.48595   0.60904   0.00000  Uiso   1.00
H1146  H     0.05538   0.41259   0.89797   0.00000  Uiso   1.00
H1147  H     0.08799   0.43332   0.84477   0.00000  Uiso   1.00
H1148  H     0.02486   0.42180   0.85457   0.00000  Uiso   1.00
H1149  H     0.04012   0.46837   0.97118   0.00000  Uiso   1.00
H1150  H     0.01891   0.41061   0.51769   0.00000  Uiso   1.00
H1151  H     0.00227   0.39914   0.96670   0.00000  Uiso   1.00
H1152  H     0.29009   0.41622   0.51666   0.00000  Uiso   1.00
H1153  H     0.29550   0.56022   0.53621   0.00000  Uiso   1.00
H1154  H     0.31794   0.62486   0.50297   0.00000  Uiso   1.00
H1155  H     0.04628   0.61560   0.50415   0.00000  Uiso   1.00
H1156  H     0.21908   0.51250   0.88767   0.00000  Uiso   1.00
H1157  H     0.33294   0.62512   0.55598   0.00000  Uiso   1.00
H1158  H     0.18451   0.50306   0.58493   0.00000  Uiso   1.00
H1159  H     0.15184   0.53617   0.91993   0.00000  Uiso   1.00
H1160  H     0.27186   0.37328   0.80798   0.00000  Uiso   1.00
H1161  H     0.06330   0.62664   0.69248   0.00000  Uiso   1.00
H1162  H     0.27367   0.63049   0.80929   0.00000  Uiso   1.00
H1163  H     0.06436   0.36952   0.69305   0.00000  Uiso   1.00
H1164  H     0.22598   0.45001   0.70405   0.00000  Uiso   1.00
H1165  H     0.10652   0.54728   0.79914   0.00000  Uiso   1.00
H1166  H     0.12211   0.41548   0.71754   0.00000  Uiso   1.00
H1167  H     0.26575   0.48434   0.54716   0.00000  Uiso   1.00
H1168  H     0.14410   0.41639   0.63360   0.00000  Uiso   1.00
H1169  H     0.19292   0.40506   0.65834   0.00000  Uiso   1.00
H1170  H     0.18568   0.45641   0.63779   0.00000  Uiso   1.00
H1171  H     0.18283   0.55028   0.83796   0.00000  Uiso   1.00
H1172  H     0.14890   0.60589   0.79728   0.00000  Uiso   1.00
H1173  H     0.21045   0.60855   0.76188   0.00000  Uiso   1.00
H1174  H     0.19561   0.62025   0.82162   0.00000  Uiso   1.00
H1175  H     0.07094   0.55205   0.95933   0.00000  Uiso   1.00
H1176  H     0.26835   0.53587   0.60371   0.00000  Uiso   1.00
H1177  H     0.27669   0.60637   0.62336   0.00000  Uiso   1.00
H1178  H     0.32166   0.59116   0.65193   0.00000  Uiso   1.00
H1179  H     0.25899   0.57838   0.67509   0.00000  Uiso   1.00
H1180  H     0.06520   0.48819   0.90212   0.00000  Uiso   1.00
N1181  N     0.11736   0.50001   0.74999   0.00000  Uiso   1.00
N1182  N     0.21597   0.49999   0.75001   0.00000  Uiso   1.00
N1183  N     0.29533   0.54271   0.61859   0.00000  Uiso   1.00
N1184  N     0.04020   0.47535   0.88788   0.00000  Uiso   1.00
N1185  N     0.00377   0.46272   0.98320   0.00000  Uiso   1.00
N1186  N     0.33191   0.56616   0.52608   0.00000  Uiso   1.00
N1187  N     0.13450   0.44103   0.69845   0.00000  Uiso   1.00
N1188  N     0.19699   0.55694   0.80448   0.00000  Uiso   1.00
O1189  O     0.03958   0.43989   0.75000   0.00000  Uiso   1.00
O1190  O     0.29375   0.56011   0.75000   0.00000  Uiso   1.00
O1191  O     0.29372   0.43988   0.75001   0.00000  Uiso   1.00
O1192  O     0.03961   0.56012   0.75000   0.00000  Uiso   1.00
O1193  O     0.01852   0.50001   0.81492   0.00000  Uiso   1.00
O1194  O     0.31481   0.49999   0.68509   0.00000  Uiso   1.00
O1195  O     0.27267   0.50000   0.81492   0.00000  Uiso   1.00
O1196  O     0.06067   0.50000   0.68508   0.00000  Uiso   1.00
C1197  C     0.33378   0.42079   0.74987   0.00000  Uiso   1.00
C1198  C     0.37017   0.35378   0.71815   0.00000  Uiso   1.00
C1199  C     0.66657   0.62384   0.74955   0.00000  Uiso   1.00
C1200  C     0.33444   0.37621   0.75019   0.00000  Uiso   1.00
C1201  C     0.53350   0.47238   0.72399   0.00000  Uiso   1.00
C1202  C     0.46620   0.52670   0.77695   0.00000  Uiso   1.00
C1203  C     0.48395   0.47222   0.72351   0.00000  Uiso   1.00
C1204  C     0.51591   0.52778   0.77627   0.00000  Uiso   1.00
C1205  C     0.63944   0.49890   0.83622   0.00000  Uiso   1.00
C1206  C     0.36047   0.50249   0.66400   0.00000  Uiso   1.00
C1207  C     0.62459   0.49596   0.88582   0.00000  Uiso   1.00
C1208  C     0.66647   0.57922   0.74983   0.00000  Uiso   1.00
C1209  C     0.37511   0.51160   0.61547   0.00000  Uiso   1.00
C1210  C     0.63972   0.47938   0.95783   0.00000  Uiso   1.00
C1211  C     0.36177   0.54329   0.54808   0.00000  Uiso   1.00
C1212  C     0.65710   0.48352   0.91063   0.00000  Uiso   1.00
C1213  C     0.34389   0.53222   0.59383   0.00000  Uiso   1.00
C1214  C     0.57604   0.50480   0.90808   0.00000  Uiso   1.00
C1215  C     0.42328   0.50329   0.59202   0.00000  Uiso   1.00
C1216  C     0.55839   0.50367   0.95498   0.00000  Uiso   1.00
C1217  C     0.44243   0.51559   0.54753   0.00000  Uiso   1.00
C1218  C     0.59096   0.49096   0.97990   0.00000  Uiso   1.00
C1219  C     0.52681   0.50078   0.54885   0.00000  Uiso   1.00
C1220  C     0.41055   0.53318   0.52462   0.00000  Uiso   1.00
C1221  C     0.50899   0.51421   0.97775   0.00000  Uiso   1.00
C1222  C     0.49250   0.50959   0.52501   0.00000  Uiso   1.00
C1223  C     0.62147   0.58173   0.64335   0.00000  Uiso   1.00
C1224  C     0.38576   0.43351   0.87058   0.00000  Uiso   1.00
C1225  C     0.66152   0.42004   0.99663   0.00000  Uiso   1.00
C1226  C     0.34119   0.61013   0.52221   0.00000  Uiso   1.00
C1227  C     0.49944   0.42927   0.65478   0.00000  Uiso   1.00
C1228  C     0.52093   0.59995   0.79558   0.00000  Uiso   1.00
C1229  C     0.47560   0.52990   0.95530   0.00000  Uiso   1.00
C1230  C     0.57465   0.49113   0.52683   0.00000  Uiso   1.00
C1231  C     0.42792   0.53995   0.97842   0.00000  Uiso   1.00
C1232  C     0.63217   0.35590   0.78247   0.00000  Uiso   1.00
C1233  C     0.36942   0.64410   0.71769   0.00000  Uiso   1.00
C1234  C     0.63230   0.64628   0.78264   0.00000  Uiso   1.00
Cu1235 Cu    0.38022   0.50001   0.75000   0.00000  Uiso   1.00
Cu1236 Cu    0.61978   0.49999   0.75000   0.00000  Uiso   1.00
H1237  H     0.44532   0.48595   0.60904   0.00000  Uiso   1.00
H1238  H     0.38871   0.41259   0.89797   0.00000  Uiso   1.00
H1239  H     0.42133   0.43332   0.84477   0.00000  Uiso   1.00
H1240  H     0.35819   0.42180   0.85457   0.00000  Uiso   1.00
H1241  H     0.37345   0.46837   0.97118   0.00000  Uiso   1.00
H1242  H     0.35224   0.41061   0.51769   0.00000  Uiso   1.00
H1243  H     0.33560   0.39914   0.96670   0.00000  Uiso   1.00
H1244  H     0.62342   0.41622   0.51666   0.00000  Uiso   1.00
H1245  H     0.62884   0.56022   0.53621   0.00000  Uiso   1.00
H1246  H     0.65127   0.62486   0.50297   0.00000  Uiso   1.00
H1247  H     0.37961   0.61560   0.50415   0.00000  Uiso   1.00
H1248  H     0.55241   0.51250   0.88767   0.00000  Uiso   1.00
H1249  H     0.66627   0.62512   0.55598   0.00000  Uiso   1.00
H1250  H     0.51784   0.50306   0.58493   0.00000  Uiso   1.00
H1251  H     0.48517   0.53617   0.91993   0.00000  Uiso   1.00
H1252  H     0.60520   0.37328   0.80798   0.00000  Uiso   1.00
H1253  H     0.39663   0.62664   0.69248   0.00000  Uiso   1.00
H1254  H     0.60700   0.63049   0.80929   0.00000  Uiso   1.00
H1255  H     0.39769   0.36952   0.69305   0.00000  Uiso   1.00
H1256  H     0.55932   0.45001   0.70405   0.00000  Uiso   1.00
H1257  H     0.43985   0.54728   0.79914   0.00000  Uiso   1.00
H1258  H     0.45545   0.41548   0.71754   0.00000  Uiso   1.00
H1259  H     0.59908   0.48434   0.54716   0.00000  Uiso   1.00
H1260  H     0.47743   0.41639   0.63360   0.00000  Uiso   1.00
H1261  H     0.52625   0.40506   0.65834   0.00000  Uiso   1.00
H1262  H     0.51901   0.45641   0.63779   0.00000  Uiso   1.00
H1263  H     0.51616   0.55028   0.83796   0.00000  Uiso   1.00
H1264  H     0.48223   0.60589   0.79728   0.00000  Uiso   1.00
H1265  H     0.54379   0.60855   0.76188   0.00000  Uiso   1.00
H1266  H     0.52895   0.62025   0.82162   0.00000  Uiso   1.00
H1267  H     0.40427   0.55205   0.95933   0.00000  Uiso   1.00
H1268  H     0.60169   0.53587   0.60371   0.00000  Uiso   1.00
H1269  H     0.61002   0.60637   0.62336   0.00000  Uiso   1.00
H1270  H     0.65499   0.59116   0.65193   0.00000  Uiso   1.00
H1271  H     0.59232   0.57838   0.67509   0.00000  Uiso   1.00
H1272  H     0.39853   0.48819   0.90212   0.00000  Uiso   1.00
N1273  N     0.45069   0.50001   0.74999   0.00000  Uiso   1.00
N1274  N     0.54931   0.49999   0.75001   0.00000  Uiso   1.00
N1275  N     0.62867   0.54271   0.61859   0.00000  Uiso   1.00
N1276  N     0.37353   0.47535   0.88788   0.00000  Uiso   1.00
N1277  N     0.33710   0.46272   0.98320   0.00000  Uiso   1.00
N1278  N     0.66525   0.56616   0.52608   0.00000  Uiso   1.00
N1279  N     0.46784   0.44103   0.69845   0.00000  Uiso   1.00
N1280  N     0.53032   0.55694   0.80448   0.00000  Uiso   1.00
O1281  O     0.37291   0.43989   0.75000   0.00000  Uiso   1.00
O1282  O     0.62709   0.56011   0.75000   0.00000  Uiso   1.00
O1283  O     0.62706   0.43988   0.75001   0.00000  Uiso   1.00
O1284  O     0.37294   0.56012   0.75000   0.00000  Uiso   1.00
O1285  O     0.35186   0.50001   0.81492   0.00000  Uiso   1.00
O1286  O     0.64814   0.49999   0.68509   0.00000  Uiso   1.00
O1287  O     0.60600   0.50000   0.81492   0.00000  Uiso   1.00
O1288  O     0.39400   0.50000   0.68508   0.00000  Uiso   1.00
C1289  C     0.66711   0.42079   0.74987   0.00000  Uiso   1.00
C1290  C     0.70350   0.35378   0.71815   0.00000  Uiso   1.00
C1291  C     0.99990   0.62384   0.74955   0.00000  Uiso   1.00
C1292  C     0.66777   0.37621   0.75019   0.00000  Uiso   1.00
C1293  C     0.86684   0.47238   0.72399   0.00000  Uiso   1.00
C1294  C     0.79953   0.52670   0.77695   0.00000  Uiso   1.00
C1295  C     0.81728   0.47222   0.72351   0.00000  Uiso   1.00
C1296  C     0.84924   0.52778   0.77627   0.00000  Uiso   1.00
C1297  C     0.97277   0.49890   0.83622   0.00000  Uiso   1.00
C1298  C     0.69381   0.50249   0.66400   0.00000  Uiso   1.00
C1299  C     0.95792   0.49596   0.88582   0.00000  Uiso   1.00
C1300  C     0.99981   0.57922   0.74983   0.00000  Uiso   1.00
C1301  C     0.70844   0.51160   0.61547   0.00000  Uiso   1.00
C1302  C     0.97306   0.47938   0.95783   0.00000  Uiso   1.00
C1303  C     0.69511   0.54329   0.54808   0.00000  Uiso   1.00
C1304  C     0.99044   0.48352   0.91063   0.00000  Uiso   1.00
C1305  C     0.67722   0.53222   0.59383   0.00000  Uiso   1.00
C1306  C     0.90937   0.50480   0.90808   0.00000  Uiso   1.00
C1307  C     0.75661   0.50329   0.59202   0.00000  Uiso   1.00
C1308  C     0.89172   0.50367   0.95498   0.00000  Uiso   1.00
C1309  C     0.77576   0.51559   0.54753   0.00000  Uiso   1.00
C1310  C     0.92429   0.49096   0.97990   0.00000  Uiso   1.00
C1311  C     0.86014   0.50078   0.54885   0.00000  Uiso   1.00
C1312  C     0.74388   0.53318   0.52462   0.00000  Uiso   1.00
C1313  C     0.84232   0.51421   0.97775   0.00000  Uiso   1.00
C1314  C     0.82583   0.50959   0.52501   0.00000  Uiso   1.00
C1315  C     0.95481   0.58173   0.64335   0.00000  Uiso   1.00
C1316  C     0.71909   0.43351   0.87058   0.00000  Uiso   1.00
C1317  C     0.99486   0.42004   0.99663   0.00000  Uiso   1.00
C1318  C     0.67452   0.61013   0.52221   0.00000  Uiso   1.00
C1319  C     0.83277   0.42927   0.65478   0.00000  Uiso   1.00
C1320  C     0.85427   0.59995   0.79558   0.00000  Uiso   1.00
C1321  C     0.80894   0.52990   0.95530   0.00000  Uiso   1.00
C1322  C     0.90799   0.49113   0.52683   0.00000  Uiso   1.00
C1323  C     0.76125   0.53995   0.97842   0.00000  Uiso   1.00
C1324  C     0.96551   0.35590   0.78247   0.00000  Uiso   1.00
C1325  C     0.70275   0.64410   0.71769   0.00000  Uiso   1.00
C1326  C     0.96563   0.64628   0.78264   0.00000  Uiso   1.00
Cu1327 Cu    0.71355   0.50001   0.75000   0.00000  Uiso   1.00
Cu1328 Cu    0.95311   0.49999   0.75000   0.00000  Uiso   1.00
H1329  H     0.77866   0.48595   0.60904   0.00000  Uiso   1.00
H1330  H     0.72204   0.41259   0.89797   0.00000  Uiso   1.00
H1331  H     0.75466   0.43332   0.84477   0.00000  Uiso   1.00
H1332  H     0.69153   0.42180   0.85457   0.00000  Uiso   1.00
H1333  H     0.70679   0.46837   0.97118   0.00000  Uiso   1.00
H1334  H     0.68558   0.41061   0.51769   0.00000  Uiso   1.00
H1335  H     0.66893   0.39914   0.96670   0.00000  Uiso   1.00
H1336  H     0.95676   0.41622   0.51666   0.00000  Uiso   1.00
H1337  H     0.96217   0.56022   0.53621   0.00000  Uiso   1.00
H1338  H     0.98460   0.62486   0.50297   0.00000  Uiso   1.00
H1339  H     0.71294   0.61560   0.50415   0.00000  Uiso   1.00
H1340  H     0.88574   0.51250   0.88767   0.00000  Uiso   1.00
H1341  H     0.99960   0.62512   0.55598   0.00000  Uiso   1.00
H1342  H     0.85118   0.50306   0.58493   0.00000  Uiso   1.00
H1343  H     0.81850   0.53617   0.91993   0.00000  Uiso   1.00
H1344  H     0.93853   0.37328   0.80798   0.00000  Uiso   1.00
H1345  H     0.72996   0.62664   0.69248   0.00000  Uiso   1.00
H1346  H     0.94034   0.63049   0.80929   0.00000  Uiso   1.00
H1347  H     0.73102   0.36952   0.69305   0.00000  Uiso   1.00
H1348  H     0.89265   0.45001   0.70405   0.00000  Uiso   1.00
H1349  H     0.77319   0.54728   0.79914   0.00000  Uiso   1.00
H1350  H     0.78878   0.41548   0.71754   0.00000  Uiso   1.00
H1351  H     0.93242   0.48434   0.54716   0.00000  Uiso   1.00
H1352  H     0.81076   0.41639   0.63360   0.00000  Uiso   1.00
H1353  H     0.85958   0.40506   0.65834   0.00000  Uiso   1.00
H1354  H     0.85234   0.45641   0.63779   0.00000  Uiso   1.00
H1355  H     0.84950   0.55028   0.83796   0.00000  Uiso   1.00
H1356  H     0.81556   0.60589   0.79728   0.00000  Uiso   1.00
H1357  H     0.87712   0.60855   0.76188   0.00000  Uiso   1.00
H1358  H     0.86228   0.62025   0.82162   0.00000  Uiso   1.00
H1359  H     0.73761   0.55205   0.95933   0.00000  Uiso   1.00
H1360  H     0.93502   0.53587   0.60371   0.00000  Uiso   1.00
H1361  H     0.94335   0.60637   0.62336   0.00000  Uiso   1.00
H1362  H     0.98833   0.59116   0.65193   0.00000  Uiso   1.00
H1363  H     0.92565   0.57838   0.67509   0.00000  Uiso   1.00
H1364  H     0.73186   0.48819   0.90212   0.00000  Uiso   1.00
N1365  N     0.78403   0.50001   0.74999   0.00000  Uiso   1.00
N1366  N     0.88264   0.49999   0.75001   0.00000  Uiso   1.00
N1367  N     0.96200   0.54271   0.61859   0.00000  Uiso   1.00
N1368  N     0.70687   0.47535   0.88788   0.00000  Uiso   1.00
N1369  N     0.67043   0.46272   0.98320   0.00000  Uiso   1.00
N1370  N     0.99858   0.56616   0.52608   0.00000  Uiso   1.00
N1371  N     0.80117   0.44103   0.69845   0.00000  Uiso   1.00
N1372  N     0.86366   0.55694   0.80448   0.00000  Uiso   1.00
O1373  O     0.70625   0.43989   0.75000   0.00000  Uiso   1.00
O1374  O     0.96042   0.56011   0.75000   0.00000  Uiso   1.00
O1375  O     0.96039   0.43988   0.75001   0.00000  Uiso   1.00
O1376  O     0.70628   0.56012   0.75000   0.00000  Uiso   1.00
O1377  O     0.68519   0.50001   0.81492   0.00000  Uiso   1.00
O1378  O     0.98148   0.49999   0.68509   0.00000  Uiso   1.00
O1379  O     0.93933   0.50000   0.81492   0.00000  Uiso   1.00
O1380  O     0.72733   0.50000   0.68508   0.00000  Uiso   1.00
C1381  C     0.00044   0.75412   0.74987   0.00000  Uiso   1.00
C1382  C     0.03683   0.68711   0.71815   0.00000  Uiso   1.00
C1383  C     0.33324   0.95717   0.74955   0.00000  Uiso   1.00
C1384  C     0.00111   0.70954   0.75019   0.00000  Uiso   1.00
C1385  C     0.20017   0.80571   0.72399   0.00000  Uiso   1.00
C1386  C     0.13286   0.86003   0.77695   0.00000  Uiso   1.00
C1387  C     0.15061   0.80555   0.72351   0.00000  Uiso   1.00
C1388  C     0.18258   0.86111   0.77627   0.00000  Uiso   1.00
C1389  C     0.30610   0.83223   0.83622   0.00000  Uiso   1.00
C1390  C     0.02714   0.83582   0.66400   0.00000  Uiso   1.00
C1391  C     0.29125   0.82930   0.88582   0.00000  Uiso   1.00
C1392  C     0.33314   0.91256   0.74983   0.00000  Uiso   1.00
C1393  C     0.04177   0.84493   0.61547   0.00000  Uiso   1.00
C1394  C     0.30639   0.81272   0.95783   0.00000  Uiso   1.00
C1395  C     0.02844   0.87662   0.54808   0.00000  Uiso   1.00
C1396  C     0.32377   0.81686   0.91063   0.00000  Uiso   1.00
C1397  C     0.01056   0.86556   0.59383   0.00000  Uiso   1.00
C1398  C     0.24270   0.83813   0.90808   0.00000  Uiso   1.00
C1399  C     0.08994   0.83662   0.59202   0.00000  Uiso   1.00
C1400  C     0.22506   0.83700   0.95498   0.00000  Uiso   1.00
C1401  C     0.10910   0.84893   0.54753   0.00000  Uiso   1.00
C1402  C     0.25762   0.82429   0.97990   0.00000  Uiso   1.00
C1403  C     0.19347   0.83412   0.54885   0.00000  Uiso   1.00
C1404  C     0.07722   0.86651   0.52462   0.00000  Uiso   1.00
C1405  C     0.17565   0.84755   0.97775   0.00000  Uiso   1.00
C1406  C     0.15916   0.84292   0.52501   0.00000  Uiso   1.00
C1407  C     0.28814   0.91506   0.64335   0.00000  Uiso   1.00
C1408  C     0.05243   0.76685   0.87058   0.00000  Uiso   1.00
C1409  C     0.32819   0.75337   0.99663   0.00000  Uiso   1.00
C1410  C     0.00785   0.94346   0.52221   0.00000  Uiso   1.00
C1411  C     0.16611   0.76260   0.65478   0.00000  Uiso   1.00
C1412  C     0.18760   0.93328   0.79558   0.00000  Uiso   1.00
C1413  C     0.14227   0.86324   0.95530   0.00000  Uiso   1.00
C1414  C     0.24132   0.82447   0.52683   0.00000  Uiso   1.00
C1415  C     0.09459   0.87328   0.97842   0.00000  Uiso   1.00
C1416  C     0.29884   0.68923   0.78247   0.00000  Uiso   1.00
C1417  C     0.03608   0.97743   0.71769   0.00000  Uiso   1.00
C1418  C     0.29897   0.97961   0.78264   0.00000  Uiso   1.00
Cu1419 Cu    0.04689   0.83334   0.75000   0.00000  Uiso   1.00
Cu1420 Cu    0.28645   0.83333   0.75000   0.00000  Uiso   1.00
H1421  H     0.11199   0.81928   0.60904   0.00000  Uiso   1.00
H1422  H     0.05538   0.74592   0.89797   0.00000  Uiso   1.00
H1423  H     0.08799   0.76666   0.84477   0.00000  Uiso   1.00
H1424  H     0.02486   0.75513   0.85457   0.00000  Uiso   1.00
H1425  H     0.04012   0.80170   0.97118   0.00000  Uiso   1.00
H1426  H     0.01891   0.74394   0.51769   0.00000  Uiso   1.00
H1427  H     0.00227   0.73247   0.96670   0.00000  Uiso   1.00
H1428  H     0.29009   0.74956   0.51666   0.00000  Uiso   1.00
H1429  H     0.29550   0.89355   0.53621   0.00000  Uiso   1.00
H1430  H     0.31794   0.95820   0.50297   0.00000  Uiso   1.00
H1431  H     0.04628   0.94893   0.50415   0.00000  Uiso   1.00
H1432  H     0.21908   0.84584   0.88767   0.00000  Uiso   1.00
H1433  H     0.33294   0.95845   0.55598   0.00000  Uiso   1.00
H1434  H     0.18451   0.83639   0.58493   0.00000  Uiso   1.00
H1435  H     0.15184   0.86950   0.91993   0.00000  Uiso   1.00
H1436  H     0.27186   0.70661   0.80798   0.00000  Uiso   1.00
H1437  H     0.06330   0.95998   0.69248   0.00000  Uiso   1.00
H1438  H     0.27367   0.96382   0.80929   0.00000  Uiso   1.00
H1439  H     0.06436   0.70285   0.69305   0.00000  Uiso   1.00
H1440  H     0.22598   0.78334   0.70405   0.00000  Uiso   1.00
H1441  H     0.10652   0.88061   0.79914   0.00000  Uiso   1.00
H1442  H     0.12211   0.74882   0.71754   0.00000  Uiso   1.00
H1443  H     0.26575   0.81768   0.54716   0.00000  Uiso   1.00
H1444  H     0.14410   0.74973   0.63360   0.00000  Uiso   1.00
H1445  H     0.19292   0.73840   0.65834   0.00000  Uiso   1.00
H1446  H     0.18568   0.78974   0.63779   0.00000  Uiso   1.00
H1447  H     0.18283   0.88361   0.83796   0.00000  Uiso   1.00
H1448  H     0.14890   0.93922   0.79728   0.00000  Uiso   1.00
H1449  H     0.21045   0.94189   0.76188   0.00000  Uiso   1.00
H1450  H     0.19561   0.95358   0.82162   0.00000  Uiso   1.00
H1451  H     0.07094   0.88538   0.95933   0.00000  Uiso   1.00
H1452  H     0.26835   0.86920   0.60371   0.00000  Uiso   1.00
H1453  H     0.27669   0.93971   0.62336   0.00000  Uiso   1.00
H1454  H     0.32166   0.92449   0.65193   0.00000  Uiso   1.00
H1455  H     0.25899   0.91171   0.67509   0.00000  Uiso   1.00
H1456  H     0.06520   0.82152   0.90212   0.00000  Uiso   1.00
N1457  N     0.11736   0.83334   0.74999   0.00000  Uiso   1.00
N1458  N     0.21597   0.83332   0.75001   0.00000  Uiso   1.00
N1459  N     0.29533   0.87605   0.61859   0.00000  Uiso   1.00
N1460  N     0.04020   0.80869   0.88788   0.00000  Uiso   1.00
N1461  N     0.00377   0.79605   0.98320   0.00000  Uiso   1.00
N1462  N     0.33191   0.89949   0.52608   0.00000  Uiso   1.00
N1463  N     0.13450   0.77437   0.69845   0.00000  Uiso   1.00
N1464  N     0.19699   0.89027   0.80448   0.00000  Uiso   1.00
O1465  O     0.03958   0.77322   0.75000   0.00000  Uiso   1.00
O1466  O     0.29375   0.89345   0.75000   0.00000  Uiso   1.00
O1467  O     0.29372   0.77321   0.75001   0.00000  Uiso   1.00
O1468  O     0.03961   0.89346   0.75000   0.00000  Uiso   1.00
O1469  O     0.01852   0.83334   0.81492   0.00000  Uiso   1.00
O1470  O     0.31481   0.83332   0.68509   0.00000  Uiso   1.00
O1471  O     0.27267   0.83333   0.81492   0.00000  Uiso   1.00
O1472  O     0.06067   0.83333   0.68508   0.00000  Uiso   1.00
C1473  C     0.33378   0.75412   0.74987   0.00000  Uiso   1.00
C1474  C     0.37017   0.68711   0.71815   0.00000  Uiso   1.00
C1475  C     0.66657   0.95717   0.74955   0.00000  Uiso   1.00
C1476  C     0.33444   0.70954   0.75019   0.00000  Uiso   1.00
C1477  C     0.53350   0.80571   0.72399   0.00000  Uiso   1.00
C1478  C     0.46620   0.86003   0.77695   0.00000  Uiso   1.00
C1479  C     0.48395   0.80555   0.72351   0.00000  Uiso   1.00
C1480  C     0.51591   0.86111   0.77627   0.00000  Uiso   1.00
C1481  C     0.63944   0.83223   0.83622   0.00000  Uiso   1.00
C1482  C     0.36047   0.83582   0.66400   0.00000  Uiso   1.00
C1483  C     0.62459   0.82930   0.88582   0.00000  Uiso   1.00
C1484  C     0.66647   0.91256   0.74983   0.00000  Uiso   1.00
C1485  C     0.37511   0.84493   0.61547   0.00000  Uiso   1.00
C1486  C     0.63972   0.81272   0.95783   0.00000  Uiso   1.00
C1487  C     0.36177   0.87662   0.54808   0.00000  Uiso   1.00
C1488  C     0.65710   0.81686   0.91063   0.00000  Uiso   1.00
C1489  C     0.34389   0.86556   0.59383   0.00000  Uiso   1.00
C1490  C     0.57604   0.83813   0.90808   0.00000  Uiso   1.00
C1491  C     0.42328   0.83662   0.59202   0.00000  Uiso   1.00
C1492  C     0.55839   0.83700   0.95498   0.00000  Uiso   1.00
C1493  C     0.44243   0.84893   0.54753   0.00000  Uiso   1.00
C1494  C     0.59096   0.82429   0.97990   0.00000  Uiso   1.00
C1495  C     0.52681   0.83412   0.54885   0.00000  Uiso   1.00
C1496  C     0.41055   0.86651   0.52462   0.00000  Uiso   1.00
C1497  C     0.50899   0.84755   0.97775   0.00000  Uiso   1.00
C1498  C     0.49250   0.84292   0.52501   0.00000  Uiso   1.00
C1499  C     0.62147   0.91506   0.64335   0.00000  Uiso   1.00
C1500  C     0.38576   0.76685   0.87058   0.00000  Uiso   1.00
C1501  C     0.66152   0.75337   0.99663   0.00000  Uiso   1.00
C1502  C     0.34119   0.94346   0.52221   0.00000  Uiso   1.00
C1503  C     0.49944   0.76260   0.65478   0.00000  Uiso   1.00
C1504  C     0.52093   0.93328   0.79558   0.00000  Uiso   1.00
C1505  C     0.47560   0.86324   0.95530   0.00000  Uiso   1.00
C1506  C     0.57465   0.82447   0.52683   0.00000  Uiso   1.00
C1507  C     0.42792   0.87328   0.97842   0.00000  Uiso   1.00
C1508  C     0.63217   0.68923   0.78247   0.00000  Uiso   1.00
C1509  C     0.36942   0.97743   0.71769   0.00000  Uiso   1.00
C1510  C     0.63230   0.97961   0.78264   0.00000  Uiso   1.00
Cu1511 Cu    0.38022   0.83334   0.75000   0.00000  Uiso   1.00
Cu1512 Cu    0.61978   0.83333   0.75000   0.00000  Uiso   1.00
H1513  H     0.44532   0.81928   0.60904   0.00000  Uiso   1.00
H1514  H     0.38871   0.74592   0.89797   0.00000  Uiso   1.00
H1515  H     0.42133   0.76666   0.84477   0.00000  Uiso   1.00
H1516  H     0.35819   0.75513   0.85457   0.00000  Uiso   1.00
H1517  H     0.37345   0.80170   0.97118   0.00000  Uiso   1.00
H1518  H     0.35224   0.74394   0.51769   0.00000  Uiso   1.00
H1519  H     0.33560   0.73247   0.96670   0.00000  Uiso   1.00
H1520  H     0.62342   0.74956   0.51666   0.00000  Uiso   1.00
H1521  H     0.62884   0.89355   0.53621   0.00000  Uiso   1.00
H1522  H     0.65127   0.95820   0.50297   0.00000  Uiso   1.00
H1523  H     0.37961   0.94893   0.50415   0.00000  Uiso   1.00
H1524  H     0.55241   0.84584   0.88767   0.00000  Uiso   1.00
H1525  H     0.66627   0.95845   0.55598   0.00000  Uiso   1.00
H1526  H     0.51784   0.83639   0.58493   0.00000  Uiso   1.00
H1527  H     0.48517   0.86950   0.91993   0.00000  Uiso   1.00
H1528  H     0.60520   0.70661   0.80798   0.00000  Uiso   1.00
H1529  H     0.39663   0.95998   0.69248   0.00000  Uiso   1.00
H1530  H     0.60700   0.96382   0.80929   0.00000  Uiso   1.00
H1531  H     0.39769   0.70285   0.69305   0.00000  Uiso   1.00
H1532  H     0.55932   0.78334   0.70405   0.00000  Uiso   1.00
H1533  H     0.43985   0.88061   0.79914   0.00000  Uiso   1.00
H1534  H     0.45545   0.74882   0.71754   0.00000  Uiso   1.00
H1535  H     0.59908   0.81768   0.54716   0.00000  Uiso   1.00
H1536  H     0.47743   0.74973   0.63360   0.00000  Uiso   1.00
H1537  H     0.52625   0.73840   0.65834   0.00000  Uiso   1.00
H1538  H     0.51901   0.78974   0.63779   0.00000  Uiso   1.00
H1539  H     0.51616   0.88361   0.83796   0.00000  Uiso   1.00
H1540  H     0.48223   0.93922   0.79728   0.00000  Uiso   1.00
H1541  H     0.54379   0.94189   0.76188   0.00000  Uiso   1.00
H1542  H     0.52895   0.95358   0.82162   0.00000  Uiso   1.00
H1543  H     0.40427   0.88538   0.95933   0.00000  Uiso   1.00
H1544  H     0.60169   0.86920   0.60371   0.00000  Uiso   1.00
H1545  H     0.61002   0.93971   0.62336   0.00000  Uiso   1.00
H1546  H     0.65499   0.92449   0.65193   0.00000  Uiso   1.00
H1547  H     0.59232   0.91171   0.67509   0.00000  Uiso   1.00
H1548  H     0.39853   0.82152   0.90212   0.00000  Uiso   1.00
N1549  N     0.45069   0.83334   0.74999   0.00000  Uiso   1.00
N1550  N     0.54931   0.83332   0.75001   0.00000  Uiso   1.00
N1551  N     0.62867   0.87605   0.61859   0.00000  Uiso   1.00
N1552  N     0.37353   0.80869   0.88788   0.00000  Uiso   1.00
N1553  N     0.33710   0.79605   0.98320   0.00000  Uiso   1.00
N1554  N     0.66525   0.89949   0.52608   0.00000  Uiso   1.00
N1555  N     0.46784   0.77437   0.69845   0.00000  Uiso   1.00
N1556  N     0.53032   0.89027   0.80448   0.00000  Uiso   1.00
O1557  O     0.37291   0.77322   0.75000   0.00000  Uiso   1.00
O1558  O     0.62709   0.89345   0.75000   0.00000  Uiso   1.00
O1559  O     0.62706   0.77321   0.75001   0.00000  Uiso   1.00
O1560  O     0.37294   0.89346   0.75000   0.00000  Uiso   1.00
O1561  O     0.35186   0.83334   0.81492   0.00000  Uiso   1.00
O1562  O     0.64814   0.83332   0.68509   0.00000  Uiso   1.00
O1563  O     0.60600   0.83333   0.81492   0.00000  Uiso   1.00
O1564  O     0.39400   0.83333   0.68508   0.00000  Uiso   1.00
C1565  C     0.66711   0.75412   0.74987   0.00000  Uiso   1.00
C1566  C     0.70350   0.68711   0.71815   0.00000  Uiso   1.00
C1567  C     0.99990   0.95717   0.74955   0.00000  Uiso   1.00
C1568  C     0.66777   0.70954   0.75019   0.00000  Uiso   1.00
C1569  C     0.86684   0.80571   0.72399   0.00000  Uiso   1.00
C1570  C     0.79953   0.86003   0.77695   0.00000  Uiso   1.00
C1571  C     0.81728   0.80555   0.72351   0.00000  Uiso   1.00
C1572  C     0.84924   0.86111   0.77627   0.00000  Uiso   1.00
C1573  C     0.97277   0.83223   0.83622   0.00000  Uiso   1.00
C1574  C     0.69381   0.83582   0.66400   0.00000  Uiso   1.00
C1575  C     0.95792   0.82930   0.88582   0.00000  Uiso   1.00
C1576  C     0.99981   0.91256   0.74983   0.00000  Uiso   1.00
C1577  C     0.70844   0.84493   0.61547   0.00000  Uiso   1.00
C1578  C     0.97306   0.81272   0.95783   0.00000  Uiso   1.00
C1579  C     0.69511   0.87662   0.54808   0.00000  Uiso   1.00
C1580  C     0.99044   0.81686   0.91063   0.00000  Uiso   1.00
C1581  C     0.67722   0.86556   0.59383   0.00000  Uiso   1.00
C1582  C     0.90937   0.83813   0.90808   0.00000  Uiso   1.00
C1583  C     0.75661   0.83662   0.59202   0.00000  Uiso   1.00
C1584  C     0.89172   0.83700   0.95498   0.00000  Uiso   1.00
C1585  C     0.77576   0.84893   0.54753   0.00000  Uiso   1.00
C1586  C     0.92429   0.82429   0.97990   0.00000  Uiso   1.00
C1587  C     0.86014   0.83412   0.54885   0.00000  Uiso   1.00
C1588  C     0.74388   0.86651   0.52462   0.00000  Uiso   1.00
C1589  C     0.84232   0.84755   0.97775   0.00000  Uiso   1.00
C1590  C     0.82583   0.84292   0.52501   0.00000  Uiso   1.00
C1591  C     0.95481   0.91506   0.64335   0.00000  Uiso   1.00
C1592  C     0.71909   0.76685   0.87058   0.00000  Uiso   1.00
C1593  C     0.99486   0.75337   0.99663   0.00000  Uiso   1.00
C1594  C     0.67452   0.94346   0.52221   0.00000  Uiso   1.00
C1595  C     0.83277   0.76260   0.65478   0.00000  Uiso   1.00
C1596  C     0.85427   0.93328   0.79558   0.00000  Uiso   1.00
C1597  C     0.80894   0.86324   0.95530   0.00000  Uiso   1.00
C1598  C     0.90799   0.82447   0.52683   0.00000  Uiso   1.00
C1599  C     0.76125   0.87328   0.97842   0.00000  Uiso   1.00
C1600  C     0.96551   0.68923   0.78247   0.00000  Uiso   1.00
C1601  C     0.70275   0.97743   0.71769   0.00000  Uiso   1.00
C1602  C     0.96563   0.97961   0.78264   0.00000  Uiso   1.00
Cu1603 Cu    0.71355   0.83334   0.75000   0.00000  Uiso   1.00
Cu1604 Cu    0.95311   0.83333   0.75000   0.00000  Uiso   1.00
H1605  H     0.77866   0.81928   0.60904   0.00000  Uiso   1.00
H1606  H     0.72204   0.74592   0.89797   0.00000  Uiso   1.00
H1607  H     0.75466   0.76666   0.84477   0.00000  Uiso   1.00
H1608  H     0.69153   0.75513   0.85457   0.00000  Uiso   1.00
H1609  H     0.70679   0.80170   0.97118   0.00000  Uiso   1.00
H1610  H     0.68558   0.74394   0.51769   0.00000  Uiso   1.00
H1611  H     0.66893   0.73247   0.96670   0.00000  Uiso   1.00
H1612  H     0.95676   0.74956   0.51666   0.00000  Uiso   1.00
H1613  H     0.96217   0.89355   0.53621   0.00000  Uiso   1.00
H1614  H     0.98460   0.95820   0.50297   0.00000  Uiso   1.00
H1615  H     0.71294   0.94893   0.50415   0.00000  Uiso   1.00
H1616  H     0.88574   0.84584   0.88767   0.00000  Uiso   1.00
H1617  H     0.99960   0.95845   0.55598   0.00000  Uiso   1.00
H1618  H     0.85118   0.83639   0.58493   0.00000  Uiso   1.00
H1619  H     0.81850   0.86950   0.91993   0.00000  Uiso   1.00
H1620  H     0.93853   0.70661   0.80798   0.00000  Uiso   1.00
H1621  H     0.72996   0.95998   0.69248   0.00000  Uiso   1.00
H1622  H     0.94034   0.96382   0.80929   0.00000  Uiso   1.00
H1623  H     0.73102   0.70285   0.69305   0.00000  Uiso   1.00
H1624  H     0.89265   0.78334   0.70405   0.00000  Uiso   1.00
H1625  H     0.77319   0.88061   0.79914   0.00000  Uiso   1.00
H1626  H     0.78878   0.74882   0.71754   0.00000  Uiso   1.00
H1627  H     0.93242   0.81768   0.54716   0.00000  Uiso   1.00
H1628  H     0.81076   0.74973   0.63360   0.00000  Uiso   1.00
H1629  H     0.85958   0.73840   0.65834   0.00000  Uiso   1.00
H1630  H     0.85234   0.78974   0.63779   0.00000  Uiso   1.00
H1631  H     0.84950   0.88361   0.83796   0.00000  Uiso   1.00
H1632  H     0.81556   0.93922   0.79728   0.00000  Uiso   1.00
H1633  H     0.87712   0.94189   0.76188   0.00000  Uiso   1.00
H1634  H     0.86228   0.95358   0.82162   0.00000  Uiso   1.00
H1635  H     0.73761   0.88538   0.95933   0.00000  Uiso   1.00
H1636  H     0.93502   0.86920   0.60371   0.00000  Uiso   1.00
H1637  H     0.94335   0.93971   0.62336   0.00000  Uiso   1.00
H1638  H     0.98833   0.92449   0.65193   0.00000  Uiso   1.00
H1639  H     0.92565   0.91171   0.67509   0.00000  Uiso   1.00
H1640  H     0.73186   0.82152   0.90212   0.00000  Uiso   1.00
N1641  N     0.78403   0.83334   0.74999   0.00000  Uiso   1.00
N1642  N     0.88264   0.83332   0.75001   0.00000  Uiso   1.00
N1643  N     0.96200   0.87605   0.61859   0.00000  Uiso   1.00
N1644  N     0.70687   0.80869   0.88788   0.00000  Uiso   1.00
N1645  N     0.67043   0.79605   0.98320   0.00000  Uiso   1.00
N1646  N     0.99858   0.89949   0.52608   0.00000  Uiso   1.00
N1647  N     0.80117   0.77437   0.69845   0.00000  Uiso   1.00
N1648  N     0.86366   0.89027   0.80448   0.00000  Uiso   1.00
O1649  O     0.70625   0.77322   0.75000   0.00000  Uiso   1.00
O1650  O     0.96042   0.89345   0.75000   0.00000  Uiso   1.00
O1651  O     0.96039   0.77321   0.75001   0.00000  Uiso   1.00
O1652  O     0.70628   0.89346   0.75000   0.00000  Uiso   1.00
O1653  O     0.68519   0.83334   0.81492   0.00000  Uiso   1.00
O1654  O     0.98148   0.83332   0.68509   0.00000  Uiso   1.00
O1655  O     0.93933   0.83333   0.81492   0.00000  Uiso   1.00
O1656  O     0.72733   0.83333   0.68508   0.00000  Uiso   1.00
loop_
_geom_bond_atom_site_label_1
_geom_bond_atom_site_label_2
_geom_bond_distance
_geom_bond_site_symmetry_2
_ccdc_geom_bond_type
C1     O85     1.293   .     A
C1     C4      1.437   .     S
C1     O271    1.291   1_455 S
C2     H59     1.083   .     S
C2     C4      1.398   .     A
C2     C589    1.388   1_545 S
C3     C12     1.439   .     S
C3     C38     1.394   .     A
C3     C129    1.399   .     S
C4     C220    1.397   1_455 S
C5     C7      1.426   .     A
C5     H60     1.081   .     S
C5     N78     1.359   .     A
C6     N77     1.356   .     A
C6     H61     1.081   .     S
C6     C8      1.422   .     A
C7     N83     1.423   .     S
C7     N77     1.381   .     A
C8     N78     1.380   .     A
C8     N84     1.419   .     S
C9     O91     1.303   .     A
C9     C11     1.481   .     S
C9     O181    1.299   .     S
C10    O92     1.303   .     A
C10    C13     1.478   .     S
C10    O274    1.299   1_455 S
C11    C18     1.396   .     A
C11    C16     1.414   .     A
C12    O86     1.297   .     A
C12    O180    1.287   .     S
C13    C19     1.393   .     A
C13    C17     1.415   .     A
C14    C16     1.417   .     A
C14    C22     1.419   .     A
C14    N173    1.430   .     S
C15    C24     1.418   .     A
C15    C17     1.419   .     A
C15    N266    1.429   1_455 S
C16    N172    1.426   .     S
C17    N263    1.426   1_455 S
C18    H52     1.072   .     S
C18    C20     1.401   .     A
C19    C21     1.400   .     A
C19    H41     1.078   .     S
C20    C25     1.432   .     A
C20    C22     1.421   .     A
C21    C26     1.423   .     A
C21    C24     1.414   .     A
C22    C862    1.398   .     S
C23    C26     1.407   .     A
C23    C34     1.383   .     A
C23    H54     1.076   .     S
C24    C863    1.400   1_554 S
C25    C33     1.416   .     A
C25    C854    1.419   .     S
C26    C853    1.419   1_554 S
C27    N79     1.447   .     S
C27    H74     1.113   .     S
C27    H75     1.110   .     S
C27    H73     1.110   .     S
C28    H44     1.112   .     S
C28    H43     1.110   .     S
C28    H42     1.108   .     S
C28    N80     1.447   .     S
C29    H966    1.111   .     S
C29    H139    1.109   .     S
C29    H876    1.109   .     S
C29    N173    1.449   .     S
C30    H51     1.110   .     S
C30    H234    1.110   1_455 S
C30    H237    1.109   1_455 S
C30    N266    1.448   1_455 S
C31    H66     1.107   .     S
C31    N83     1.448   .     S
C31    H65     1.111   .     S
C31    H64     1.110   .     S
C32    H68     1.109   .     S
C32    N84     1.451   .     S
C32    H70     1.108   .     S
C32    H69     1.111   .     S
C33    H55     1.075   .     S
C33    C35     1.389   .     A
C34    H63     1.082   .     S
C34    C850    1.398   1_554 S
C35    H71     1.083   .     S
C35    C852    1.400   .     S
C36    H56     1.084   .     S
C36    C96     1.397   .     S
C36    C590    1.385   1_545 S
C37    H57     1.084   .     S
C37    C187    1.399   1_455 S
C37    C278    1.388   .     S
C38    H58     1.078   .     S
C38    C312    1.385   .     S
Cu39   N77     2.021   .     S
Cu39   O88     1.945   .     S
Cu39   O85     1.954   .     S
Cu39   O92     1.938   .     S
Cu39   O89     1.950   .     S
Cu39   Cu224   2.690   1_455 S
Cu40   O87     1.945   .     S
Cu40   O86     1.954   .     S
Cu40   N78     2.021   .     S
Cu40   O91     1.938   .     S
Cu40   O90     1.950   .     S
Cu40   Cu131   2.690   .     S
H45    N81     1.028   .     S
H46    C1041   1.111   1_454 S
H47    C213    1.109   1_455 S
H48    C857    1.109   1_554 S
H49    N82     1.028   .     S
H50    C122    1.110   .     S
H53    C122    1.109   .     S
H62    N83     1.030   .     S
H67    N84     1.030   .     S
H72    N79     1.029   .     S
H76    N80     1.030   .     S
N79    C109    1.426   .     S
N80    C200    1.426   1_455 S
N81    C213    1.449   1_455 S
N81    C198    1.430   1_455 S
N82    C107    1.429   .     S
N82    C122    1.448   .     S
O87    C93     1.291   .     S
O88    C196    1.287   1_455 S
O89    C193    1.299   1_455 S
O90    C102    1.299   .     S
C93    O177    1.293   .     A
C93    C96     1.437   .     S
C94    H151    1.083   .     S
C94    C96     1.398   .     A
C94    C681    1.388   1_545 S
C95    C104    1.439   .     S
C95    C130    1.394   .     A
C95    C221    1.399   .     S
C97    C99     1.426   .     A
C97    H152    1.081   .     S
C97    N170    1.359   .     A
C98    N169    1.356   .     A
C98    H153    1.081   .     S
C98    C100    1.422   .     A
C99    N175    1.423   .     S
C99    N169    1.381   .     A
C100   N170    1.380   .     A
C100   N176    1.419   .     S
C101   O183    1.303   .     A
C101   C103    1.481   .     S
C101   O273    1.299   .     S
C102   O184    1.303   .     A
C102   C105    1.478   .     S
C103   C110    1.396   .     A
C103   C108    1.414   .     A
C104   O178    1.297   .     A
C104   O272    1.287   .     S
C105   C111    1.393   .     A
C105   C109    1.415   .     A
C106   C108    1.417   .     A
C106   C114    1.419   .     A
C106   N265    1.430   .     S
C107   C116    1.418   .     A
C107   C109    1.419   .     A
C108   N264    1.426   .     S
C110   H144    1.072   .     S
C110   C112    1.401   .     A
C111   C113    1.400   .     A
C111   H133    1.078   .     S
C112   C117    1.432   .     A
C112   C114    1.421   .     A
C113   C118    1.423   .     A
C113   C116    1.414   .     A
C114   C954    1.398   .     S
C115   C118    1.407   .     A
C115   C126    1.383   .     A
C115   H146    1.076   .     S
C116   C955    1.400   1_554 S
C117   C125    1.416   .     A
C117   C946    1.419   .     S
C118   C945    1.419   1_554 S
C119   N171    1.447   .     S
C119   H166    1.113   .     S
C119   H167    1.110   .     S
C119   H165    1.110   .     S
C120   H136    1.112   .     S
C120   H135    1.110   .     S
C120   H134    1.108   .     S
C120   N172    1.447   .     S
C121   H1058   1.111   .     S
C121   H231    1.109   .     S
C121   H968    1.109   .     S
C121   N265    1.449   .     S
C122   H143    1.110   .     S
C123   H158    1.107   .     S
C123   N175    1.448   .     S
C123   H157    1.111   .     S
C123   H156    1.110   .     S
C124   H160    1.109   .     S
C124   N176    1.451   .     S
C124   H162    1.108   .     S
C124   H161    1.111   .     S
C125   H147    1.075   .     S
C125   C127    1.389   .     A
C126   H155    1.082   .     S
C126   C942    1.398   1_554 S
C127   H163    1.083   .     S
C127   C944    1.400   .     S
C128   H148    1.084   .     S
C128   C188    1.397   .     S
C128   C682    1.385   1_545 S
C129   H149    1.084   .     S
C129   C370    1.388   .     S
C130   H150    1.078   .     S
C130   C404    1.385   .     S
Cu131  N169    2.021   .     S
Cu131  O180    1.945   .     S
Cu131  O177    1.954   .     S
Cu131  O184    1.938   .     S
Cu131  O181    1.950   .     S
Cu132  O179    1.945   .     S
Cu132  O178    1.954   .     S
Cu132  N170    2.021   .     S
Cu132  O183    1.938   .     S
Cu132  O182    1.950   .     S
Cu132  Cu223   2.690   .     S
H137   N173    1.028   .     S
H138   C857    1.111   1_554 S
H140   C949    1.109   1_554 S
H141   N174    1.028   .     S
H142   C214    1.110   .     S
H145   C214    1.109   .     S
H154   N175    1.030   .     S
H159   N176    1.030   .     S
H164   N171    1.029   .     S
H168   N172    1.030   .     S
N171   C201    1.426   .     S
N174   C199    1.429   .     S
N174   C214    1.448   .     S
O179   C185    1.291   .     S
O182   C194    1.299   .     S
C185   O269    1.293   .     A
C185   C188    1.437   .     S
C186   H243    1.083   .     S
C186   C188    1.398   .     A
C186   C773    1.388   1_545 S
C187   C196    1.439   .     S
C187   C222    1.394   .     A
C187   C37     1.399   1_655 S
C189   C191    1.426   .     A
C189   H244    1.081   .     S
C189   N262    1.359   .     A
C190   N261    1.356   .     A
C190   H245    1.081   .     S
C190   C192    1.422   .     A
C191   N267    1.423   .     S
C191   N261    1.381   .     A
C192   N262    1.380   .     A
C192   N268    1.419   .     S
C193   O275    1.303   .     A
C193   C195    1.481   .     S
C193   O89     1.299   1_655 S
C194   O276    1.303   .     A
C194   C197    1.478   .     S
C195   C202    1.396   .     A
C195   C200    1.414   .     A
C196   O270    1.297   .     A
C196   O88     1.287   1_655 S
C197   C203    1.393   .     A
C197   C201    1.415   .     A
C198   C200    1.417   .     A
C198   C206    1.419   .     A
C198   N81     1.430   1_655 S
C199   C208    1.418   .     A
C199   C201    1.419   .     A
C200   N80     1.426   1_655 S
C202   H236    1.072   .     S
C202   C204    1.401   .     A
C203   C205    1.400   .     A
C203   H225    1.078   .     S
C204   C209    1.432   .     A
C204   C206    1.421   .     A
C205   C210    1.423   .     A
C205   C208    1.414   .     A
C206   C1046   1.398   .     S
C207   C210    1.407   .     A
C207   C218    1.383   .     A
C207   H238    1.076   .     S
C208   C1047   1.400   1_554 S
C209   C217    1.416   .     A
C209   C1038   1.419   .     S
C210   C1037   1.419   1_554 S
C211   N263    1.447   .     S
C211   H258    1.113   .     S
C211   H259    1.110   .     S
C211   H257    1.110   .     S
C212   H228    1.112   .     S
C212   H227    1.110   .     S
C212   H226    1.108   .     S
C212   N264    1.447   .     S
C213   H874    1.111   1_655 S
C213   H47     1.109   1_655 S
C213   H1060   1.109   .     S
C213   N81     1.449   1_655 S
C214   H235    1.110   .     S
C215   H250    1.107   .     S
C215   N267    1.448   .     S
C215   H249    1.111   .     S
C215   H248    1.110   .     S
C216   H252    1.109   .     S
C216   N268    1.451   .     S
C216   H254    1.108   .     S
C216   H253    1.111   .     S
C217   H239    1.075   .     S
C217   C219    1.389   .     A
C218   H247    1.082   .     S
C218   C1034   1.398   1_554 S
C219   H255    1.083   .     S
C219   C1036   1.400   .     S
C220   H240    1.084   .     S
C220   C4      1.397   1_655 S
C220   C774    1.385   1_545 S
C221   H241    1.084   .     S
C221   C462    1.388   .     S
C222   H242    1.078   .     S
C222   C496    1.385   .     S
Cu223  N261    2.021   .     S
Cu223  O272    1.945   .     S
Cu223  O269    1.954   .     S
Cu223  O276    1.938   .     S
Cu223  O273    1.950   .     S
Cu224  O271    1.945   .     S
Cu224  O270    1.954   .     S
Cu224  N262    2.021   .     S
Cu224  O275    1.938   .     S
Cu224  O274    1.950   .     S
Cu224  Cu39    2.690   1_655 S
H229   N265    1.028   .     S
H230   C949    1.111   1_554 S
H232   C1041   1.109   1_554 S
H233   N266    1.028   .     S
H234   C30     1.110   1_655 S
H237   C30     1.109   1_655 S
H246   N267    1.030   .     S
H251   N268    1.030   .     S
H256   N263    1.029   .     S
H260   N264    1.030   .     S
N263   C17     1.426   1_655 S
N266   C15     1.429   1_655 S
N266   C30     1.448   1_655 S
O271   C1      1.291   1_655 S
O274   C10     1.299   1_655 S
C277   O361    1.293   .     A
C277   C280    1.437   .     S
C277   O547    1.291   1_455 S
C278   H335    1.083   .     S
C278   C280    1.398   .     A
C279   C288    1.439   .     S
C279   C314    1.394   .     A
C279   C405    1.399   .     S
C280   C496    1.397   1_455 S
C281   C283    1.426   .     A
C281   H336    1.081   .     S
C281   N354    1.359   .     A
C282   N353    1.356   .     A
C282   H337    1.081   .     S
C282   C284    1.422   .     A
C283   N359    1.423   .     S
C283   N353    1.381   .     A
C284   N354    1.380   .     A
C284   N360    1.419   .     S
C285   O367    1.303   .     A
C285   C287    1.481   .     S
C285   O457    1.299   .     S
C286   O368    1.303   .     A
C286   C289    1.478   .     S
C286   O550    1.299   1_455 S
C287   C294    1.396   .     A
C287   C292    1.414   .     A
C288   O362    1.297   .     A
C288   O456    1.287   .     S
C289   C295    1.393   .     A
C289   C293    1.415   .     A
C290   C292    1.417   .     A
C290   C298    1.419   .     A
C290   N449    1.430   .     S
C291   C300    1.418   .     A
C291   C293    1.419   .     A
C291   N542    1.429   1_455 S
C292   N448    1.426   .     S
C293   N539    1.426   1_455 S
C294   H328    1.072   .     S
C294   C296    1.401   .     A
C295   C297    1.400   .     A
C295   H317    1.078   .     S
C296   C301    1.432   .     A
C296   C298    1.421   .     A
C297   C302    1.423   .     A
C297   C300    1.414   .     A
C298   C1138   1.398   .     S
C299   C302    1.407   .     A
C299   C310    1.383   .     A
C299   H330    1.076   .     S
C300   C1139   1.400   1_554 S
C301   C309    1.416   .     A
C301   C1130   1.419   .     S
C302   C1129   1.419   1_554 S
C303   N355    1.447   .     S
C303   H350    1.113   .     S
C303   H351    1.110   .     S
C303   H349    1.110   .     S
C304   H320    1.112   .     S
C304   H319    1.110   .     S
C304   H318    1.108   .     S
C304   N356    1.447   .     S
C305   H1242   1.111   .     S
C305   H415    1.109   .     S
C305   H1152   1.109   .     S
C305   N449    1.449   .     S
C306   H327    1.110   .     S
C306   H510    1.110   1_455 S
C306   H513    1.109   1_455 S
C306   N542    1.448   1_455 S
C307   H342    1.107   .     S
C307   N359    1.448   .     S
C307   H341    1.111   .     S
C307   H340    1.110   .     S
C308   H344    1.109   .     S
C308   N360    1.451   .     S
C308   H346    1.108   .     S
C308   H345    1.111   .     S
C309   H331    1.075   .     S
C309   C311    1.389   .     A
C310   H339    1.082   .     S
C310   C1126   1.398   1_554 S
C311   H347    1.083   .     S
C311   C1128   1.400   .     S
C312   H332    1.084   .     S
C312   C372    1.397   .     S
C313   H333    1.084   .     S
C313   C463    1.399   1_455 S
C313   C554    1.388   .     S
C314   H334    1.078   .     S
C314   C588    1.385   .     S
Cu315  N353    2.021   .     S
Cu315  O364    1.945   .     S
Cu315  O361    1.954   .     S
Cu315  O368    1.938   .     S
Cu315  O365    1.950   .     S
Cu315  Cu500   2.690   1_455 S
Cu316  O363    1.945   .     S
Cu316  O362    1.954   .     S
Cu316  N354    2.021   .     S
Cu316  O367    1.938   .     S
Cu316  O366    1.950   .     S
Cu316  Cu407   2.690   .     S
H321   N357    1.028   .     S
H322   C1317   1.111   1_454 S
H323   C489    1.109   1_455 S
H324   C1133   1.109   1_554 S
H325   N358    1.028   .     S
H326   C398    1.110   .     S
H329   C398    1.109   .     S
H338   N359    1.030   .     S
H343   N360    1.030   .     S
H348   N355    1.029   .     S
H352   N356    1.030   .     S
N355   C385    1.426   .     S
N356   C476    1.426   1_455 S
N357   C489    1.449   1_455 S
N357   C474    1.430   1_455 S
N358   C383    1.429   .     S
N358   C398    1.448   .     S
O363   C369    1.291   .     S
O364   C472    1.287   1_455 S
O365   C469    1.299   1_455 S
O366   C378    1.299   .     S
C369   O453    1.293   .     A
C369   C372    1.437   .     S
C370   H427    1.083   .     S
C370   C372    1.398   .     A
C371   C380    1.439   .     S
C371   C406    1.394   .     A
C371   C497    1.399   .     S
C373   C375    1.426   .     A
C373   H428    1.081   .     S
C373   N446    1.359   .     A
C374   N445    1.356   .     A
C374   H429    1.081   .     S
C374   C376    1.422   .     A
C375   N451    1.423   .     S
C375   N445    1.381   .     A
C376   N446    1.380   .     A
C376   N452    1.419   .     S
C377   O459    1.303   .     A
C377   C379    1.481   .     S
C377   O549    1.299   .     S
C378   O460    1.303   .     A
C378   C381    1.478   .     S
C379   C386    1.396   .     A
C379   C384    1.414   .     A
C380   O454    1.297   .     A
C380   O548    1.287   .     S
C381   C387    1.393   .     A
C381   C385    1.415   .     A
C382   C384    1.417   .     A
C382   C390    1.419   .     A
C382   N541    1.430   .     S
C383   C392    1.418   .     A
C383   C385    1.419   .     A
C384   N540    1.426   .     S
C386   H420    1.072   .     S
C386   C388    1.401   .     A
C387   C389    1.400   .     A
C387   H409    1.078   .     S
C388   C393    1.432   .     A
C388   C390    1.421   .     A
C389   C394    1.423   .     A
C389   C392    1.414   .     A
C390   C1230   1.398   .     S
C391   C394    1.407   .     A
C391   C402    1.383   .     A
C391   H422    1.076   .     S
C392   C1231   1.400   1_554 S
C393   C401    1.416   .     A
C393   C1222   1.419   .     S
C394   C1221   1.419   1_554 S
C395   N447    1.447   .     S
C395   H442    1.113   .     S
C395   H443    1.110   .     S
C395   H441    1.110   .     S
C396   H412    1.112   .     S
C396   H411    1.110   .     S
C396   H410    1.108   .     S
C396   N448    1.447   .     S
C397   H1334   1.111   .     S
C397   H507    1.109   .     S
C397   H1244   1.109   .     S
C397   N541    1.449   .     S
C398   H419    1.110   .     S
C399   H434    1.107   .     S
C399   N451    1.448   .     S
C399   H433    1.111   .     S
C399   H432    1.110   .     S
C400   H436    1.109   .     S
C400   N452    1.451   .     S
C400   H438    1.108   .     S
C400   H437    1.111   .     S
C401   H423    1.075   .     S
C401   C403    1.389   .     A
C402   H431    1.082   .     S
C402   C1218   1.398   1_554 S
C403   H439    1.083   .     S
C403   C1220   1.400   .     S
C404   H424    1.084   .     S
C404   C464    1.397   .     S
C405   H425    1.084   .     S
C405   C646    1.388   .     S
C406   H426    1.078   .     S
C406   C680    1.385   .     S
Cu407  N445    2.021   .     S
Cu407  O456    1.945   .     S
Cu407  O453    1.954   .     S
Cu407  O460    1.938   .     S
Cu407  O457    1.950   .     S
Cu408  O455    1.945   .     S
Cu408  O454    1.954   .     S
Cu408  N446    2.021   .     S
Cu408  O459    1.938   .     S
Cu408  O458    1.950   .     S
Cu408  Cu499   2.690   .     S
H413   N449    1.028   .     S
H414   C1133   1.111   1_554 S
H416   C1225   1.109   1_554 S
H417   N450    1.028   .     S
H418   C490    1.110   .     S
H421   C490    1.109   .     S
H430   N451    1.030   .     S
H435   N452    1.030   .     S
H440   N447    1.029   .     S
H444   N448    1.030   .     S
N447   C477    1.426   .     S
N450   C475    1.429   .     S
N450   C490    1.448   .     S
O455   C461    1.291   .     S
O458   C470    1.299   .     S
C461   O545    1.293   .     A
C461   C464    1.437   .     S
C462   H519    1.083   .     S
C462   C464    1.398   .     A
C463   C472    1.439   .     S
C463   C498    1.394   .     A
C463   C313    1.399   1_655 S
C465   C467    1.426   .     A
C465   H520    1.081   .     S
C465   N538    1.359   .     A
C466   N537    1.356   .     A
C466   H521    1.081   .     S
C466   C468    1.422   .     A
C467   N543    1.423   .     S
C467   N537    1.381   .     A
C468   N538    1.380   .     A
C468   N544    1.419   .     S
C469   O551    1.303   .     A
C469   C471    1.481   .     S
C469   O365    1.299   1_655 S
C470   O552    1.303   .     A
C470   C473    1.478   .     S
C471   C478    1.396   .     A
C471   C476    1.414   .     A
C472   O546    1.297   .     A
C472   O364    1.287   1_655 S
C473   C479    1.393   .     A
C473   C477    1.415   .     A
C474   C476    1.417   .     A
C474   C482    1.419   .     A
C474   N357    1.430   1_655 S
C475   C484    1.418   .     A
C475   C477    1.419   .     A
C476   N356    1.426   1_655 S
C478   H512    1.072   .     S
C478   C480    1.401   .     A
C479   C481    1.400   .     A
C479   H501    1.078   .     S
C480   C485    1.432   .     A
C480   C482    1.421   .     A
C481   C486    1.423   .     A
C481   C484    1.414   .     A
C482   C1322   1.398   .     S
C483   C486    1.407   .     A
C483   C494    1.383   .     A
C483   H514    1.076   .     S
C484   C1323   1.400   1_554 S
C485   C493    1.416   .     A
C485   C1314   1.419   .     S
C486   C1313   1.419   1_554 S
C487   N539    1.447   .     S
C487   H534    1.113   .     S
C487   H535    1.110   .     S
C487   H533    1.110   .     S
C488   H504    1.112   .     S
C488   H503    1.110   .     S
C488   H502    1.108   .     S
C488   N540    1.447   .     S
C489   H1150   1.111   1_655 S
C489   H323    1.109   1_655 S
C489   H1336   1.109   .     S
C489   N357    1.449   1_655 S
C490   H511    1.110   .     S
C491   H526    1.107   .     S
C491   N543    1.448   .     S
C491   H525    1.111   .     S
C491   H524    1.110   .     S
C492   H528    1.109   .     S
C492   N544    1.451   .     S
C492   H530    1.108   .     S
C492   H529    1.111   .     S
C493   H515    1.075   .     S
C493   C495    1.389   .     A
C494   H523    1.082   .     S
C494   C1310   1.398   1_554 S
C495   H531    1.083   .     S
C495   C1312   1.400   .     S
C496   H516    1.084   .     S
C496   C280    1.397   1_655 S
C497   H517    1.084   .     S
C497   C738    1.388   .     S
C498   H518    1.078   .     S
C498   C772    1.385   .     S
Cu499  N537    2.021   .     S
Cu499  O548    1.945   .     S
Cu499  O545    1.954   .     S
Cu499  O552    1.938   .     S
Cu499  O549    1.950   .     S
Cu500  O547    1.945   .     S
Cu500  O546    1.954   .     S
Cu500  N538    2.021   .     S
Cu500  O551    1.938   .     S
Cu500  O550    1.950   .     S
Cu500  Cu315   2.690   1_655 S
H505   N541    1.028   .     S
H506   C1225   1.111   1_554 S
H508   C1317   1.109   1_554 S
H509   N542    1.028   .     S
H510   C306    1.110   1_655 S
H513   C306    1.109   1_655 S
H522   N543    1.030   .     S
H527   N544    1.030   .     S
H532   N539    1.029   .     S
H536   N540    1.030   .     S
N539   C293    1.426   1_655 S
N542   C291    1.429   1_655 S
N542   C306    1.448   1_655 S
O547   C277    1.291   1_655 S
O550   C286    1.299   1_655 S
C553   O637    1.293   .     A
C553   C556    1.437   .     S
C553   O823    1.291   1_455 S
C554   H611    1.083   .     S
C554   C556    1.398   .     A
C555   C564    1.439   .     S
C555   C590    1.394   .     A
C555   C681    1.399   .     S
C556   C772    1.397   1_455 S
C557   C559    1.426   .     A
C557   H612    1.081   .     S
C557   N630    1.359   .     A
C558   N629    1.356   .     A
C558   H613    1.081   .     S
C558   C560    1.422   .     A
C559   N635    1.423   .     S
C559   N629    1.381   .     A
C560   N630    1.380   .     A
C560   N636    1.419   .     S
C561   O643    1.303   .     A
C561   C563    1.481   .     S
C561   O733    1.299   .     S
C562   O644    1.303   .     A
C562   C565    1.478   .     S
C562   O826    1.299   1_455 S
C563   C570    1.396   .     A
C563   C568    1.414   .     A
C564   O638    1.297   .     A
C564   O732    1.287   .     S
C565   C571    1.393   .     A
C565   C569    1.415   .     A
C566   C568    1.417   .     A
C566   C574    1.419   .     A
C566   N725    1.430   .     S
C567   C576    1.418   .     A
C567   C569    1.419   .     A
C567   N818    1.429   1_455 S
C568   N724    1.426   .     S
C569   N815    1.426   1_455 S
C570   H604    1.072   .     S
C570   C572    1.401   .     A
C571   C573    1.400   .     A
C571   H593    1.078   .     S
C572   C577    1.432   .     A
C572   C574    1.421   .     A
C573   C578    1.423   .     A
C573   C576    1.414   .     A
C574   C1414   1.398   .     S
C575   C578    1.407   .     A
C575   C586    1.383   .     A
C575   H606    1.076   .     S
C576   C1415   1.400   1_554 S
C577   C585    1.416   .     A
C577   C1406   1.419   .     S
C578   C1405   1.419   1_554 S
C579   N631    1.447   .     S
C579   H626    1.113   .     S
C579   H627    1.110   .     S
C579   H625    1.110   .     S
C580   H596    1.112   .     S
C580   H595    1.110   .     S
C580   H594    1.108   .     S
C580   N632    1.447   .     S
C581   H1518   1.111   .     S
C581   H691    1.109   .     S
C581   H1428   1.109   .     S
C581   N725    1.449   .     S
C582   H603    1.110   .     S
C582   H786    1.110   1_455 S
C582   H789    1.109   1_455 S
C582   N818    1.448   1_455 S
C583   H618    1.107   .     S
C583   N635    1.448   .     S
C583   H617    1.111   .     S
C583   H616    1.110   .     S
C584   H620    1.109   .     S
C584   N636    1.451   .     S
C584   H622    1.108   .     S
C584   H621    1.111   .     S
C585   H607    1.075   .     S
C585   C587    1.389   .     A
C586   H615    1.082   .     S
C586   C1402   1.398   1_554 S
C587   H623    1.083   .     S
C587   C1404   1.400   .     S
C588   H608    1.084   .     S
C588   C648    1.397   .     S
C589   H609    1.084   .     S
C589   C739    1.399   1_455 S
C589   C2      1.388   1_565 S
C590   H610    1.078   .     S
C590   C36     1.385   1_565 S
Cu591  N629    2.021   .     S
Cu591  O640    1.945   .     S
Cu591  O637    1.954   .     S
Cu591  O644    1.938   .     S
Cu591  O641    1.950   .     S
Cu591  Cu776   2.690   1_455 S
Cu592  O639    1.945   .     S
Cu592  O638    1.954   .     S
Cu592  N630    2.021   .     S
Cu592  O643    1.938   .     S
Cu592  O642    1.950   .     S
Cu592  Cu683   2.690   .     S
H597   N633    1.028   .     S
H598   C1593   1.111   1_454 S
H599   C765    1.109   1_455 S
H600   C1409   1.109   1_554 S
H601   N634    1.028   .     S
H602   C674    1.110   .     S
H605   C674    1.109   .     S
H614   N635    1.030   .     S
H619   N636    1.030   .     S
H624   N631    1.029   .     S
H628   N632    1.030   .     S
N631   C661    1.426   .     S
N632   C752    1.426   1_455 S
N633   C765    1.449   1_455 S
N633   C750    1.430   1_455 S
N634   C659    1.429   .     S
N634   C674    1.448   .     S
O639   C645    1.291   .     S
O640   C748    1.287   1_455 S
O641   C745    1.299   1_455 S
O642   C654    1.299   .     S
C645   O729    1.293   .     A
C645   C648    1.437   .     S
C646   H703    1.083   .     S
C646   C648    1.398   .     A
C647   C656    1.439   .     S
C647   C682    1.394   .     A
C647   C773    1.399   .     S
C649   C651    1.426   .     A
C649   H704    1.081   .     S
C649   N722    1.359   .     A
C650   N721    1.356   .     A
C650   H705    1.081   .     S
C650   C652    1.422   .     A
C651   N727    1.423   .     S
C651   N721    1.381   .     A
C652   N722    1.380   .     A
C652   N728    1.419   .     S
C653   O735    1.303   .     A
C653   C655    1.481   .     S
C653   O825    1.299   .     S
C654   O736    1.303   .     A
C654   C657    1.478   .     S
C655   C662    1.396   .     A
C655   C660    1.414   .     A
C656   O730    1.297   .     A
C656   O824    1.287   .     S
C657   C663    1.393   .     A
C657   C661    1.415   .     A
C658   C660    1.417   .     A
C658   C666    1.419   .     A
C658   N817    1.430   .     S
C659   C668    1.418   .     A
C659   C661    1.419   .     A
C660   N816    1.426   .     S
C662   H696    1.072   .     S
C662   C664    1.401   .     A
C663   C665    1.400   .     A
C663   H685    1.078   .     S
C664   C669    1.432   .     A
C664   C666    1.421   .     A
C665   C670    1.423   .     A
C665   C668    1.414   .     A
C666   C1506   1.398   .     S
C667   C670    1.407   .     A
C667   C678    1.383   .     A
C667   H698    1.076   .     S
C668   C1507   1.400   1_554 S
C669   C677    1.416   .     A
C669   C1498   1.419   .     S
C670   C1497   1.419   1_554 S
C671   N723    1.447   .     S
C671   H718    1.113   .     S
C671   H719    1.110   .     S
C671   H717    1.110   .     S
C672   H688    1.112   .     S
C672   H687    1.110   .     S
C672   H686    1.108   .     S
C672   N724    1.447   .     S
C673   H1610   1.111   .     S
C673   H783    1.109   .     S
C673   H1520   1.109   .     S
C673   N817    1.449   .     S
C674   H695    1.110   .     S
C675   H710    1.107   .     S
C675   N727    1.448   .     S
C675   H709    1.111   .     S
C675   H708    1.110   .     S
C676   H712    1.109   .     S
C676   N728    1.451   .     S
C676   H714    1.108   .     S
C676   H713    1.111   .     S
C677   H699    1.075   .     S
C677   C679    1.389   .     A
C678   H707    1.082   .     S
C678   C1494   1.398   1_554 S
C679   H715    1.083   .     S
C679   C1496   1.400   .     S
C680   H700    1.084   .     S
C680   C740    1.397   .     S
C681   H701    1.084   .     S
C681   C94     1.388   1_565 S
C682   H702    1.078   .     S
C682   C128    1.385   1_565 S
Cu683  N721    2.021   .     S
Cu683  O732    1.945   .     S
Cu683  O729    1.954   .     S
Cu683  O736    1.938   .     S
Cu683  O733    1.950   .     S
Cu684  O731    1.945   .     S
Cu684  O730    1.954   .     S
Cu684  N722    2.021   .     S
Cu684  O735    1.938   .     S
Cu684  O734    1.950   .     S
Cu684  Cu775   2.690   .     S
H689   N725    1.028   .     S
H690   C1409   1.111   1_554 S
H692   C1501   1.109   1_554 S
H693   N726    1.028   .     S
H694   C766    1.110   .     S
H697   C766    1.109   .     S
H706   N727    1.030   .     S
H711   N728    1.030   .     S
H716   N723    1.029   .     S
H720   N724    1.030   .     S
N723   C753    1.426   .     S
N726   C751    1.429   .     S
N726   C766    1.448   .     S
O731   C737    1.291   .     S
O734   C746    1.299   .     S
C737   O821    1.293   .     A
C737   C740    1.437   .     S
C738   H795    1.083   .     S
C738   C740    1.398   .     A
C739   C748    1.439   .     S
C739   C774    1.394   .     A
C739   C589    1.399   1_655 S
C741   C743    1.426   .     A
C741   H796    1.081   .     S
C741   N814    1.359   .     A
C742   N813    1.356   .     A
C742   H797    1.081   .     S
C742   C744    1.422   .     A
C743   N819    1.423   .     S
C743   N813    1.381   .     A
C744   N814    1.380   .     A
C744   N820    1.419   .     S
C745   O827    1.303   .     A
C745   C747    1.481   .     S
C745   O641    1.299   1_655 S
C746   O828    1.303   .     A
C746   C749    1.478   .     S
C747   C754    1.396   .     A
C747   C752    1.414   .     A
C748   O822    1.297   .     A
C748   O640    1.287   1_655 S
C749   C755    1.393   .     A
C749   C753    1.415   .     A
C750   C752    1.417   .     A
C750   C758    1.419   .     A
C750   N633    1.430   1_655 S
C751   C760    1.418   .     A
C751   C753    1.419   .     A
C752   N632    1.426   1_655 S
C754   H788    1.072   .     S
C754   C756    1.401   .     A
C755   C757    1.400   .     A
C755   H777    1.078   .     S
C756   C761    1.432   .     A
C756   C758    1.421   .     A
C757   C762    1.423   .     A
C757   C760    1.414   .     A
C758   C1598   1.398   .     S
C759   C762    1.407   .     A
C759   C770    1.383   .     A
C759   H790    1.076   .     S
C760   C1599   1.400   1_554 S
C761   C769    1.416   .     A
C761   C1590   1.419   .     S
C762   C1589   1.419   1_554 S
C763   N815    1.447   .     S
C763   H810    1.113   .     S
C763   H811    1.110   .     S
C763   H809    1.110   .     S
C764   H780    1.112   .     S
C764   H779    1.110   .     S
C764   H778    1.108   .     S
C764   N816    1.447   .     S
C765   H1426   1.111   1_655 S
C765   H599    1.109   1_655 S
C765   H1612   1.109   .     S
C765   N633    1.449   1_655 S
C766   H787    1.110   .     S
C767   H802    1.107   .     S
C767   N819    1.448   .     S
C767   H801    1.111   .     S
C767   H800    1.110   .     S
C768   H804    1.109   .     S
C768   N820    1.451   .     S
C768   H806    1.108   .     S
C768   H805    1.111   .     S
C769   H791    1.075   .     S
C769   C771    1.389   .     A
C770   H799    1.082   .     S
C770   C1586   1.398   1_554 S
C771   H807    1.083   .     S
C771   C1588   1.400   .     S
C772   H792    1.084   .     S
C772   C556    1.397   1_655 S
C773   H793    1.084   .     S
C773   C186    1.388   1_565 S
C774   H794    1.078   .     S
C774   C220    1.385   1_565 S
Cu775  N813    2.021   .     S
Cu775  O824    1.945   .     S
Cu775  O821    1.954   .     S
Cu775  O828    1.938   .     S
Cu775  O825    1.950   .     S
Cu776  O823    1.945   .     S
Cu776  O822    1.954   .     S
Cu776  N814    2.021   .     S
Cu776  O827    1.938   .     S
Cu776  O826    1.950   .     S
Cu776  Cu591   2.690   1_655 S
H781   N817    1.028   .     S
H782   C1501   1.111   1_554 S
H784   C1593   1.109   1_554 S
H785   N818    1.028   .     S
H786   C582    1.110   1_655 S
H789   C582    1.109   1_655 S
H798   N819    1.030   .     S
H803   N820    1.030   .     S
H808   N815    1.029   .     S
H812   N816    1.030   .     S
N815   C569    1.426   1_655 S
N818   C567    1.429   1_655 S
N818   C582    1.448   1_655 S
O823   C553    1.291   1_655 S
O826   C562    1.299   1_655 S
C829   O913    1.293   .     A
C829   C832    1.437   .     S
C829   O1099   1.291   1_455 S
C830   H887    1.083   .     S
C830   C832    1.398   .     A
C830   C1417   1.388   1_545 S
C831   C840    1.439   .     S
C831   C866    1.394   .     A
C831   C957    1.399   .     S
C832   C1048   1.397   1_455 S
C833   C835    1.426   .     A
C833   H888    1.081   .     S
C833   N906    1.359   .     A
C834   N905    1.356   .     A
C834   H889    1.081   .     S
C834   C836    1.422   .     A
C835   N911    1.423   .     S
C835   N905    1.381   .     A
C836   N906    1.380   .     A
C836   N912    1.419   .     S
C837   O919    1.303   .     A
C837   C839    1.481   .     S
C837   O1009   1.299   .     S
C838   O920    1.303   .     A
C838   C841    1.478   .     S
C838   O1102   1.299   1_455 S
C839   C846    1.396   .     A
C839   C844    1.414   .     A
C840   O914    1.297   .     A
C840   O1008   1.287   .     S
C841   C847    1.393   .     A
C841   C845    1.415   .     A
C842   C844    1.417   .     A
C842   C850    1.419   .     A
C842   N1001   1.430   .     S
C843   C852    1.418   .     A
C843   C845    1.419   .     A
C843   N1094   1.429   1_455 S
C844   N1000   1.426   .     S
C845   N1091   1.426   1_455 S
C846   H880    1.072   .     S
C846   C848    1.401   .     A
C847   C849    1.400   .     A
C847   H869    1.078   .     S
C848   C853    1.432   .     A
C848   C850    1.421   .     A
C849   C854    1.423   .     A
C849   C852    1.414   .     A
C850   C34     1.398   1_556 S
C851   C854    1.407   .     A
C851   C862    1.383   .     A
C851   H882    1.076   .     S
C853   C861    1.416   .     A
C853   C26     1.419   1_556 S
C855   N907    1.447   .     S
C855   H902    1.113   .     S
C855   H903    1.110   .     S
C855   H901    1.110   .     S
C856   H872    1.112   .     S
C856   H871    1.110   .     S
C856   H870    1.108   .     S
C856   N908    1.447   .     S
C857   H138    1.111   1_556 S
C857   H967    1.109   .     S
C857   H48     1.109   1_556 S
C857   N1001   1.449   .     S
C858   H879    1.110   .     S
C858   H1062   1.110   1_455 S
C858   H1065   1.109   1_455 S
C858   N1094   1.448   1_455 S
C859   H894    1.107   .     S
C859   N911    1.448   .     S
C859   H893    1.111   .     S
C859   H892    1.110   .     S
C860   H896    1.109   .     S
C860   N912    1.451   .     S
C860   H898    1.108   .     S
C860   H897    1.111   .     S
C861   H883    1.075   .     S
C861   C863    1.389   .     A
C862   H891    1.082   .     S
C863   H899    1.083   .     S
C863   C24     1.400   1_556 S
C864   H884    1.084   .     S
C864   C924    1.397   .     S
C864   C1418   1.385   1_545 S
C865   H885    1.084   .     S
C865   C1015   1.399   1_455 S
C865   C1106   1.388   .     S
C866   H886    1.078   .     S
C866   C1140   1.385   .     S
Cu867  N905    2.021   .     S
Cu867  O916    1.945   .     S
Cu867  O913    1.954   .     S
Cu867  O920    1.938   .     S
Cu867  O917    1.950   .     S
Cu867  Cu1052  2.690   1_455 S
Cu868  O915    1.945   .     S
Cu868  O914    1.954   .     S
Cu868  N906    2.021   .     S
Cu868  O919    1.938   .     S
Cu868  O918    1.950   .     S
Cu868  Cu959   2.690   .     S
H873   N909    1.028   .     S
H874   C213    1.111   1_455 S
H875   C1041   1.109   1_455 S
H877   N910    1.028   .     S
H878   C950    1.110   .     S
H881   C950    1.109   .     S
H890   N911    1.030   .     S
H895   N912    1.030   .     S
H900   N907    1.029   .     S
H904   N908    1.030   .     S
N907   C937    1.426   .     S
N908   C1028   1.426   1_455 S
N909   C1041   1.449   1_455 S
N909   C1026   1.430   1_455 S
N910   C935    1.429   .     S
N910   C950    1.448   .     S
O915   C921    1.291   .     S
O916   C1024   1.287   1_455 S
O917   C1021   1.299   1_455 S
O918   C930    1.299   .     S
C921   O1005   1.293   .     A
C921   C924    1.437   .     S
C922   H979    1.083   .     S
C922   C924    1.398   .     A
C922   C1509   1.388   1_545 S
C923   C932    1.439   .     S
C923   C958    1.394   .     A
C923   C1049   1.399   .     S
C925   C927    1.426   .     A
C925   H980    1.081   .     S
C925   N998    1.359   .     A
C926   N997    1.356   .     A
C926   H981    1.081   .     S
C926   C928    1.422   .     A
C927   N1003   1.423   .     S
C927   N997    1.381   .     A
C928   N998    1.380   .     A
C928   N1004   1.419   .     S
C929   O1011   1.303   .     A
C929   C931    1.481   .     S
C929   O1101   1.299   .     S
C930   O1012   1.303   .     A
C930   C933    1.478   .     S
C931   C938    1.396   .     A
C931   C936    1.414   .     A
C932   O1006   1.297   .     A
C932   O1100   1.287   .     S
C933   C939    1.393   .     A
C933   C937    1.415   .     A
C934   C936    1.417   .     A
C934   C942    1.419   .     A
C934   N1093   1.430   .     S
C935   C944    1.418   .     A
C935   C937    1.419   .     A
C936   N1092   1.426   .     S
C938   H972    1.072   .     S
C938   C940    1.401   .     A
C939   C941    1.400   .     A
C939   H961    1.078   .     S
C940   C945    1.432   .     A
C940   C942    1.421   .     A
C941   C946    1.423   .     A
C941   C944    1.414   .     A
C942   C126    1.398   1_556 S
C943   C946    1.407   .     A
C943   C954    1.383   .     A
C943   H974    1.076   .     S
C945   C953    1.416   .     A
C945   C118    1.419   1_556 S
C947   N999    1.447   .     S
C947   H994    1.113   .     S
C947   H995    1.110   .     S
C947   H993    1.110   .     S
C948   H964    1.112   .     S
C948   H963    1.110   .     S
C948   H962    1.108   .     S
C948   N1000   1.447   .     S
C949   H230    1.111   1_556 S
C949   H1059   1.109   .     S
C949   H140    1.109   1_556 S
C949   N1093   1.449   .     S
C950   H971    1.110   .     S
C951   H986    1.107   .     S
C951   N1003   1.448   .     S
C951   H985    1.111   .     S
C951   H984    1.110   .     S
C952   H988    1.109   .     S
C952   N1004   1.451   .     S
C952   H990    1.108   .     S
C952   H989    1.111   .     S
C953   H975    1.075   .     S
C953   C955    1.389   .     A
C954   H983    1.082   .     S
C955   H991    1.083   .     S
C955   C116    1.400   1_556 S
C956   H976    1.084   .     S
C956   C1016   1.397   .     S
C956   C1510   1.385   1_545 S
C957   H977    1.084   .     S
C957   C1198   1.388   .     S
C958   H978    1.078   .     S
C958   C1232   1.385   .     S
Cu959  N997    2.021   .     S
Cu959  O1008   1.945   .     S
Cu959  O1005   1.954   .     S
Cu959  O1012   1.938   .     S
Cu959  O1009   1.950   .     S
Cu960  O1007   1.945   .     S
Cu960  O1006   1.954   .     S
Cu960  N998    2.021   .     S
Cu960  O1011   1.938   .     S
Cu960  O1010   1.950   .     S
Cu960  Cu1051  2.690   .     S
H965   N1001   1.028   .     S
H969   N1002   1.028   .     S
H970   C1042   1.110   .     S
H973   C1042   1.109   .     S
H982   N1003   1.030   .     S
H987   N1004   1.030   .     S
H992   N999    1.029   .     S
H996   N1000   1.030   .     S
N999   C1029   1.426   .     S
N1002  C1027   1.429   .     S
N1002  C1042   1.448   .     S
O1007  C1013   1.291   .     S
O1010  C1022   1.299   .     S
C1013  O1097   1.293   .     A
C1013  C1016   1.437   .     S
C1014  H1071   1.083   .     S
C1014  C1016   1.398   .     A
C1014  C1601   1.388   1_545 S
C1015  C1024   1.439   .     S
C1015  C1050   1.394   .     A
C1015  C865    1.399   1_655 S
C1017  C1019   1.426   .     A
C1017  H1072   1.081   .     S
C1017  N1090   1.359   .     A
C1018  N1089   1.356   .     A
C1018  H1073   1.081   .     S
C1018  C1020   1.422   .     A
C1019  N1095   1.423   .     S
C1019  N1089   1.381   .     A
C1020  N1090   1.380   .     A
C1020  N1096   1.419   .     S
C1021  O1103   1.303   .     A
C1021  C1023   1.481   .     S
C1021  O917    1.299   1_655 S
C1022  O1104   1.303   .     A
C1022  C1025   1.478   .     S
C1023  C1030   1.396   .     A
C1023  C1028   1.414   .     A
C1024  O1098   1.297   .     A
C1024  O916    1.287   1_655 S
C1025  C1031   1.393   .     A
C1025  C1029   1.415   .     A
C1026  C1028   1.417   .     A
C1026  C1034   1.419   .     A
C1026  N909    1.430   1_655 S
C1027  C1036   1.418   .     A
C1027  C1029   1.419   .     A
C1028  N908    1.426   1_655 S
C1030  H1064   1.072   .     S
C1030  C1032   1.401   .     A
C1031  C1033   1.400   .     A
C1031  H1053   1.078   .     S
C1032  C1037   1.432   .     A
C1032  C1034   1.421   .     A
C1033  C1038   1.423   .     A
C1033  C1036   1.414   .     A
C1034  C218    1.398   1_556 S
C1035  C1038   1.407   .     A
C1035  C1046   1.383   .     A
C1035  H1066   1.076   .     S
C1037  C1045   1.416   .     A
C1037  C210    1.419   1_556 S
C1039  N1091   1.447   .     S
C1039  H1086   1.113   .     S
C1039  H1087   1.110   .     S
C1039  H1085   1.110   .     S
C1040  H1056   1.112   .     S
C1040  H1055   1.110   .     S
C1040  H1054   1.108   .     S
C1040  N1092   1.447   .     S
C1041  H46     1.111   1_656 S
C1041  H875    1.109   1_655 S
C1041  H232    1.109   1_556 S
C1041  N909    1.449   1_655 S
C1042  H1063   1.110   .     S
C1043  H1078   1.107   .     S
C1043  N1095   1.448   .     S
C1043  H1077   1.111   .     S
C1043  H1076   1.110   .     S
C1044  H1080   1.109   .     S
C1044  N1096   1.451   .     S
C1044  H1082   1.108   .     S
C1044  H1081   1.111   .     S
C1045  H1067   1.075   .     S
C1045  C1047   1.389   .     A
C1046  H1075   1.082   .     S
C1047  H1083   1.083   .     S
C1047  C208    1.400   1_556 S
C1048  H1068   1.084   .     S
C1048  C832    1.397   1_655 S
C1048  C1602   1.385   1_545 S
C1049  H1069   1.084   .     S
C1049  C1290   1.388   .     S
C1050  H1070   1.078   .     S
C1050  C1324   1.385   .     S
Cu1051 N1089   2.021   .     S
Cu1051 O1100   1.945   .     S
Cu1051 O1097   1.954   .     S
Cu1051 O1104   1.938   .     S
Cu1051 O1101   1.950   .     S
Cu1052 O1099   1.945   .     S
Cu1052 O1098   1.954   .     S
Cu1052 N1090   2.021   .     S
Cu1052 O1103   1.938   .     S
Cu1052 O1102   1.950   .     S
Cu1052 Cu867   2.690   1_655 S
H1057  N1093   1.028   .     S
H1061  N1094   1.028   .     S
H1062  C858    1.110   1_655 S
H1065  C858    1.109   1_655 S
H1074  N1095   1.030   .     S
H1079  N1096   1.030   .     S
H1084  N1091   1.029   .     S
H1088  N1092   1.030   .     S
N1091  C845    1.426   1_655 S
N1094  C843    1.429   1_655 S
N1094  C858    1.448   1_655 S
O1099  C829    1.291   1_655 S
O1102  C838    1.299   1_655 S
C1105  O1189   1.293   .     A
C1105  C1108   1.437   .     S
C1105  O1375   1.291   1_455 S
C1106  H1163   1.083   .     S
C1106  C1108   1.398   .     A
C1107  C1116   1.439   .     S
C1107  C1142   1.394   .     A
C1107  C1233   1.399   .     S
C1108  C1324   1.397   1_455 S
C1109  C1111   1.426   .     A
C1109  H1164   1.081   .     S
C1109  N1182   1.359   .     A
C1110  N1181   1.356   .     A
C1110  H1165   1.081   .     S
C1110  C1112   1.422   .     A
C1111  N1187   1.423   .     S
C1111  N1181   1.381   .     A
C1112  N1182   1.380   .     A
C1112  N1188   1.419   .     S
C1113  O1195   1.303   .     A
C1113  C1115   1.481   .     S
C1113  O1285   1.299   .     S
C1114  O1196   1.303   .     A
C1114  C1117   1.478   .     S
C1114  O1378   1.299   1_455 S
C1115  C1122   1.396   .     A
C1115  C1120   1.414   .     A
C1116  O1190   1.297   .     A
C1116  O1284   1.287   .     S
C1117  C1123   1.393   .     A
C1117  C1121   1.415   .     A
C1118  C1120   1.417   .     A
C1118  C1126   1.419   .     A
C1118  N1277   1.430   .     S
C1119  C1128   1.418   .     A
C1119  C1121   1.419   .     A
C1119  N1370   1.429   1_455 S
C1120  N1276   1.426   .     S
C1121  N1367   1.426   1_455 S
C1122  H1156   1.072   .     S
C1122  C1124   1.401   .     A
C1123  C1125   1.400   .     A
C1123  H1145   1.078   .     S
C1124  C1129   1.432   .     A
C1124  C1126   1.421   .     A
C1125  C1130   1.423   .     A
C1125  C1128   1.414   .     A
C1126  C310    1.398   1_556 S
C1127  C1130   1.407   .     A
C1127  C1138   1.383   .     A
C1127  H1158   1.076   .     S
C1129  C1137   1.416   .     A
C1129  C302    1.419   1_556 S
C1131  N1183   1.447   .     S
C1131  H1178   1.113   .     S
C1131  H1179   1.110   .     S
C1131  H1177   1.110   .     S
C1132  H1148   1.112   .     S
C1132  H1147   1.110   .     S
C1132  H1146   1.108   .     S
C1132  N1184   1.447   .     S
C1133  H414    1.111   1_556 S
C1133  H1243   1.109   .     S
C1133  H324    1.109   1_556 S
C1133  N1277   1.449   .     S
C1134  H1155   1.110   .     S
C1134  H1338   1.110   1_455 S
C1134  H1341   1.109   1_455 S
C1134  N1370   1.448   1_455 S
C1135  H1170   1.107   .     S
C1135  N1187   1.448   .     S
C1135  H1169   1.111   .     S
C1135  H1168   1.110   .     S
C1136  H1172   1.109   .     S
C1136  N1188   1.451   .     S
C1136  H1174   1.108   .     S
C1136  H1173   1.111   .     S
C1137  H1159   1.075   .     S
C1137  C1139   1.389   .     A
C1138  H1167   1.082   .     S
C1139  H1175   1.083   .     S
C1139  C300    1.400   1_556 S
C1140  H1160   1.084   .     S
C1140  C1200   1.397   .     S
C1141  H1161   1.084   .     S
C1141  C1291   1.399   1_455 S
C1141  C1382   1.388   .     S
C1142  H1162   1.078   .     S
C1142  C1416   1.385   .     S
Cu1143 N1181   2.021   .     S
Cu1143 O1192   1.945   .     S
Cu1143 O1189   1.954   .     S
Cu1143 O1196   1.938   .     S
Cu1143 O1193   1.950   .     S
Cu1143 Cu1328  2.690   1_455 S
Cu1144 O1191   1.945   .     S
Cu1144 O1190   1.954   .     S
Cu1144 N1182   2.021   .     S
Cu1144 O1195   1.938   .     S
Cu1144 O1194   1.950   .     S
Cu1144 Cu1235  2.690   .     S
H1149  N1185   1.028   .     S
H1150  C489    1.111   1_455 S
H1151  C1317   1.109   1_455 S
H1153  N1186   1.028   .     S
H1154  C1226   1.110   .     S
H1157  C1226   1.109   .     S
H1166  N1187   1.030   .     S
H1171  N1188   1.030   .     S
H1176  N1183   1.029   .     S
H1180  N1184   1.030   .     S
N1183  C1213   1.426   .     S
N1184  C1304   1.426   1_455 S
N1185  C1317   1.449   1_455 S
N1185  C1302   1.430   1_455 S
N1186  C1211   1.429   .     S
N1186  C1226   1.448   .     S
O1191  C1197   1.291   .     S
O1192  C1300   1.287   1_455 S
O1193  C1297   1.299   1_455 S
O1194  C1206   1.299   .     S
C1197  O1281   1.293   .     A
C1197  C1200   1.437   .     S
C1198  H1255   1.083   .     S
C1198  C1200   1.398   .     A
C1199  C1208   1.439   .     S
C1199  C1234   1.394   .     A
C1199  C1325   1.399   .     S
C1201  C1203   1.426   .     A
C1201  H1256   1.081   .     S
C1201  N1274   1.359   .     A
C1202  N1273   1.356   .     A
C1202  H1257   1.081   .     S
C1202  C1204   1.422   .     A
C1203  N1279   1.423   .     S
C1203  N1273   1.381   .     A
C1204  N1274   1.380   .     A
C1204  N1280   1.419   .     S
C1205  O1287   1.303   .     A
C1205  C1207   1.481   .     S
C1205  O1377   1.299   .     S
C1206  O1288   1.303   .     A
C1206  C1209   1.478   .     S
C1207  C1214   1.396   .     A
C1207  C1212   1.414   .     A
C1208  O1282   1.297   .     A
C1208  O1376   1.287   .     S
C1209  C1215   1.393   .     A
C1209  C1213   1.415   .     A
C1210  C1212   1.417   .     A
C1210  C1218   1.419   .     A
C1210  N1369   1.430   .     S
C1211  C1220   1.418   .     A
C1211  C1213   1.419   .     A
C1212  N1368   1.426   .     S
C1214  H1248   1.072   .     S
C1214  C1216   1.401   .     A
C1215  C1217   1.400   .     A
C1215  H1237   1.078   .     S
C1216  C1221   1.432   .     A
C1216  C1218   1.421   .     A
C1217  C1222   1.423   .     A
C1217  C1220   1.414   .     A
C1218  C402    1.398   1_556 S
C1219  C1222   1.407   .     A
C1219  C1230   1.383   .     A
C1219  H1250   1.076   .     S
C1221  C1229   1.416   .     A
C1221  C394    1.419   1_556 S
C1223  N1275   1.447   .     S
C1223  H1270   1.113   .     S
C1223  H1271   1.110   .     S
C1223  H1269   1.110   .     S
C1224  H1240   1.112   .     S
C1224  H1239   1.110   .     S
C1224  H1238   1.108   .     S
C1224  N1276   1.447   .     S
C1225  H506    1.111   1_556 S
C1225  H1335   1.109   .     S
C1225  H416    1.109   1_556 S
C1225  N1369   1.449   .     S
C1226  H1247   1.110   .     S
C1227  H1262   1.107   .     S
C1227  N1279   1.448   .     S
C1227  H1261   1.111   .     S
C1227  H1260   1.110   .     S
C1228  H1264   1.109   .     S
C1228  N1280   1.451   .     S
C1228  H1266   1.108   .     S
C1228  H1265   1.111   .     S
C1229  H1251   1.075   .     S
C1229  C1231   1.389   .     A
C1230  H1259   1.082   .     S
C1231  H1267   1.083   .     S
C1231  C392    1.400   1_556 S
C1232  H1252   1.084   .     S
C1232  C1292   1.397   .     S
C1233  H1253   1.084   .     S
C1233  C1474   1.388   .     S
C1234  H1254   1.078   .     S
C1234  C1508   1.385   .     S
Cu1235 N1273   2.021   .     S
Cu1235 O1284   1.945   .     S
Cu1235 O1281   1.954   .     S
Cu1235 O1288   1.938   .     S
Cu1235 O1285   1.950   .     S
Cu1236 O1283   1.945   .     S
Cu1236 O1282   1.954   .     S
Cu1236 N1274   2.021   .     S
Cu1236 O1287   1.938   .     S
Cu1236 O1286   1.950   .     S
Cu1236 Cu1327  2.690   .     S
H1241  N1277   1.028   .     S
H1245  N1278   1.028   .     S
H1246  C1318   1.110   .     S
H1249  C1318   1.109   .     S
H1258  N1279   1.030   .     S
H1263  N1280   1.030   .     S
H1268  N1275   1.029   .     S
H1272  N1276   1.030   .     S
N1275  C1305   1.426   .     S
N1278  C1303   1.429   .     S
N1278  C1318   1.448   .     S
O1283  C1289   1.291   .     S
O1286  C1298   1.299   .     S
C1289  O1373   1.293   .     A
C1289  C1292   1.437   .     S
C1290  H1347   1.083   .     S
C1290  C1292   1.398   .     A
C1291  C1300   1.439   .     S
C1291  C1326   1.394   .     A
C1291  C1141   1.399   1_655 S
C1293  C1295   1.426   .     A
C1293  H1348   1.081   .     S
C1293  N1366   1.359   .     A
C1294  N1365   1.356   .     A
C1294  H1349   1.081   .     S
C1294  C1296   1.422   .     A
C1295  N1371   1.423   .     S
C1295  N1365   1.381   .     A
C1296  N1366   1.380   .     A
C1296  N1372   1.419   .     S
C1297  O1379   1.303   .     A
C1297  C1299   1.481   .     S
C1297  O1193   1.299   1_655 S
C1298  O1380   1.303   .     A
C1298  C1301   1.478   .     S
C1299  C1306   1.396   .     A
C1299  C1304   1.414   .     A
C1300  O1374   1.297   .     A
C1300  O1192   1.287   1_655 S
C1301  C1307   1.393   .     A
C1301  C1305   1.415   .     A
C1302  C1304   1.417   .     A
C1302  C1310   1.419   .     A
C1302  N1185   1.430   1_655 S
C1303  C1312   1.418   .     A
C1303  C1305   1.419   .     A
C1304  N1184   1.426   1_655 S
C1306  H1340   1.072   .     S
C1306  C1308   1.401   .     A
C1307  C1309   1.400   .     A
C1307  H1329   1.078   .     S
C1308  C1313   1.432   .     A
C1308  C1310   1.421   .     A
C1309  C1314   1.423   .     A
C1309  C1312   1.414   .     A
C1310  C494    1.398   1_556 S
C1311  C1314   1.407   .     A
C1311  C1322   1.383   .     A
C1311  H1342   1.076   .     S
C1313  C1321   1.416   .     A
C1313  C486    1.419   1_556 S
C1315  N1367   1.447   .     S
C1315  H1362   1.113   .     S
C1315  H1363   1.110   .     S
C1315  H1361   1.110   .     S
C1316  H1332   1.112   .     S
C1316  H1331   1.110   .     S
C1316  H1330   1.108   .     S
C1316  N1368   1.447   .     S
C1317  H322    1.111   1_656 S
C1317  H1151   1.109   1_655 S
C1317  H508    1.109   1_556 S
C1317  N1185   1.449   1_655 S
C1318  H1339   1.110   .     S
C1319  H1354   1.107   .     S
C1319  N1371   1.448   .     S
C1319  H1353   1.111   .     S
C1319  H1352   1.110   .     S
C1320  H1356   1.109   .     S
C1320  N1372   1.451   .     S
C1320  H1358   1.108   .     S
C1320  H1357   1.111   .     S
C1321  H1343   1.075   .     S
C1321  C1323   1.389   .     A
C1322  H1351   1.082   .     S
C1323  H1359   1.083   .     S
C1323  C484    1.400   1_556 S
C1324  H1344   1.084   .     S
C1324  C1108   1.397   1_655 S
C1325  H1345   1.084   .     S
C1325  C1566   1.388   .     S
C1326  H1346   1.078   .     S
C1326  C1600   1.385   .     S
Cu1327 N1365   2.021   .     S
Cu1327 O1376   1.945   .     S
Cu1327 O1373   1.954   .     S
Cu1327 O1380   1.938   .     S
Cu1327 O1377   1.950   .     S
Cu1328 O1375   1.945   .     S
Cu1328 O1374   1.954   .     S
Cu1328 N1366   2.021   .     S
Cu1328 O1379   1.938   .     S
Cu1328 O1378   1.950   .     S
Cu1328 Cu1143  2.690   1_655 S
H1333  N1369   1.028   .     S
H1337  N1370   1.028   .     S
H1338  C1134   1.110   1_655 S
H1341  C1134   1.109   1_655 S
H1350  N1371   1.030   .     S
H1355  N1372   1.030   .     S
H1360  N1367   1.029   .     S
H1364  N1368   1.030   .     S
N1367  C1121   1.426   1_655 S
N1370  C1119   1.429   1_655 S
N1370  C1134   1.448   1_655 S
O1375  C1105   1.291   1_655 S
O1378  C1114   1.299   1_655 S
C1381  O1465   1.293   .     A
C1381  C1384   1.437   .     S
C1381  O1651   1.291   1_455 S
C1382  H1439   1.083   .     S
C1382  C1384   1.398   .     A
C1383  C1392   1.439   .     S
C1383  C1418   1.394   .     A
C1383  C1509   1.399   .     S
C1384  C1600   1.397   1_455 S
C1385  C1387   1.426   .     A
C1385  H1440   1.081   .     S
C1385  N1458   1.359   .     A
C1386  N1457   1.356   .     A
C1386  H1441   1.081   .     S
C1386  C1388   1.422   .     A
C1387  N1463   1.423   .     S
C1387  N1457   1.381   .     A
C1388  N1458   1.380   .     A
C1388  N1464   1.419   .     S
C1389  O1471   1.303   .     A
C1389  C1391   1.481   .     S
C1389  O1561   1.299   .     S
C1390  O1472   1.303   .     A
C1390  C1393   1.478   .     S
C1390  O1654   1.299   1_455 S
C1391  C1398   1.396   .     A
C1391  C1396   1.414   .     A
C1392  O1466   1.297   .     A
C1392  O1560   1.287   .     S
C1393  C1399   1.393   .     A
C1393  C1397   1.415   .     A
C1394  C1396   1.417   .     A
C1394  C1402   1.419   .     A
C1394  N1553   1.430   .     S
C1395  C1404   1.418   .     A
C1395  C1397   1.419   .     A
C1395  N1646   1.429   1_455 S
C1396  N1552   1.426   .     S
C1397  N1643   1.426   1_455 S
C1398  H1432   1.072   .     S
C1398  C1400   1.401   .     A
C1399  C1401   1.400   .     A
C1399  H1421   1.078   .     S
C1400  C1405   1.432   .     A
C1400  C1402   1.421   .     A
C1401  C1406   1.423   .     A
C1401  C1404   1.414   .     A
C1402  C586    1.398   1_556 S
C1403  C1406   1.407   .     A
C1403  C1414   1.383   .     A
C1403  H1434   1.076   .     S
C1405  C1413   1.416   .     A
C1405  C578    1.419   1_556 S
C1407  N1459   1.447   .     S
C1407  H1454   1.113   .     S
C1407  H1455   1.110   .     S
C1407  H1453   1.110   .     S
C1408  H1424   1.112   .     S
C1408  H1423   1.110   .     S
C1408  H1422   1.108   .     S
C1408  N1460   1.447   .     S
C1409  H690    1.111   1_556 S
C1409  H1519   1.109   .     S
C1409  H600    1.109   1_556 S
C1409  N1553   1.449   .     S
C1410  H1431   1.110   .     S
C1410  H1614   1.110   1_455 S
C1410  H1617   1.109   1_455 S
C1410  N1646   1.448   1_455 S
C1411  H1446   1.107   .     S
C1411  N1463   1.448   .     S
C1411  H1445   1.111   .     S
C1411  H1444   1.110   .     S
C1412  H1448   1.109   .     S
C1412  N1464   1.451   .     S
C1412  H1450   1.108   .     S
C1412  H1449   1.111   .     S
C1413  H1435   1.075   .     S
C1413  C1415   1.389   .     A
C1414  H1443   1.082   .     S
C1415  H1451   1.083   .     S
C1415  C576    1.400   1_556 S
C1416  H1436   1.084   .     S
C1416  C1476   1.397   .     S
C1417  H1437   1.084   .     S
C1417  C1567   1.399   1_455 S
C1417  C830    1.388   1_565 S
C1418  H1438   1.078   .     S
C1418  C864    1.385   1_565 S
Cu1419 N1457   2.021   .     S
Cu1419 O1468   1.945   .     S
Cu1419 O1465   1.954   .     S
Cu1419 O1472   1.938   .     S
Cu1419 O1469   1.950   .     S
Cu1419 Cu1604  2.690   1_455 S
Cu1420 O1467   1.945   .     S
Cu1420 O1466   1.954   .     S
Cu1420 N1458   2.021   .     S
Cu1420 O1471   1.938   .     S
Cu1420 O1470   1.950   .     S
Cu1420 Cu1511  2.690   .     S
H1425  N1461   1.028   .     S
H1426  C765    1.111   1_455 S
H1427  C1593   1.109   1_455 S
H1429  N1462   1.028   .     S
H1430  C1502   1.110   .     S
H1433  C1502   1.109   .     S
H1442  N1463   1.030   .     S
H1447  N1464   1.030   .     S
H1452  N1459   1.029   .     S
H1456  N1460   1.030   .     S
N1459  C1489   1.426   .     S
N1460  C1580   1.426   1_455 S
N1461  C1593   1.449   1_455 S
N1461  C1578   1.430   1_455 S
N1462  C1487   1.429   .     S
N1462  C1502   1.448   .     S
O1467  C1473   1.291   .     S
O1468  C1576   1.287   1_455 S
O1469  C1573   1.299   1_455 S
O1470  C1482   1.299   .     S
C1473  O1557   1.293   .     A
C1473  C1476   1.437   .     S
C1474  H1531   1.083   .     S
C1474  C1476   1.398   .     A
C1475  C1484   1.439   .     S
C1475  C1510   1.394   .     A
C1475  C1601   1.399   .     S
C1477  C1479   1.426   .     A
C1477  H1532   1.081   .     S
C1477  N1550   1.359   .     A
C1478  N1549   1.356   .     A
C1478  H1533   1.081   .     S
C1478  C1480   1.422   .     A
C1479  N1555   1.423   .     S
C1479  N1549   1.381   .     A
C1480  N1550   1.380   .     A
C1480  N1556   1.419   .     S
C1481  O1563   1.303   .     A
C1481  C1483   1.481   .     S
C1481  O1653   1.299   .     S
C1482  O1564   1.303   .     A
C1482  C1485   1.478   .     S
C1483  C1490   1.396   .     A
C1483  C1488   1.414   .     A
C1484  O1558   1.297   .     A
C1484  O1652   1.287   .     S
C1485  C1491   1.393   .     A
C1485  C1489   1.415   .     A
C1486  C1488   1.417   .     A
C1486  C1494   1.419   .     A
C1486  N1645   1.430   .     S
C1487  C1496   1.418   .     A
C1487  C1489   1.419   .     A
C1488  N1644   1.426   .     S
C1490  H1524   1.072   .     S
C1490  C1492   1.401   .     A
C1491  C1493   1.400   .     A
C1491  H1513   1.078   .     S
C1492  C1497   1.432   .     A
C1492  C1494   1.421   .     A
C1493  C1498   1.423   .     A
C1493  C1496   1.414   .     A
C1494  C678    1.398   1_556 S
C1495  C1498   1.407   .     A
C1495  C1506   1.383   .     A
C1495  H1526   1.076   .     S
C1497  C1505   1.416   .     A
C1497  C670    1.419   1_556 S
C1499  N1551   1.447   .     S
C1499  H1546   1.113   .     S
C1499  H1547   1.110   .     S
C1499  H1545   1.110   .     S
C1500  H1516   1.112   .     S
C1500  H1515   1.110   .     S
C1500  H1514   1.108   .     S
C1500  N1552   1.447   .     S
C1501  H782    1.111   1_556 S
C1501  H1611   1.109   .     S
C1501  H692    1.109   1_556 S
C1501  N1645   1.449   .     S
C1502  H1523   1.110   .     S
C1503  H1538   1.107   .     S
C1503  N1555   1.448   .     S
C1503  H1537   1.111   .     S
C1503  H1536   1.110   .     S
C1504  H1540   1.109   .     S
C1504  N1556   1.451   .     S
C1504  H1542   1.108   .     S
C1504  H1541   1.111   .     S
C1505  H1527   1.075   .     S
C1505  C1507   1.389   .     A
C1506  H1535   1.082   .     S
C1507  H1543   1.083   .     S
C1507  C668    1.400   1_556 S
C1508  H1528   1.084   .     S
C1508  C1568   1.397   .     S
C1509  H1529   1.084   .     S
C1509  C922    1.388   1_565 S
C1510  H1530   1.078   .     S
C1510  C956    1.385   1_565 S
Cu1511 N1549   2.021   .     S
Cu1511 O1560   1.945   .     S
Cu1511 O1557   1.954   .     S
Cu1511 O1564   1.938   .     S
Cu1511 O1561   1.950   .     S
Cu1512 O1559   1.945   .     S
Cu1512 O1558   1.954   .     S
Cu1512 N1550   2.021   .     S
Cu1512 O1563   1.938   .     S
Cu1512 O1562   1.950   .     S
Cu1512 Cu1603  2.690   .     S
H1517  N1553   1.028   .     S
H1521  N1554   1.028   .     S
H1522  C1594   1.110   .     S
H1525  C1594   1.109   .     S
H1534  N1555   1.030   .     S
H1539  N1556   1.030   .     S
H1544  N1551   1.029   .     S
H1548  N1552   1.030   .     S
N1551  C1581   1.426   .     S
N1554  C1579   1.429   .     S
N1554  C1594   1.448   .     S
O1559  C1565   1.291   .     S
O1562  C1574   1.299   .     S
C1565  O1649   1.293   .     A
C1565  C1568   1.437   .     S
C1566  H1623   1.083   .     S
C1566  C1568   1.398   .     A
C1567  C1576   1.439   .     S
C1567  C1602   1.394   .     A
C1567  C1417   1.399   1_655 S
C1569  C1571   1.426   .     A
C1569  H1624   1.081   .     S
C1569  N1642   1.359   .     A
C1570  N1641   1.356   .     A
C1570  H1625   1.081   .     S
C1570  C1572   1.422   .     A
C1571  N1647   1.423   .     S
C1571  N1641   1.381   .     A
C1572  N1642   1.380   .     A
C1572  N1648   1.419   .     S
C1573  O1655   1.303   .     A
C1573  C1575   1.481   .     S
C1573  O1469   1.299   1_655 S
C1574  O1656   1.303   .     A
C1574  C1577   1.478   .     S
C1575  C1582   1.396   .     A
C1575  C1580   1.414   .     A
C1576  O1650   1.297   .     A
C1576  O1468   1.287   1_655 S
C1577  C1583   1.393   .     A
C1577  C1581   1.415   .     A
C1578  C1580   1.417   .     A
C1578  C1586   1.419   .     A
C1578  N1461   1.430   1_655 S
C1579  C1588   1.418   .     A
C1579  C1581   1.419   .     A
C1580  N1460   1.426   1_655 S
C1582  H1616   1.072   .     S
C1582  C1584   1.401   .     A
C1583  C1585   1.400   .     A
C1583  H1605   1.078   .     S
C1584  C1589   1.432   .     A
C1584  C1586   1.421   .     A
C1585  C1590   1.423   .     A
C1585  C1588   1.414   .     A
C1586  C770    1.398   1_556 S
C1587  C1590   1.407   .     A
C1587  C1598   1.383   .     A
C1587  H1618   1.076   .     S
C1589  C1597   1.416   .     A
C1589  C762    1.419   1_556 S
C1591  N1643   1.447   .     S
C1591  H1638   1.113   .     S
C1591  H1639   1.110   .     S
C1591  H1637   1.110   .     S
C1592  H1608   1.112   .     S
C1592  H1607   1.110   .     S
C1592  H1606   1.108   .     S
C1592  N1644   1.447   .     S
C1593  H598    1.111   1_656 S
C1593  H1427   1.109   1_655 S
C1593  H784    1.109   1_556 S
C1593  N1461   1.449   1_655 S
C1594  H1615   1.110   .     S
C1595  H1630   1.107   .     S
C1595  N1647   1.448   .     S
C1595  H1629   1.111   .     S
C1595  H1628   1.110   .     S
C1596  H1632   1.109   .     S
C1596  N1648   1.451   .     S
C1596  H1634   1.108   .     S
C1596  H1633   1.111   .     S
C1597  H1619   1.075   .     S
C1597  C1599   1.389   .     A
C1598  H1627   1.082   .     S
C1599  H1635   1.083   .     S
C1599  C760    1.400   1_556 S
C1600  H1620   1.084   .     S
C1600  C1384   1.397   1_655 S
C1601  H1621   1.084   .     S
C1601  C1014   1.388   1_565 S
C1602  H1622   1.078   .     S
C1602  C1048   1.385   1_565 S
Cu1603 N1641   2.021   .     S
Cu1603 O1652   1.945   .     S
Cu1603 O1649   1.954   .     S
Cu1603 O1656   1.938   .     S
Cu1603 O1653   1.950   .     S
Cu1604 O1651   1.945   .     S
Cu1604 O1650   1.954   .     S
Cu1604 N1642   2.021   .     S
Cu1604 O1655   1.938   .     S
Cu1604 O1654   1.950   .     S
Cu1604 Cu1419  2.690   1_655 S
H1609  N1645   1.028   .     S
H1613  N1646   1.028   .     S
H1614  C1410   1.110   1_655 S
H1617  C1410   1.109   1_655 S
H1626  N1647   1.030   .     S
H1631  N1648   1.030   .     S
H1636  N1643   1.029   .     S
H1640  N1644   1.030   .     S
N1643  C1397   1.426   1_655 S
N1646  C1395   1.429   1_655 S
N1646  C1410   1.448   1_655 S
O1651  C1381   1.291   1_655 S
O1654  C1390   1.299   1_655 S
