data_str_m2_o2_o10_pcu_sym.35
_audit_creation_date              2020-01-03
_audit_creation_method            'Materials Studio'
_symmetry_space_group_name_H-M    'P1'
_symmetry_Int_Tables_number       1
_symmetry_cell_setting            triclinic
loop_
_symmetry_equiv_pos_as_xyz
  x,y,z
_cell_length_a                    26.3250
_cell_length_b                    30.1956
_cell_length_c                    27.8211
_cell_angle_alpha                 92.2040
_cell_angle_beta                  97.1465
_cell_angle_gamma                 90.5825
loop_
_atom_site_label
_atom_site_type_symbol
_atom_site_fract_x
_atom_site_fract_y
_atom_site_fract_z
_atom_site_U_iso_or_equiv
_atom_site_adp_type
_atom_site_occupancy
C1     C     0.16734   0.16494   0.24907   0.00000  Uiso   1.00
C2     C     0.18937   0.28575   0.44983   0.00000  Uiso   1.00
C3     C     0.16993   0.24762   0.02778   0.00000  Uiso   1.00
C4     C     0.16340   0.25238   0.47222   0.00000  Uiso   1.00
C5     C     0.06818   0.25043   0.23807   0.00000  Uiso   1.00
C6     C     0.26516   0.24957   0.26193   0.00000  Uiso   1.00
C7     C     0.01415   0.25761   0.23332   0.00000  Uiso   1.00
C8     C     0.31919   0.24239   0.26668   0.00000  Uiso   1.00
C9     C     0.12654   0.04905   0.26968   0.00000  Uiso   1.00
C10    C     0.20678   0.45096   0.23037   0.00000  Uiso   1.00
C11    C     0.13154   0.09501   0.27296   0.00000  Uiso   1.00
C12    C     0.16599   0.33506   0.25093   0.00000  Uiso   1.00
C13    C     0.20179   0.40500   0.22708   0.00000  Uiso   1.00
C14    C     0.16494   0.11655   0.24595   0.00000  Uiso   1.00
C15    C     0.16837   0.38345   0.25405   0.00000  Uiso   1.00
C16    C     0.18815   0.09189   0.21073   0.00000  Uiso   1.00
C17    C     0.14512   0.40809   0.28925   0.00000  Uiso   1.00
C18    C     0.18177   0.04575   0.20742   0.00000  Uiso   1.00
C19    C     0.15148   0.45424   0.29258   0.00000  Uiso   1.00
C20    C     0.16089   0.02391   0.24474   0.00000  Uiso   1.00
C21    C     0.17239   0.47609   0.25529   0.00000  Uiso   1.00
C22    C     0.10512   0.18845   0.12017   0.00000  Uiso   1.00
C23    C     0.20618   0.27283   0.06050   0.00000  Uiso   1.00
C24    C     0.22821   0.31155   0.37983   0.00000  Uiso   1.00
C25    C     0.12716   0.22717   0.43950   0.00000  Uiso   1.00
C26    C     0.20130   0.27565   0.11035   0.00000  Uiso   1.00
C27    C     0.13204   0.22435   0.38965   0.00000  Uiso   1.00
C28    C     0.13861   0.21881   0.10002   0.00000  Uiso   1.00
C29    C     0.19473   0.28119   0.39998   0.00000  Uiso   1.00
C30    C     0.14396   0.21425   0.05017   0.00000  Uiso   1.00
Cl31   Cl    0.32441   0.29450   0.18788   0.00000  Uiso   1.00
Cl32   Cl    0.06595   0.21291   0.45435   0.00000  Uiso   1.00
Cl33   Cl    0.13715   0.15987   0.02349   0.00000  Uiso   1.00
Cl34   Cl    0.19618   0.34013   0.47651   0.00000  Uiso   1.00
Cl35   Cl    0.00892   0.20550   0.31212   0.00000  Uiso   1.00
Cl36   Cl    0.06780   0.02682   0.28306   0.00000  Uiso   1.00
Cl37   Cl    0.26551   0.47322   0.21700   0.00000  Uiso   1.00
Cl38   Cl    0.22508   0.11751   0.17030   0.00000  Uiso   1.00
Cl39   Cl    0.10814   0.38246   0.32964   0.00000  Uiso   1.00
Cl40   Cl    0.18306   0.01902   0.14977   0.00000  Uiso   1.00
Cl41   Cl    0.15018   0.48094   0.35024   0.00000  Uiso   1.00
Cl42   Cl    0.26738   0.28709   0.04565   0.00000  Uiso   1.00
Cu43   Cu    0.16667   0.24999   0.29821   0.00000  Uiso   1.00
Cu44   Cu    0.16667   0.25000   0.20178   0.00000  Uiso   1.00
H45    H     0.10658   0.11412   0.29375   0.00000  Uiso   1.00
H46    H     0.22678   0.38590   0.20631   0.00000  Uiso   1.00
H47    H     0.22781   0.29610   0.13454   0.00000  Uiso   1.00
H48    H     0.10552   0.20390   0.36546   0.00000  Uiso   1.00
N49    N     0.16667   0.25001   0.12934   0.00000  Uiso   1.00
N50    N     0.16667   0.24999   0.37065   0.00000  Uiso   1.00
N51    N     0.07800   0.16397   0.13592   0.00000  Uiso   1.00
N52    N     0.25533   0.33604   0.36408   0.00000  Uiso   1.00
O53    O     0.16667   0.18572   0.29071   0.00000  Uiso   1.00
O54    O     0.16666   0.31427   0.20928   0.00000  Uiso   1.00
O55    O     0.16667   0.18573   0.20928   0.00000  Uiso   1.00
O56    O     0.16666   0.31427   0.29072   0.00000  Uiso   1.00
O57    O     0.09161   0.24999   0.28132   0.00000  Uiso   1.00
O58    O     0.24172   0.25000   0.21868   0.00000  Uiso   1.00
O59    O     0.09161   0.25000   0.19989   0.00000  Uiso   1.00
O60    O     0.24172   0.25000   0.30011   0.00000  Uiso   1.00
C61    C     0.50067   0.16494   0.24907   0.00000  Uiso   1.00
C62    C     0.52271   0.28575   0.44983   0.00000  Uiso   1.00
C63    C     0.50327   0.24762   0.02778   0.00000  Uiso   1.00
C64    C     0.49673   0.25238   0.47222   0.00000  Uiso   1.00
C65    C     0.40151   0.25043   0.23807   0.00000  Uiso   1.00
C66    C     0.59849   0.24957   0.26193   0.00000  Uiso   1.00
C67    C     0.34748   0.25761   0.23332   0.00000  Uiso   1.00
C68    C     0.65252   0.24239   0.26668   0.00000  Uiso   1.00
C69    C     0.45987   0.04905   0.26968   0.00000  Uiso   1.00
C70    C     0.54011   0.45096   0.23037   0.00000  Uiso   1.00
C71    C     0.46487   0.09501   0.27296   0.00000  Uiso   1.00
C72    C     0.49932   0.33506   0.25093   0.00000  Uiso   1.00
C73    C     0.53513   0.40500   0.22708   0.00000  Uiso   1.00
C74    C     0.49827   0.11655   0.24595   0.00000  Uiso   1.00
C75    C     0.50171   0.38345   0.25405   0.00000  Uiso   1.00
C76    C     0.52148   0.09189   0.21073   0.00000  Uiso   1.00
C77    C     0.47845   0.40809   0.28925   0.00000  Uiso   1.00
C78    C     0.51511   0.04575   0.20742   0.00000  Uiso   1.00
C79    C     0.48481   0.45424   0.29258   0.00000  Uiso   1.00
C80    C     0.49423   0.02391   0.24474   0.00000  Uiso   1.00
C81    C     0.50572   0.47609   0.25529   0.00000  Uiso   1.00
C82    C     0.43845   0.18845   0.12017   0.00000  Uiso   1.00
C83    C     0.53951   0.27283   0.06050   0.00000  Uiso   1.00
C84    C     0.56155   0.31155   0.37983   0.00000  Uiso   1.00
C85    C     0.46049   0.22717   0.43950   0.00000  Uiso   1.00
C86    C     0.53463   0.27565   0.11035   0.00000  Uiso   1.00
C87    C     0.46537   0.22435   0.38965   0.00000  Uiso   1.00
C88    C     0.47194   0.21881   0.10002   0.00000  Uiso   1.00
C89    C     0.52806   0.28119   0.39998   0.00000  Uiso   1.00
C90    C     0.47729   0.21425   0.05017   0.00000  Uiso   1.00
Cl91   Cl    0.65775   0.29450   0.18788   0.00000  Uiso   1.00
Cl92   Cl    0.39928   0.21291   0.45435   0.00000  Uiso   1.00
Cl93   Cl    0.47048   0.15987   0.02349   0.00000  Uiso   1.00
Cl94   Cl    0.52951   0.34013   0.47651   0.00000  Uiso   1.00
Cl95   Cl    0.34225   0.20550   0.31212   0.00000  Uiso   1.00
Cl96   Cl    0.40113   0.02682   0.28306   0.00000  Uiso   1.00
Cl97   Cl    0.59884   0.47322   0.21700   0.00000  Uiso   1.00
Cl98   Cl    0.55842   0.11751   0.17030   0.00000  Uiso   1.00
Cl99   Cl    0.44147   0.38246   0.32964   0.00000  Uiso   1.00
Cl100  Cl    0.51640   0.01902   0.14977   0.00000  Uiso   1.00
Cl101  Cl    0.48352   0.48094   0.35024   0.00000  Uiso   1.00
Cl102  Cl    0.60072   0.28709   0.04565   0.00000  Uiso   1.00
Cu103  Cu    0.50000   0.24999   0.29821   0.00000  Uiso   1.00
Cu104  Cu    0.50000   0.25000   0.20178   0.00000  Uiso   1.00
H105   H     0.43992   0.11412   0.29375   0.00000  Uiso   1.00
H106   H     0.56011   0.38590   0.20631   0.00000  Uiso   1.00
H107   H     0.56115   0.29610   0.13454   0.00000  Uiso   1.00
H108   H     0.43885   0.20390   0.36546   0.00000  Uiso   1.00
N109   N     0.50000   0.25001   0.12934   0.00000  Uiso   1.00
N110   N     0.50000   0.24999   0.37065   0.00000  Uiso   1.00
N111   N     0.41133   0.16397   0.13592   0.00000  Uiso   1.00
N112   N     0.58866   0.33604   0.36408   0.00000  Uiso   1.00
O113   O     0.50000   0.18572   0.29071   0.00000  Uiso   1.00
O114   O     0.50000   0.31427   0.20928   0.00000  Uiso   1.00
O115   O     0.50000   0.18573   0.20928   0.00000  Uiso   1.00
O116   O     0.50000   0.31427   0.29072   0.00000  Uiso   1.00
O117   O     0.42495   0.24999   0.28132   0.00000  Uiso   1.00
O118   O     0.57505   0.25000   0.21868   0.00000  Uiso   1.00
O119   O     0.42495   0.25000   0.19989   0.00000  Uiso   1.00
O120   O     0.57505   0.25000   0.30011   0.00000  Uiso   1.00
C121   C     0.83401   0.16494   0.24907   0.00000  Uiso   1.00
C122   C     0.85604   0.28575   0.44983   0.00000  Uiso   1.00
C123   C     0.83660   0.24762   0.02778   0.00000  Uiso   1.00
C124   C     0.83007   0.25238   0.47222   0.00000  Uiso   1.00
C125   C     0.73484   0.25043   0.23807   0.00000  Uiso   1.00
C126   C     0.93182   0.24957   0.26193   0.00000  Uiso   1.00
C127   C     0.68081   0.25761   0.23332   0.00000  Uiso   1.00
C128   C     0.98585   0.24239   0.26668   0.00000  Uiso   1.00
C129   C     0.79320   0.04905   0.26968   0.00000  Uiso   1.00
C130   C     0.87344   0.45096   0.23037   0.00000  Uiso   1.00
C131   C     0.79821   0.09501   0.27296   0.00000  Uiso   1.00
C132   C     0.83265   0.33506   0.25093   0.00000  Uiso   1.00
C133   C     0.86846   0.40500   0.22708   0.00000  Uiso   1.00
C134   C     0.83160   0.11655   0.24595   0.00000  Uiso   1.00
C135   C     0.83504   0.38345   0.25405   0.00000  Uiso   1.00
C136   C     0.85481   0.09189   0.21073   0.00000  Uiso   1.00
C137   C     0.81178   0.40809   0.28925   0.00000  Uiso   1.00
C138   C     0.84844   0.04575   0.20742   0.00000  Uiso   1.00
C139   C     0.81815   0.45424   0.29258   0.00000  Uiso   1.00
C140   C     0.82756   0.02391   0.24474   0.00000  Uiso   1.00
C141   C     0.83905   0.47609   0.25529   0.00000  Uiso   1.00
C142   C     0.77178   0.18845   0.12017   0.00000  Uiso   1.00
C143   C     0.87284   0.27283   0.06050   0.00000  Uiso   1.00
C144   C     0.89488   0.31155   0.37983   0.00000  Uiso   1.00
C145   C     0.79382   0.22717   0.43950   0.00000  Uiso   1.00
C146   C     0.86796   0.27565   0.11035   0.00000  Uiso   1.00
C147   C     0.79870   0.22435   0.38965   0.00000  Uiso   1.00
C148   C     0.80527   0.21881   0.10002   0.00000  Uiso   1.00
C149   C     0.86139   0.28119   0.39998   0.00000  Uiso   1.00
C150   C     0.81063   0.21425   0.05017   0.00000  Uiso   1.00
Cl151  Cl    0.99108   0.29450   0.18788   0.00000  Uiso   1.00
Cl152  Cl    0.73262   0.21291   0.45435   0.00000  Uiso   1.00
Cl153  Cl    0.80382   0.15987   0.02349   0.00000  Uiso   1.00
Cl154  Cl    0.86285   0.34013   0.47651   0.00000  Uiso   1.00
Cl155  Cl    0.67559   0.20550   0.31212   0.00000  Uiso   1.00
Cl156  Cl    0.73447   0.02682   0.28306   0.00000  Uiso   1.00
Cl157  Cl    0.93217   0.47322   0.21700   0.00000  Uiso   1.00
Cl158  Cl    0.89175   0.11751   0.17030   0.00000  Uiso   1.00
Cl159  Cl    0.77480   0.38246   0.32964   0.00000  Uiso   1.00
Cl160  Cl    0.84973   0.01902   0.14977   0.00000  Uiso   1.00
Cl161  Cl    0.81685   0.48094   0.35024   0.00000  Uiso   1.00
Cl162  Cl    0.93405   0.28709   0.04565   0.00000  Uiso   1.00
Cu163  Cu    0.83333   0.24999   0.29821   0.00000  Uiso   1.00
Cu164  Cu    0.83333   0.25000   0.20178   0.00000  Uiso   1.00
H165   H     0.77325   0.11412   0.29375   0.00000  Uiso   1.00
H166   H     0.89345   0.38590   0.20631   0.00000  Uiso   1.00
H167   H     0.89448   0.29610   0.13454   0.00000  Uiso   1.00
H168   H     0.77219   0.20390   0.36546   0.00000  Uiso   1.00
N169   N     0.83333   0.25001   0.12934   0.00000  Uiso   1.00
N170   N     0.83333   0.24999   0.37065   0.00000  Uiso   1.00
N171   N     0.74467   0.16397   0.13592   0.00000  Uiso   1.00
N172   N     0.92200   0.33604   0.36408   0.00000  Uiso   1.00
O173   O     0.83334   0.18572   0.29071   0.00000  Uiso   1.00
O174   O     0.83333   0.31427   0.20928   0.00000  Uiso   1.00
O175   O     0.83334   0.18573   0.20928   0.00000  Uiso   1.00
O176   O     0.83333   0.31427   0.29072   0.00000  Uiso   1.00
O177   O     0.75828   0.24999   0.28132   0.00000  Uiso   1.00
O178   O     0.90839   0.25000   0.21868   0.00000  Uiso   1.00
O179   O     0.75828   0.25000   0.19989   0.00000  Uiso   1.00
O180   O     0.90839   0.25000   0.30011   0.00000  Uiso   1.00
C181   C     0.16734   0.66494   0.24907   0.00000  Uiso   1.00
C182   C     0.18937   0.78575   0.44983   0.00000  Uiso   1.00
C183   C     0.16993   0.74762   0.02778   0.00000  Uiso   1.00
C184   C     0.16340   0.75238   0.47222   0.00000  Uiso   1.00
C185   C     0.06818   0.75043   0.23807   0.00000  Uiso   1.00
C186   C     0.26516   0.74957   0.26193   0.00000  Uiso   1.00
C187   C     0.01415   0.75761   0.23332   0.00000  Uiso   1.00
C188   C     0.31919   0.74239   0.26668   0.00000  Uiso   1.00
C189   C     0.12654   0.54905   0.26968   0.00000  Uiso   1.00
C190   C     0.20678   0.95096   0.23037   0.00000  Uiso   1.00
C191   C     0.13154   0.59501   0.27296   0.00000  Uiso   1.00
C192   C     0.16599   0.83506   0.25093   0.00000  Uiso   1.00
C193   C     0.20179   0.90500   0.22708   0.00000  Uiso   1.00
C194   C     0.16494   0.61655   0.24595   0.00000  Uiso   1.00
C195   C     0.16837   0.88345   0.25405   0.00000  Uiso   1.00
C196   C     0.18815   0.59189   0.21073   0.00000  Uiso   1.00
C197   C     0.14512   0.90809   0.28925   0.00000  Uiso   1.00
C198   C     0.18177   0.54575   0.20742   0.00000  Uiso   1.00
C199   C     0.15148   0.95424   0.29258   0.00000  Uiso   1.00
C200   C     0.16089   0.52391   0.24474   0.00000  Uiso   1.00
C201   C     0.17239   0.97609   0.25529   0.00000  Uiso   1.00
C202   C     0.10512   0.68845   0.12017   0.00000  Uiso   1.00
C203   C     0.20618   0.77283   0.06050   0.00000  Uiso   1.00
C204   C     0.22821   0.81155   0.37983   0.00000  Uiso   1.00
C205   C     0.12716   0.72717   0.43950   0.00000  Uiso   1.00
C206   C     0.20130   0.77565   0.11035   0.00000  Uiso   1.00
C207   C     0.13204   0.72435   0.38965   0.00000  Uiso   1.00
C208   C     0.13861   0.71881   0.10002   0.00000  Uiso   1.00
C209   C     0.19473   0.78119   0.39998   0.00000  Uiso   1.00
C210   C     0.14396   0.71425   0.05017   0.00000  Uiso   1.00
Cl211  Cl    0.32441   0.79450   0.18788   0.00000  Uiso   1.00
Cl212  Cl    0.06595   0.71291   0.45435   0.00000  Uiso   1.00
Cl213  Cl    0.13715   0.65987   0.02349   0.00000  Uiso   1.00
Cl214  Cl    0.19618   0.84013   0.47651   0.00000  Uiso   1.00
Cl215  Cl    0.00892   0.70550   0.31212   0.00000  Uiso   1.00
Cl216  Cl    0.06780   0.52682   0.28306   0.00000  Uiso   1.00
Cl217  Cl    0.26551   0.97322   0.21700   0.00000  Uiso   1.00
Cl218  Cl    0.22508   0.61751   0.17030   0.00000  Uiso   1.00
Cl219  Cl    0.10814   0.88246   0.32964   0.00000  Uiso   1.00
Cl220  Cl    0.18306   0.51902   0.14977   0.00000  Uiso   1.00
Cl221  Cl    0.15018   0.98094   0.35024   0.00000  Uiso   1.00
Cl222  Cl    0.26738   0.78709   0.04565   0.00000  Uiso   1.00
Cu223  Cu    0.16667   0.74999   0.29821   0.00000  Uiso   1.00
Cu224  Cu    0.16667   0.75000   0.20178   0.00000  Uiso   1.00
H225   H     0.10658   0.61412   0.29375   0.00000  Uiso   1.00
H226   H     0.22678   0.88590   0.20631   0.00000  Uiso   1.00
H227   H     0.22781   0.79610   0.13454   0.00000  Uiso   1.00
H228   H     0.10552   0.70390   0.36546   0.00000  Uiso   1.00
N229   N     0.16667   0.75001   0.12934   0.00000  Uiso   1.00
N230   N     0.16667   0.74999   0.37065   0.00000  Uiso   1.00
N231   N     0.07800   0.66397   0.13592   0.00000  Uiso   1.00
N232   N     0.25533   0.83604   0.36408   0.00000  Uiso   1.00
O233   O     0.16667   0.68572   0.29071   0.00000  Uiso   1.00
O234   O     0.16666   0.81427   0.20928   0.00000  Uiso   1.00
O235   O     0.16667   0.68573   0.20928   0.00000  Uiso   1.00
O236   O     0.16666   0.81427   0.29072   0.00000  Uiso   1.00
O237   O     0.09161   0.74999   0.28132   0.00000  Uiso   1.00
O238   O     0.24172   0.75000   0.21868   0.00000  Uiso   1.00
O239   O     0.09161   0.75000   0.19989   0.00000  Uiso   1.00
O240   O     0.24172   0.75000   0.30011   0.00000  Uiso   1.00
C241   C     0.50067   0.66494   0.24907   0.00000  Uiso   1.00
C242   C     0.52271   0.78575   0.44983   0.00000  Uiso   1.00
C243   C     0.50327   0.74762   0.02778   0.00000  Uiso   1.00
C244   C     0.49673   0.75238   0.47222   0.00000  Uiso   1.00
C245   C     0.40151   0.75043   0.23807   0.00000  Uiso   1.00
C246   C     0.59849   0.74957   0.26193   0.00000  Uiso   1.00
C247   C     0.34748   0.75761   0.23332   0.00000  Uiso   1.00
C248   C     0.65252   0.74239   0.26668   0.00000  Uiso   1.00
C249   C     0.45987   0.54905   0.26968   0.00000  Uiso   1.00
C250   C     0.54011   0.95096   0.23037   0.00000  Uiso   1.00
C251   C     0.46487   0.59501   0.27296   0.00000  Uiso   1.00
C252   C     0.49932   0.83506   0.25093   0.00000  Uiso   1.00
C253   C     0.53513   0.90500   0.22708   0.00000  Uiso   1.00
C254   C     0.49827   0.61655   0.24595   0.00000  Uiso   1.00
C255   C     0.50171   0.88345   0.25405   0.00000  Uiso   1.00
C256   C     0.52148   0.59189   0.21073   0.00000  Uiso   1.00
C257   C     0.47845   0.90809   0.28925   0.00000  Uiso   1.00
C258   C     0.51511   0.54575   0.20742   0.00000  Uiso   1.00
C259   C     0.48481   0.95424   0.29258   0.00000  Uiso   1.00
C260   C     0.49423   0.52391   0.24474   0.00000  Uiso   1.00
C261   C     0.50572   0.97609   0.25529   0.00000  Uiso   1.00
C262   C     0.43845   0.68845   0.12017   0.00000  Uiso   1.00
C263   C     0.53951   0.77283   0.06050   0.00000  Uiso   1.00
C264   C     0.56155   0.81155   0.37983   0.00000  Uiso   1.00
C265   C     0.46049   0.72717   0.43950   0.00000  Uiso   1.00
C266   C     0.53463   0.77565   0.11035   0.00000  Uiso   1.00
C267   C     0.46537   0.72435   0.38965   0.00000  Uiso   1.00
C268   C     0.47194   0.71881   0.10002   0.00000  Uiso   1.00
C269   C     0.52806   0.78119   0.39998   0.00000  Uiso   1.00
C270   C     0.47729   0.71425   0.05017   0.00000  Uiso   1.00
Cl271  Cl    0.65775   0.79450   0.18788   0.00000  Uiso   1.00
Cl272  Cl    0.39928   0.71291   0.45435   0.00000  Uiso   1.00
Cl273  Cl    0.47048   0.65987   0.02349   0.00000  Uiso   1.00
Cl274  Cl    0.52951   0.84013   0.47651   0.00000  Uiso   1.00
Cl275  Cl    0.34225   0.70550   0.31212   0.00000  Uiso   1.00
Cl276  Cl    0.40113   0.52682   0.28306   0.00000  Uiso   1.00
Cl277  Cl    0.59884   0.97322   0.21700   0.00000  Uiso   1.00
Cl278  Cl    0.55842   0.61751   0.17030   0.00000  Uiso   1.00
Cl279  Cl    0.44147   0.88246   0.32964   0.00000  Uiso   1.00
Cl280  Cl    0.51640   0.51902   0.14977   0.00000  Uiso   1.00
Cl281  Cl    0.48352   0.98094   0.35024   0.00000  Uiso   1.00
Cl282  Cl    0.60072   0.78709   0.04565   0.00000  Uiso   1.00
Cu283  Cu    0.50000   0.74999   0.29821   0.00000  Uiso   1.00
Cu284  Cu    0.50000   0.75000   0.20178   0.00000  Uiso   1.00
H285   H     0.43992   0.61412   0.29375   0.00000  Uiso   1.00
H286   H     0.56011   0.88590   0.20631   0.00000  Uiso   1.00
H287   H     0.56115   0.79610   0.13454   0.00000  Uiso   1.00
H288   H     0.43885   0.70390   0.36546   0.00000  Uiso   1.00
N289   N     0.50000   0.75001   0.12934   0.00000  Uiso   1.00
N290   N     0.50000   0.74999   0.37065   0.00000  Uiso   1.00
N291   N     0.41133   0.66397   0.13592   0.00000  Uiso   1.00
N292   N     0.58866   0.83604   0.36408   0.00000  Uiso   1.00
O293   O     0.50000   0.68572   0.29071   0.00000  Uiso   1.00
O294   O     0.50000   0.81427   0.20928   0.00000  Uiso   1.00
O295   O     0.50000   0.68573   0.20928   0.00000  Uiso   1.00
O296   O     0.50000   0.81427   0.29072   0.00000  Uiso   1.00
O297   O     0.42495   0.74999   0.28132   0.00000  Uiso   1.00
O298   O     0.57505   0.75000   0.21868   0.00000  Uiso   1.00
O299   O     0.42495   0.75000   0.19989   0.00000  Uiso   1.00
O300   O     0.57505   0.75000   0.30011   0.00000  Uiso   1.00
C301   C     0.83401   0.66494   0.24907   0.00000  Uiso   1.00
C302   C     0.85604   0.78575   0.44983   0.00000  Uiso   1.00
C303   C     0.83660   0.74762   0.02778   0.00000  Uiso   1.00
C304   C     0.83007   0.75238   0.47222   0.00000  Uiso   1.00
C305   C     0.73484   0.75043   0.23807   0.00000  Uiso   1.00
C306   C     0.93182   0.74957   0.26193   0.00000  Uiso   1.00
C307   C     0.68081   0.75761   0.23332   0.00000  Uiso   1.00
C308   C     0.98585   0.74239   0.26668   0.00000  Uiso   1.00
C309   C     0.79320   0.54905   0.26968   0.00000  Uiso   1.00
C310   C     0.87344   0.95096   0.23037   0.00000  Uiso   1.00
C311   C     0.79821   0.59501   0.27296   0.00000  Uiso   1.00
C312   C     0.83265   0.83506   0.25093   0.00000  Uiso   1.00
C313   C     0.86846   0.90500   0.22708   0.00000  Uiso   1.00
C314   C     0.83160   0.61655   0.24595   0.00000  Uiso   1.00
C315   C     0.83504   0.88345   0.25405   0.00000  Uiso   1.00
C316   C     0.85481   0.59189   0.21073   0.00000  Uiso   1.00
C317   C     0.81178   0.90809   0.28925   0.00000  Uiso   1.00
C318   C     0.84844   0.54575   0.20742   0.00000  Uiso   1.00
C319   C     0.81815   0.95424   0.29258   0.00000  Uiso   1.00
C320   C     0.82756   0.52391   0.24474   0.00000  Uiso   1.00
C321   C     0.83905   0.97609   0.25529   0.00000  Uiso   1.00
C322   C     0.77178   0.68845   0.12017   0.00000  Uiso   1.00
C323   C     0.87284   0.77283   0.06050   0.00000  Uiso   1.00
C324   C     0.89488   0.81155   0.37983   0.00000  Uiso   1.00
C325   C     0.79382   0.72717   0.43950   0.00000  Uiso   1.00
C326   C     0.86796   0.77565   0.11035   0.00000  Uiso   1.00
C327   C     0.79870   0.72435   0.38965   0.00000  Uiso   1.00
C328   C     0.80527   0.71881   0.10002   0.00000  Uiso   1.00
C329   C     0.86139   0.78119   0.39998   0.00000  Uiso   1.00
C330   C     0.81063   0.71425   0.05017   0.00000  Uiso   1.00
Cl331  Cl    0.99108   0.79450   0.18788   0.00000  Uiso   1.00
Cl332  Cl    0.73262   0.71291   0.45435   0.00000  Uiso   1.00
Cl333  Cl    0.80382   0.65987   0.02349   0.00000  Uiso   1.00
Cl334  Cl    0.86285   0.84013   0.47651   0.00000  Uiso   1.00
Cl335  Cl    0.67559   0.70550   0.31212   0.00000  Uiso   1.00
Cl336  Cl    0.73447   0.52682   0.28306   0.00000  Uiso   1.00
Cl337  Cl    0.93217   0.97322   0.21700   0.00000  Uiso   1.00
Cl338  Cl    0.89175   0.61751   0.17030   0.00000  Uiso   1.00
Cl339  Cl    0.77480   0.88246   0.32964   0.00000  Uiso   1.00
Cl340  Cl    0.84973   0.51902   0.14977   0.00000  Uiso   1.00
Cl341  Cl    0.81685   0.98094   0.35024   0.00000  Uiso   1.00
Cl342  Cl    0.93405   0.78709   0.04565   0.00000  Uiso   1.00
Cu343  Cu    0.83333   0.74999   0.29821   0.00000  Uiso   1.00
Cu344  Cu    0.83333   0.75000   0.20178   0.00000  Uiso   1.00
H345   H     0.77325   0.61412   0.29375   0.00000  Uiso   1.00
H346   H     0.89345   0.88590   0.20631   0.00000  Uiso   1.00
H347   H     0.89448   0.79610   0.13454   0.00000  Uiso   1.00
H348   H     0.77219   0.70390   0.36546   0.00000  Uiso   1.00
N349   N     0.83333   0.75001   0.12934   0.00000  Uiso   1.00
N350   N     0.83333   0.74999   0.37065   0.00000  Uiso   1.00
N351   N     0.74467   0.66397   0.13592   0.00000  Uiso   1.00
N352   N     0.92200   0.83604   0.36408   0.00000  Uiso   1.00
O353   O     0.83334   0.68572   0.29071   0.00000  Uiso   1.00
O354   O     0.83333   0.81427   0.20928   0.00000  Uiso   1.00
O355   O     0.83334   0.68573   0.20928   0.00000  Uiso   1.00
O356   O     0.83333   0.81427   0.29072   0.00000  Uiso   1.00
O357   O     0.75828   0.74999   0.28132   0.00000  Uiso   1.00
O358   O     0.90839   0.75000   0.21868   0.00000  Uiso   1.00
O359   O     0.75828   0.75000   0.19989   0.00000  Uiso   1.00
O360   O     0.90839   0.75000   0.30011   0.00000  Uiso   1.00
C361   C     0.16734   0.16494   0.74907   0.00000  Uiso   1.00
C362   C     0.18937   0.28575   0.94983   0.00000  Uiso   1.00
C363   C     0.16993   0.24762   0.52778   0.00000  Uiso   1.00
C364   C     0.16340   0.25238   0.97222   0.00000  Uiso   1.00
C365   C     0.06818   0.25043   0.73807   0.00000  Uiso   1.00
C366   C     0.26516   0.24957   0.76193   0.00000  Uiso   1.00
C367   C     0.01415   0.25761   0.73332   0.00000  Uiso   1.00
C368   C     0.31919   0.24239   0.76668   0.00000  Uiso   1.00
C369   C     0.12654   0.04905   0.76968   0.00000  Uiso   1.00
C370   C     0.20678   0.45096   0.73037   0.00000  Uiso   1.00
C371   C     0.13154   0.09501   0.77296   0.00000  Uiso   1.00
C372   C     0.16599   0.33506   0.75093   0.00000  Uiso   1.00
C373   C     0.20179   0.40500   0.72708   0.00000  Uiso   1.00
C374   C     0.16494   0.11655   0.74595   0.00000  Uiso   1.00
C375   C     0.16837   0.38345   0.75405   0.00000  Uiso   1.00
C376   C     0.18815   0.09189   0.71073   0.00000  Uiso   1.00
C377   C     0.14512   0.40809   0.78925   0.00000  Uiso   1.00
C378   C     0.18177   0.04575   0.70742   0.00000  Uiso   1.00
C379   C     0.15148   0.45424   0.79258   0.00000  Uiso   1.00
C380   C     0.16089   0.02391   0.74474   0.00000  Uiso   1.00
C381   C     0.17239   0.47609   0.75529   0.00000  Uiso   1.00
C382   C     0.10512   0.18845   0.62017   0.00000  Uiso   1.00
C383   C     0.20618   0.27283   0.56050   0.00000  Uiso   1.00
C384   C     0.22821   0.31155   0.87983   0.00000  Uiso   1.00
C385   C     0.12716   0.22717   0.93950   0.00000  Uiso   1.00
C386   C     0.20130   0.27565   0.61035   0.00000  Uiso   1.00
C387   C     0.13204   0.22435   0.88965   0.00000  Uiso   1.00
C388   C     0.13861   0.21881   0.60002   0.00000  Uiso   1.00
C389   C     0.19473   0.28119   0.89998   0.00000  Uiso   1.00
C390   C     0.14396   0.21425   0.55017   0.00000  Uiso   1.00
Cl391  Cl    0.32441   0.29450   0.68788   0.00000  Uiso   1.00
Cl392  Cl    0.06595   0.21291   0.95435   0.00000  Uiso   1.00
Cl393  Cl    0.13715   0.15987   0.52349   0.00000  Uiso   1.00
Cl394  Cl    0.19618   0.34013   0.97651   0.00000  Uiso   1.00
Cl395  Cl    0.00892   0.20550   0.81212   0.00000  Uiso   1.00
Cl396  Cl    0.06780   0.02682   0.78306   0.00000  Uiso   1.00
Cl397  Cl    0.26551   0.47322   0.71700   0.00000  Uiso   1.00
Cl398  Cl    0.22508   0.11751   0.67030   0.00000  Uiso   1.00
Cl399  Cl    0.10814   0.38246   0.82964   0.00000  Uiso   1.00
Cl400  Cl    0.18306   0.01902   0.64977   0.00000  Uiso   1.00
Cl401  Cl    0.15018   0.48094   0.85024   0.00000  Uiso   1.00
Cl402  Cl    0.26738   0.28709   0.54565   0.00000  Uiso   1.00
Cu403  Cu    0.16667   0.24999   0.79821   0.00000  Uiso   1.00
Cu404  Cu    0.16667   0.25000   0.70178   0.00000  Uiso   1.00
H405   H     0.10658   0.11412   0.79375   0.00000  Uiso   1.00
H406   H     0.22678   0.38590   0.70631   0.00000  Uiso   1.00
H407   H     0.22781   0.29610   0.63454   0.00000  Uiso   1.00
H408   H     0.10552   0.20390   0.86546   0.00000  Uiso   1.00
N409   N     0.16667   0.25001   0.62934   0.00000  Uiso   1.00
N410   N     0.16667   0.24999   0.87065   0.00000  Uiso   1.00
N411   N     0.07800   0.16397   0.63592   0.00000  Uiso   1.00
N412   N     0.25533   0.33604   0.86408   0.00000  Uiso   1.00
O413   O     0.16667   0.18572   0.79071   0.00000  Uiso   1.00
O414   O     0.16666   0.31427   0.70928   0.00000  Uiso   1.00
O415   O     0.16667   0.18573   0.70928   0.00000  Uiso   1.00
O416   O     0.16666   0.31427   0.79072   0.00000  Uiso   1.00
O417   O     0.09161   0.24999   0.78132   0.00000  Uiso   1.00
O418   O     0.24172   0.25000   0.71868   0.00000  Uiso   1.00
O419   O     0.09161   0.25000   0.69989   0.00000  Uiso   1.00
O420   O     0.24172   0.25000   0.80011   0.00000  Uiso   1.00
C421   C     0.50067   0.16494   0.74907   0.00000  Uiso   1.00
C422   C     0.52271   0.28575   0.94983   0.00000  Uiso   1.00
C423   C     0.50327   0.24762   0.52778   0.00000  Uiso   1.00
C424   C     0.49673   0.25238   0.97222   0.00000  Uiso   1.00
C425   C     0.40151   0.25043   0.73807   0.00000  Uiso   1.00
C426   C     0.59849   0.24957   0.76193   0.00000  Uiso   1.00
C427   C     0.34748   0.25761   0.73332   0.00000  Uiso   1.00
C428   C     0.65252   0.24239   0.76668   0.00000  Uiso   1.00
C429   C     0.45987   0.04905   0.76968   0.00000  Uiso   1.00
C430   C     0.54011   0.45096   0.73037   0.00000  Uiso   1.00
C431   C     0.46487   0.09501   0.77296   0.00000  Uiso   1.00
C432   C     0.49932   0.33506   0.75093   0.00000  Uiso   1.00
C433   C     0.53513   0.40500   0.72708   0.00000  Uiso   1.00
C434   C     0.49827   0.11655   0.74595   0.00000  Uiso   1.00
C435   C     0.50171   0.38345   0.75405   0.00000  Uiso   1.00
C436   C     0.52148   0.09189   0.71073   0.00000  Uiso   1.00
C437   C     0.47845   0.40809   0.78925   0.00000  Uiso   1.00
C438   C     0.51511   0.04575   0.70742   0.00000  Uiso   1.00
C439   C     0.48481   0.45424   0.79258   0.00000  Uiso   1.00
C440   C     0.49423   0.02391   0.74474   0.00000  Uiso   1.00
C441   C     0.50572   0.47609   0.75529   0.00000  Uiso   1.00
C442   C     0.43845   0.18845   0.62017   0.00000  Uiso   1.00
C443   C     0.53951   0.27283   0.56050   0.00000  Uiso   1.00
C444   C     0.56155   0.31155   0.87983   0.00000  Uiso   1.00
C445   C     0.46049   0.22717   0.93950   0.00000  Uiso   1.00
C446   C     0.53463   0.27565   0.61035   0.00000  Uiso   1.00
C447   C     0.46537   0.22435   0.88965   0.00000  Uiso   1.00
C448   C     0.47194   0.21881   0.60002   0.00000  Uiso   1.00
C449   C     0.52806   0.28119   0.89998   0.00000  Uiso   1.00
C450   C     0.47729   0.21425   0.55017   0.00000  Uiso   1.00
Cl451  Cl    0.65775   0.29450   0.68788   0.00000  Uiso   1.00
Cl452  Cl    0.39928   0.21291   0.95435   0.00000  Uiso   1.00
Cl453  Cl    0.47048   0.15987   0.52349   0.00000  Uiso   1.00
Cl454  Cl    0.52951   0.34013   0.97651   0.00000  Uiso   1.00
Cl455  Cl    0.34225   0.20550   0.81212   0.00000  Uiso   1.00
Cl456  Cl    0.40113   0.02682   0.78306   0.00000  Uiso   1.00
Cl457  Cl    0.59884   0.47322   0.71700   0.00000  Uiso   1.00
Cl458  Cl    0.55842   0.11751   0.67030   0.00000  Uiso   1.00
Cl459  Cl    0.44147   0.38246   0.82964   0.00000  Uiso   1.00
Cl460  Cl    0.51640   0.01902   0.64977   0.00000  Uiso   1.00
Cl461  Cl    0.48352   0.48094   0.85024   0.00000  Uiso   1.00
Cl462  Cl    0.60072   0.28709   0.54565   0.00000  Uiso   1.00
Cu463  Cu    0.50000   0.24999   0.79821   0.00000  Uiso   1.00
Cu464  Cu    0.50000   0.25000   0.70178   0.00000  Uiso   1.00
H465   H     0.43992   0.11412   0.79375   0.00000  Uiso   1.00
H466   H     0.56011   0.38590   0.70631   0.00000  Uiso   1.00
H467   H     0.56115   0.29610   0.63454   0.00000  Uiso   1.00
H468   H     0.43885   0.20390   0.86546   0.00000  Uiso   1.00
N469   N     0.50000   0.25001   0.62934   0.00000  Uiso   1.00
N470   N     0.50000   0.24999   0.87065   0.00000  Uiso   1.00
N471   N     0.41133   0.16397   0.63592   0.00000  Uiso   1.00
N472   N     0.58866   0.33604   0.86408   0.00000  Uiso   1.00
O473   O     0.50000   0.18572   0.79071   0.00000  Uiso   1.00
O474   O     0.50000   0.31427   0.70928   0.00000  Uiso   1.00
O475   O     0.50000   0.18573   0.70928   0.00000  Uiso   1.00
O476   O     0.50000   0.31427   0.79072   0.00000  Uiso   1.00
O477   O     0.42495   0.24999   0.78132   0.00000  Uiso   1.00
O478   O     0.57505   0.25000   0.71868   0.00000  Uiso   1.00
O479   O     0.42495   0.25000   0.69989   0.00000  Uiso   1.00
O480   O     0.57505   0.25000   0.80011   0.00000  Uiso   1.00
C481   C     0.83401   0.16494   0.74907   0.00000  Uiso   1.00
C482   C     0.85604   0.28575   0.94983   0.00000  Uiso   1.00
C483   C     0.83660   0.24762   0.52778   0.00000  Uiso   1.00
C484   C     0.83007   0.25238   0.97222   0.00000  Uiso   1.00
C485   C     0.73484   0.25043   0.73807   0.00000  Uiso   1.00
C486   C     0.93182   0.24957   0.76193   0.00000  Uiso   1.00
C487   C     0.68081   0.25761   0.73332   0.00000  Uiso   1.00
C488   C     0.98585   0.24239   0.76668   0.00000  Uiso   1.00
C489   C     0.79320   0.04905   0.76968   0.00000  Uiso   1.00
C490   C     0.87344   0.45096   0.73037   0.00000  Uiso   1.00
C491   C     0.79821   0.09501   0.77296   0.00000  Uiso   1.00
C492   C     0.83265   0.33506   0.75093   0.00000  Uiso   1.00
C493   C     0.86846   0.40500   0.72708   0.00000  Uiso   1.00
C494   C     0.83160   0.11655   0.74595   0.00000  Uiso   1.00
C495   C     0.83504   0.38345   0.75405   0.00000  Uiso   1.00
C496   C     0.85481   0.09189   0.71073   0.00000  Uiso   1.00
C497   C     0.81178   0.40809   0.78925   0.00000  Uiso   1.00
C498   C     0.84844   0.04575   0.70742   0.00000  Uiso   1.00
C499   C     0.81815   0.45424   0.79258   0.00000  Uiso   1.00
C500   C     0.82756   0.02391   0.74474   0.00000  Uiso   1.00
C501   C     0.83905   0.47609   0.75529   0.00000  Uiso   1.00
C502   C     0.77178   0.18845   0.62017   0.00000  Uiso   1.00
C503   C     0.87284   0.27283   0.56050   0.00000  Uiso   1.00
C504   C     0.89488   0.31155   0.87983   0.00000  Uiso   1.00
C505   C     0.79382   0.22717   0.93950   0.00000  Uiso   1.00
C506   C     0.86796   0.27565   0.61035   0.00000  Uiso   1.00
C507   C     0.79870   0.22435   0.88965   0.00000  Uiso   1.00
C508   C     0.80527   0.21881   0.60002   0.00000  Uiso   1.00
C509   C     0.86139   0.28119   0.89998   0.00000  Uiso   1.00
C510   C     0.81063   0.21425   0.55017   0.00000  Uiso   1.00
Cl511  Cl    0.99108   0.29450   0.68788   0.00000  Uiso   1.00
Cl512  Cl    0.73262   0.21291   0.95435   0.00000  Uiso   1.00
Cl513  Cl    0.80382   0.15987   0.52349   0.00000  Uiso   1.00
Cl514  Cl    0.86285   0.34013   0.97651   0.00000  Uiso   1.00
Cl515  Cl    0.67559   0.20550   0.81212   0.00000  Uiso   1.00
Cl516  Cl    0.73447   0.02682   0.78306   0.00000  Uiso   1.00
Cl517  Cl    0.93217   0.47322   0.71700   0.00000  Uiso   1.00
Cl518  Cl    0.89175   0.11751   0.67030   0.00000  Uiso   1.00
Cl519  Cl    0.77480   0.38246   0.82964   0.00000  Uiso   1.00
Cl520  Cl    0.84973   0.01902   0.64977   0.00000  Uiso   1.00
Cl521  Cl    0.81685   0.48094   0.85024   0.00000  Uiso   1.00
Cl522  Cl    0.93405   0.28709   0.54565   0.00000  Uiso   1.00
Cu523  Cu    0.83333   0.24999   0.79821   0.00000  Uiso   1.00
Cu524  Cu    0.83333   0.25000   0.70178   0.00000  Uiso   1.00
H525   H     0.77325   0.11412   0.79375   0.00000  Uiso   1.00
H526   H     0.89345   0.38590   0.70631   0.00000  Uiso   1.00
H527   H     0.89448   0.29610   0.63454   0.00000  Uiso   1.00
H528   H     0.77219   0.20390   0.86546   0.00000  Uiso   1.00
N529   N     0.83333   0.25001   0.62934   0.00000  Uiso   1.00
N530   N     0.83333   0.24999   0.87065   0.00000  Uiso   1.00
N531   N     0.74467   0.16397   0.63592   0.00000  Uiso   1.00
N532   N     0.92200   0.33604   0.86408   0.00000  Uiso   1.00
O533   O     0.83334   0.18572   0.79071   0.00000  Uiso   1.00
O534   O     0.83333   0.31427   0.70928   0.00000  Uiso   1.00
O535   O     0.83334   0.18573   0.70928   0.00000  Uiso   1.00
O536   O     0.83333   0.31427   0.79072   0.00000  Uiso   1.00
O537   O     0.75828   0.24999   0.78132   0.00000  Uiso   1.00
O538   O     0.90839   0.25000   0.71868   0.00000  Uiso   1.00
O539   O     0.75828   0.25000   0.69989   0.00000  Uiso   1.00
O540   O     0.90839   0.25000   0.80011   0.00000  Uiso   1.00
C541   C     0.16734   0.66494   0.74907   0.00000  Uiso   1.00
C542   C     0.18937   0.78575   0.94983   0.00000  Uiso   1.00
C543   C     0.16993   0.74762   0.52778   0.00000  Uiso   1.00
C544   C     0.16340   0.75238   0.97222   0.00000  Uiso   1.00
C545   C     0.06818   0.75043   0.73807   0.00000  Uiso   1.00
C546   C     0.26516   0.74957   0.76193   0.00000  Uiso   1.00
C547   C     0.01415   0.75761   0.73332   0.00000  Uiso   1.00
C548   C     0.31919   0.74239   0.76668   0.00000  Uiso   1.00
C549   C     0.12654   0.54905   0.76968   0.00000  Uiso   1.00
C550   C     0.20678   0.95096   0.73037   0.00000  Uiso   1.00
C551   C     0.13154   0.59501   0.77296   0.00000  Uiso   1.00
C552   C     0.16599   0.83506   0.75093   0.00000  Uiso   1.00
C553   C     0.20179   0.90500   0.72708   0.00000  Uiso   1.00
C554   C     0.16494   0.61655   0.74595   0.00000  Uiso   1.00
C555   C     0.16837   0.88345   0.75405   0.00000  Uiso   1.00
C556   C     0.18815   0.59189   0.71073   0.00000  Uiso   1.00
C557   C     0.14512   0.90809   0.78925   0.00000  Uiso   1.00
C558   C     0.18177   0.54575   0.70742   0.00000  Uiso   1.00
C559   C     0.15148   0.95424   0.79258   0.00000  Uiso   1.00
C560   C     0.16089   0.52391   0.74474   0.00000  Uiso   1.00
C561   C     0.17239   0.97609   0.75529   0.00000  Uiso   1.00
C562   C     0.10512   0.68845   0.62017   0.00000  Uiso   1.00
C563   C     0.20618   0.77283   0.56050   0.00000  Uiso   1.00
C564   C     0.22821   0.81155   0.87983   0.00000  Uiso   1.00
C565   C     0.12716   0.72717   0.93950   0.00000  Uiso   1.00
C566   C     0.20130   0.77565   0.61035   0.00000  Uiso   1.00
C567   C     0.13204   0.72435   0.88965   0.00000  Uiso   1.00
C568   C     0.13861   0.71881   0.60002   0.00000  Uiso   1.00
C569   C     0.19473   0.78119   0.89998   0.00000  Uiso   1.00
C570   C     0.14396   0.71425   0.55017   0.00000  Uiso   1.00
Cl571  Cl    0.32441   0.79450   0.68788   0.00000  Uiso   1.00
Cl572  Cl    0.06595   0.71291   0.95435   0.00000  Uiso   1.00
Cl573  Cl    0.13715   0.65987   0.52349   0.00000  Uiso   1.00
Cl574  Cl    0.19618   0.84013   0.97651   0.00000  Uiso   1.00
Cl575  Cl    0.00892   0.70550   0.81212   0.00000  Uiso   1.00
Cl576  Cl    0.06780   0.52682   0.78306   0.00000  Uiso   1.00
Cl577  Cl    0.26551   0.97322   0.71700   0.00000  Uiso   1.00
Cl578  Cl    0.22508   0.61751   0.67030   0.00000  Uiso   1.00
Cl579  Cl    0.10814   0.88246   0.82964   0.00000  Uiso   1.00
Cl580  Cl    0.18306   0.51902   0.64977   0.00000  Uiso   1.00
Cl581  Cl    0.15018   0.98094   0.85024   0.00000  Uiso   1.00
Cl582  Cl    0.26738   0.78709   0.54565   0.00000  Uiso   1.00
Cu583  Cu    0.16667   0.74999   0.79821   0.00000  Uiso   1.00
Cu584  Cu    0.16667   0.75000   0.70178   0.00000  Uiso   1.00
H585   H     0.10658   0.61412   0.79375   0.00000  Uiso   1.00
H586   H     0.22678   0.88590   0.70631   0.00000  Uiso   1.00
H587   H     0.22781   0.79610   0.63454   0.00000  Uiso   1.00
H588   H     0.10552   0.70390   0.86546   0.00000  Uiso   1.00
N589   N     0.16667   0.75001   0.62934   0.00000  Uiso   1.00
N590   N     0.16667   0.74999   0.87065   0.00000  Uiso   1.00
N591   N     0.07800   0.66397   0.63592   0.00000  Uiso   1.00
N592   N     0.25533   0.83604   0.86408   0.00000  Uiso   1.00
O593   O     0.16667   0.68572   0.79071   0.00000  Uiso   1.00
O594   O     0.16666   0.81427   0.70928   0.00000  Uiso   1.00
O595   O     0.16667   0.68573   0.70928   0.00000  Uiso   1.00
O596   O     0.16666   0.81427   0.79072   0.00000  Uiso   1.00
O597   O     0.09161   0.74999   0.78132   0.00000  Uiso   1.00
O598   O     0.24172   0.75000   0.71868   0.00000  Uiso   1.00
O599   O     0.09161   0.75000   0.69989   0.00000  Uiso   1.00
O600   O     0.24172   0.75000   0.80011   0.00000  Uiso   1.00
C601   C     0.50067   0.66494   0.74907   0.00000  Uiso   1.00
C602   C     0.52271   0.78575   0.94983   0.00000  Uiso   1.00
C603   C     0.50327   0.74762   0.52778   0.00000  Uiso   1.00
C604   C     0.49673   0.75238   0.97222   0.00000  Uiso   1.00
C605   C     0.40151   0.75043   0.73807   0.00000  Uiso   1.00
C606   C     0.59849   0.74957   0.76193   0.00000  Uiso   1.00
C607   C     0.34748   0.75761   0.73332   0.00000  Uiso   1.00
C608   C     0.65252   0.74239   0.76668   0.00000  Uiso   1.00
C609   C     0.45987   0.54905   0.76968   0.00000  Uiso   1.00
C610   C     0.54011   0.95096   0.73037   0.00000  Uiso   1.00
C611   C     0.46487   0.59501   0.77296   0.00000  Uiso   1.00
C612   C     0.49932   0.83506   0.75093   0.00000  Uiso   1.00
C613   C     0.53513   0.90500   0.72708   0.00000  Uiso   1.00
C614   C     0.49827   0.61655   0.74595   0.00000  Uiso   1.00
C615   C     0.50171   0.88345   0.75405   0.00000  Uiso   1.00
C616   C     0.52148   0.59189   0.71073   0.00000  Uiso   1.00
C617   C     0.47845   0.90809   0.78925   0.00000  Uiso   1.00
C618   C     0.51511   0.54575   0.70742   0.00000  Uiso   1.00
C619   C     0.48481   0.95424   0.79258   0.00000  Uiso   1.00
C620   C     0.49423   0.52391   0.74474   0.00000  Uiso   1.00
C621   C     0.50572   0.97609   0.75529   0.00000  Uiso   1.00
C622   C     0.43845   0.68845   0.62017   0.00000  Uiso   1.00
C623   C     0.53951   0.77283   0.56050   0.00000  Uiso   1.00
C624   C     0.56155   0.81155   0.87983   0.00000  Uiso   1.00
C625   C     0.46049   0.72717   0.93950   0.00000  Uiso   1.00
C626   C     0.53463   0.77565   0.61035   0.00000  Uiso   1.00
C627   C     0.46537   0.72435   0.88965   0.00000  Uiso   1.00
C628   C     0.47194   0.71881   0.60002   0.00000  Uiso   1.00
C629   C     0.52806   0.78119   0.89998   0.00000  Uiso   1.00
C630   C     0.47729   0.71425   0.55017   0.00000  Uiso   1.00
Cl631  Cl    0.65775   0.79450   0.68788   0.00000  Uiso   1.00
Cl632  Cl    0.39928   0.71291   0.95435   0.00000  Uiso   1.00
Cl633  Cl    0.47048   0.65987   0.52349   0.00000  Uiso   1.00
Cl634  Cl    0.52951   0.84013   0.97651   0.00000  Uiso   1.00
Cl635  Cl    0.34225   0.70550   0.81212   0.00000  Uiso   1.00
Cl636  Cl    0.40113   0.52682   0.78306   0.00000  Uiso   1.00
Cl637  Cl    0.59884   0.97322   0.71700   0.00000  Uiso   1.00
Cl638  Cl    0.55842   0.61751   0.67030   0.00000  Uiso   1.00
Cl639  Cl    0.44147   0.88246   0.82964   0.00000  Uiso   1.00
Cl640  Cl    0.51640   0.51902   0.64977   0.00000  Uiso   1.00
Cl641  Cl    0.48352   0.98094   0.85024   0.00000  Uiso   1.00
Cl642  Cl    0.60072   0.78709   0.54565   0.00000  Uiso   1.00
Cu643  Cu    0.50000   0.74999   0.79821   0.00000  Uiso   1.00
Cu644  Cu    0.50000   0.75000   0.70178   0.00000  Uiso   1.00
H645   H     0.43992   0.61412   0.79375   0.00000  Uiso   1.00
H646   H     0.56011   0.88590   0.70631   0.00000  Uiso   1.00
H647   H     0.56115   0.79610   0.63454   0.00000  Uiso   1.00
H648   H     0.43885   0.70390   0.86546   0.00000  Uiso   1.00
N649   N     0.50000   0.75001   0.62934   0.00000  Uiso   1.00
N650   N     0.50000   0.74999   0.87065   0.00000  Uiso   1.00
N651   N     0.41133   0.66397   0.63592   0.00000  Uiso   1.00
N652   N     0.58866   0.83604   0.86408   0.00000  Uiso   1.00
O653   O     0.50000   0.68572   0.79071   0.00000  Uiso   1.00
O654   O     0.50000   0.81427   0.70928   0.00000  Uiso   1.00
O655   O     0.50000   0.68573   0.70928   0.00000  Uiso   1.00
O656   O     0.50000   0.81427   0.79072   0.00000  Uiso   1.00
O657   O     0.42495   0.74999   0.78132   0.00000  Uiso   1.00
O658   O     0.57505   0.75000   0.71868   0.00000  Uiso   1.00
O659   O     0.42495   0.75000   0.69989   0.00000  Uiso   1.00
O660   O     0.57505   0.75000   0.80011   0.00000  Uiso   1.00
C661   C     0.83401   0.66494   0.74907   0.00000  Uiso   1.00
C662   C     0.85604   0.78575   0.94983   0.00000  Uiso   1.00
C663   C     0.83660   0.74762   0.52778   0.00000  Uiso   1.00
C664   C     0.83007   0.75238   0.97222   0.00000  Uiso   1.00
C665   C     0.73484   0.75043   0.73807   0.00000  Uiso   1.00
C666   C     0.93182   0.74957   0.76193   0.00000  Uiso   1.00
C667   C     0.68081   0.75761   0.73332   0.00000  Uiso   1.00
C668   C     0.98585   0.74239   0.76668   0.00000  Uiso   1.00
C669   C     0.79320   0.54905   0.76968   0.00000  Uiso   1.00
C670   C     0.87344   0.95096   0.73037   0.00000  Uiso   1.00
C671   C     0.79821   0.59501   0.77296   0.00000  Uiso   1.00
C672   C     0.83265   0.83506   0.75093   0.00000  Uiso   1.00
C673   C     0.86846   0.90500   0.72708   0.00000  Uiso   1.00
C674   C     0.83160   0.61655   0.74595   0.00000  Uiso   1.00
C675   C     0.83504   0.88345   0.75405   0.00000  Uiso   1.00
C676   C     0.85481   0.59189   0.71073   0.00000  Uiso   1.00
C677   C     0.81178   0.90809   0.78925   0.00000  Uiso   1.00
C678   C     0.84844   0.54575   0.70742   0.00000  Uiso   1.00
C679   C     0.81815   0.95424   0.79258   0.00000  Uiso   1.00
C680   C     0.82756   0.52391   0.74474   0.00000  Uiso   1.00
C681   C     0.83905   0.97609   0.75529   0.00000  Uiso   1.00
C682   C     0.77178   0.68845   0.62017   0.00000  Uiso   1.00
C683   C     0.87284   0.77283   0.56050   0.00000  Uiso   1.00
C684   C     0.89488   0.81155   0.87983   0.00000  Uiso   1.00
C685   C     0.79382   0.72717   0.93950   0.00000  Uiso   1.00
C686   C     0.86796   0.77565   0.61035   0.00000  Uiso   1.00
C687   C     0.79870   0.72435   0.88965   0.00000  Uiso   1.00
C688   C     0.80527   0.71881   0.60002   0.00000  Uiso   1.00
C689   C     0.86139   0.78119   0.89998   0.00000  Uiso   1.00
C690   C     0.81063   0.71425   0.55017   0.00000  Uiso   1.00
Cl691  Cl    0.99108   0.79450   0.68788   0.00000  Uiso   1.00
Cl692  Cl    0.73262   0.71291   0.95435   0.00000  Uiso   1.00
Cl693  Cl    0.80382   0.65987   0.52349   0.00000  Uiso   1.00
Cl694  Cl    0.86285   0.84013   0.97651   0.00000  Uiso   1.00
Cl695  Cl    0.67559   0.70550   0.81212   0.00000  Uiso   1.00
Cl696  Cl    0.73447   0.52682   0.78306   0.00000  Uiso   1.00
Cl697  Cl    0.93217   0.97322   0.71700   0.00000  Uiso   1.00
Cl698  Cl    0.89175   0.61751   0.67030   0.00000  Uiso   1.00
Cl699  Cl    0.77480   0.88246   0.82964   0.00000  Uiso   1.00
Cl700  Cl    0.84973   0.51902   0.64977   0.00000  Uiso   1.00
Cl701  Cl    0.81685   0.98094   0.85024   0.00000  Uiso   1.00
Cl702  Cl    0.93405   0.78709   0.54565   0.00000  Uiso   1.00
Cu703  Cu    0.83333   0.74999   0.79821   0.00000  Uiso   1.00
Cu704  Cu    0.83333   0.75000   0.70178   0.00000  Uiso   1.00
H705   H     0.77325   0.61412   0.79375   0.00000  Uiso   1.00
H706   H     0.89345   0.88590   0.70631   0.00000  Uiso   1.00
H707   H     0.89448   0.79610   0.63454   0.00000  Uiso   1.00
H708   H     0.77219   0.70390   0.86546   0.00000  Uiso   1.00
N709   N     0.83333   0.75001   0.62934   0.00000  Uiso   1.00
N710   N     0.83333   0.74999   0.87065   0.00000  Uiso   1.00
N711   N     0.74467   0.66397   0.63592   0.00000  Uiso   1.00
N712   N     0.92200   0.83604   0.86408   0.00000  Uiso   1.00
O713   O     0.83334   0.68572   0.79071   0.00000  Uiso   1.00
O714   O     0.83333   0.81427   0.70928   0.00000  Uiso   1.00
O715   O     0.83334   0.68573   0.70928   0.00000  Uiso   1.00
O716   O     0.83333   0.81427   0.79072   0.00000  Uiso   1.00
O717   O     0.75828   0.74999   0.78132   0.00000  Uiso   1.00
O718   O     0.90839   0.75000   0.71868   0.00000  Uiso   1.00
O719   O     0.75828   0.75000   0.69989   0.00000  Uiso   1.00
O720   O     0.90839   0.75000   0.80011   0.00000  Uiso   1.00
loop_
_geom_bond_atom_site_label_1
_geom_bond_atom_site_label_2
_geom_bond_distance
_geom_bond_site_symmetry_2
_ccdc_geom_bond_type
C1     O55     1.292   .     A
C1     O53     1.298   .     A
C1     C14     1.461   .     S
C2     C4      1.418   .     A
C2     Cl34    1.774   .     S
C2     C29     1.413   .     A
C3     C23     1.426   .     A
C3     C30     1.418   .     A
C3     C364    1.546   1_554 S
C4     C25     1.426   .     A
C4     C363    1.546   .     S
C5     C7      1.431   .     S
C5     O57     1.283   .     A
C5     O59     1.293   .     A
C6     O60     1.293   .     A
C6     O58     1.283   .     A
C6     C8      1.431   .     S
C7     C128    1.351   1_455 S
C7     Cl151   1.772   1_455 S
C8     C67     1.351   .     S
C8     Cl95    1.772   .     S
C9     Cl36    1.767   .     S
C9     C20     1.416   .     A
C9     C11     1.391   .     A
C10    Cl37    1.767   .     S
C10    C13     1.391   .     A
C10    C21     1.416   .     A
C11    C14     1.397   .     A
C11    H45     1.084   .     S
C12    C15     1.461   .     S
C12    O56     1.292   .     A
C12    O54     1.298   .     A
C13    C15     1.397   .     A
C13    H46     1.084   .     S
C14    C16     1.411   .     A
C15    C17     1.411   .     A
C16    C18     1.400   .     A
C16    Cl38    1.770   .     S
C17    C19     1.400   .     A
C17    Cl39    1.770   .     S
C18    C20     1.415   .     A
C18    Cl40    1.772   .     S
C19    C21     1.415   .     A
C19    Cl41    1.772   .     S
C20    C201    1.510   1_545 S
C21    C200    1.510   .     S
C22    C28     1.442   .     S
C22    N51     1.158   .     T
C23    Cl42    1.766   .     S
C23    C26     1.408   .     A
C24    N52     1.158   .     T
C24    C29     1.442   .     S
C25    C27     1.408   .     A
C25    Cl32    1.766   .     S
C26    H47     1.079   .     S
C26    N49     1.359   .     A
C27    N50     1.359   .     A
C27    H48     1.079   .     S
C28    N49     1.370   .     A
C28    C30     1.413   .     A
C29    N50     1.370   .     A
C30    Cl33    1.774   .     S
Cl31   C67     1.772   .     S
Cl35   C128    1.772   1_455 S
Cu43   Cu44    2.683   .     S
Cu43   N50     2.015   .     S
Cu43   O57     1.973   .     S
Cu43   O60     1.970   .     S
Cu43   O56     1.960   .     S
Cu43   O53     1.944   .     S
Cu44   N49     2.015   .     S
Cu44   O55     1.960   .     S
Cu44   O59     1.970   .     S
Cu44   O54     1.944   .     S
Cu44   O58     1.973   .     S
C61    O115    1.292   .     A
C61    O113    1.298   .     A
C61    C74     1.461   .     S
C62    C64     1.418   .     A
C62    Cl94    1.774   .     S
C62    C89     1.413   .     A
C63    C83     1.426   .     A
C63    C90     1.418   .     A
C63    C424    1.546   1_554 S
C64    C85     1.426   .     A
C64    C423    1.546   .     S
C65    C67     1.431   .     S
C65    O117    1.283   .     A
C65    O119    1.293   .     A
C66    O120    1.293   .     A
C66    O118    1.283   .     A
C66    C68     1.431   .     S
C68    C127    1.351   .     S
C68    Cl155   1.772   .     S
C69    Cl96    1.767   .     S
C69    C80     1.416   .     A
C69    C71     1.391   .     A
C70    Cl97    1.767   .     S
C70    C73     1.391   .     A
C70    C81     1.416   .     A
C71    C74     1.397   .     A
C71    H105    1.084   .     S
C72    C75     1.461   .     S
C72    O116    1.292   .     A
C72    O114    1.298   .     A
C73    C75     1.397   .     A
C73    H106    1.084   .     S
C74    C76     1.411   .     A
C75    C77     1.411   .     A
C76    C78     1.400   .     A
C76    Cl98    1.770   .     S
C77    C79     1.400   .     A
C77    Cl99    1.770   .     S
C78    C80     1.415   .     A
C78    Cl100   1.772   .     S
C79    C81     1.415   .     A
C79    Cl101   1.772   .     S
C80    C261    1.510   1_545 S
C81    C260    1.510   .     S
C82    C88     1.442   .     S
C82    N111    1.158   .     T
C83    Cl102   1.766   .     S
C83    C86     1.408   .     A
C84    N112    1.158   .     T
C84    C89     1.442   .     S
C85    C87     1.408   .     A
C85    Cl92    1.766   .     S
C86    H107    1.079   .     S
C86    N109    1.359   .     A
C87    N110    1.359   .     A
C87    H108    1.079   .     S
C88    N109    1.370   .     A
C88    C90     1.413   .     A
C89    N110    1.370   .     A
C90    Cl93    1.774   .     S
Cl91   C127    1.772   .     S
Cu103  Cu104   2.683   .     S
Cu103  N110    2.015   .     S
Cu103  O117    1.973   .     S
Cu103  O120    1.970   .     S
Cu103  O116    1.960   .     S
Cu103  O113    1.944   .     S
Cu104  N109    2.015   .     S
Cu104  O115    1.960   .     S
Cu104  O119    1.970   .     S
Cu104  O114    1.944   .     S
Cu104  O118    1.973   .     S
C121   O175    1.292   .     A
C121   O173    1.298   .     A
C121   C134    1.461   .     S
C122   C124    1.418   .     A
C122   Cl154   1.774   .     S
C122   C149    1.413   .     A
C123   C143    1.426   .     A
C123   C150    1.418   .     A
C123   C484    1.546   1_554 S
C124   C145    1.426   .     A
C124   C483    1.546   .     S
C125   C127    1.431   .     S
C125   O177    1.283   .     A
C125   O179    1.293   .     A
C126   O180    1.293   .     A
C126   O178    1.283   .     A
C126   C128    1.431   .     S
C128   C7      1.351   1_655 S
C128   Cl35    1.772   1_655 S
C129   Cl156   1.767   .     S
C129   C140    1.416   .     A
C129   C131    1.391   .     A
C130   Cl157   1.767   .     S
C130   C133    1.391   .     A
C130   C141    1.416   .     A
C131   C134    1.397   .     A
C131   H165    1.084   .     S
C132   C135    1.461   .     S
C132   O176    1.292   .     A
C132   O174    1.298   .     A
C133   C135    1.397   .     A
C133   H166    1.084   .     S
C134   C136    1.411   .     A
C135   C137    1.411   .     A
C136   C138    1.400   .     A
C136   Cl158   1.770   .     S
C137   C139    1.400   .     A
C137   Cl159   1.770   .     S
C138   C140    1.415   .     A
C138   Cl160   1.772   .     S
C139   C141    1.415   .     A
C139   Cl161   1.772   .     S
C140   C321    1.510   1_545 S
C141   C320    1.510   .     S
C142   C148    1.442   .     S
C142   N171    1.158   .     T
C143   Cl162   1.766   .     S
C143   C146    1.408   .     A
C144   N172    1.158   .     T
C144   C149    1.442   .     S
C145   C147    1.408   .     A
C145   Cl152   1.766   .     S
C146   H167    1.079   .     S
C146   N169    1.359   .     A
C147   N170    1.359   .     A
C147   H168    1.079   .     S
C148   N169    1.370   .     A
C148   C150    1.413   .     A
C149   N170    1.370   .     A
C150   Cl153   1.774   .     S
Cl151  C7      1.772   1_655 S
Cu163  Cu164   2.683   .     S
Cu163  N170    2.015   .     S
Cu163  O177    1.973   .     S
Cu163  O180    1.970   .     S
Cu163  O176    1.960   .     S
Cu163  O173    1.944   .     S
Cu164  N169    2.015   .     S
Cu164  O175    1.960   .     S
Cu164  O179    1.970   .     S
Cu164  O174    1.944   .     S
Cu164  O178    1.973   .     S
C181   O235    1.292   .     A
C181   O233    1.298   .     A
C181   C194    1.461   .     S
C182   C184    1.418   .     A
C182   Cl214   1.774   .     S
C182   C209    1.413   .     A
C183   C203    1.426   .     A
C183   C210    1.418   .     A
C183   C544    1.546   1_554 S
C184   C205    1.426   .     A
C184   C543    1.546   .     S
C185   C187    1.431   .     S
C185   O237    1.283   .     A
C185   O239    1.293   .     A
C186   O240    1.293   .     A
C186   O238    1.283   .     A
C186   C188    1.431   .     S
C187   C308    1.351   1_455 S
C187   Cl331   1.772   1_455 S
C188   C247    1.351   .     S
C188   Cl275   1.772   .     S
C189   Cl216   1.767   .     S
C189   C200    1.416   .     A
C189   C191    1.391   .     A
C190   Cl217   1.767   .     S
C190   C193    1.391   .     A
C190   C201    1.416   .     A
C191   C194    1.397   .     A
C191   H225    1.084   .     S
C192   C195    1.461   .     S
C192   O236    1.292   .     A
C192   O234    1.298   .     A
C193   C195    1.397   .     A
C193   H226    1.084   .     S
C194   C196    1.411   .     A
C195   C197    1.411   .     A
C196   C198    1.400   .     A
C196   Cl218   1.770   .     S
C197   C199    1.400   .     A
C197   Cl219   1.770   .     S
C198   C200    1.415   .     A
C198   Cl220   1.772   .     S
C199   C201    1.415   .     A
C199   Cl221   1.772   .     S
C201   C20     1.510   1_565 S
C202   C208    1.442   .     S
C202   N231    1.158   .     T
C203   Cl222   1.766   .     S
C203   C206    1.408   .     A
C204   N232    1.158   .     T
C204   C209    1.442   .     S
C205   C207    1.408   .     A
C205   Cl212   1.766   .     S
C206   H227    1.079   .     S
C206   N229    1.359   .     A
C207   N230    1.359   .     A
C207   H228    1.079   .     S
C208   N229    1.370   .     A
C208   C210    1.413   .     A
C209   N230    1.370   .     A
C210   Cl213   1.774   .     S
Cl211  C247    1.772   .     S
Cl215  C308    1.772   1_455 S
Cu223  Cu224   2.683   .     S
Cu223  N230    2.015   .     S
Cu223  O237    1.973   .     S
Cu223  O240    1.970   .     S
Cu223  O236    1.960   .     S
Cu223  O233    1.944   .     S
Cu224  N229    2.015   .     S
Cu224  O235    1.960   .     S
Cu224  O239    1.970   .     S
Cu224  O234    1.944   .     S
Cu224  O238    1.973   .     S
C241   O295    1.292   .     A
C241   O293    1.298   .     A
C241   C254    1.461   .     S
C242   C244    1.418   .     A
C242   Cl274   1.774   .     S
C242   C269    1.413   .     A
C243   C263    1.426   .     A
C243   C270    1.418   .     A
C243   C604    1.546   1_554 S
C244   C265    1.426   .     A
C244   C603    1.546   .     S
C245   C247    1.431   .     S
C245   O297    1.283   .     A
C245   O299    1.293   .     A
C246   O300    1.293   .     A
C246   O298    1.283   .     A
C246   C248    1.431   .     S
C248   C307    1.351   .     S
C248   Cl335   1.772   .     S
C249   Cl276   1.767   .     S
C249   C260    1.416   .     A
C249   C251    1.391   .     A
C250   Cl277   1.767   .     S
C250   C253    1.391   .     A
C250   C261    1.416   .     A
C251   C254    1.397   .     A
C251   H285    1.084   .     S
C252   C255    1.461   .     S
C252   O296    1.292   .     A
C252   O294    1.298   .     A
C253   C255    1.397   .     A
C253   H286    1.084   .     S
C254   C256    1.411   .     A
C255   C257    1.411   .     A
C256   C258    1.400   .     A
C256   Cl278   1.770   .     S
C257   C259    1.400   .     A
C257   Cl279   1.770   .     S
C258   C260    1.415   .     A
C258   Cl280   1.772   .     S
C259   C261    1.415   .     A
C259   Cl281   1.772   .     S
C261   C80     1.510   1_565 S
C262   C268    1.442   .     S
C262   N291    1.158   .     T
C263   Cl282   1.766   .     S
C263   C266    1.408   .     A
C264   N292    1.158   .     T
C264   C269    1.442   .     S
C265   C267    1.408   .     A
C265   Cl272   1.766   .     S
C266   H287    1.079   .     S
C266   N289    1.359   .     A
C267   N290    1.359   .     A
C267   H288    1.079   .     S
C268   N289    1.370   .     A
C268   C270    1.413   .     A
C269   N290    1.370   .     A
C270   Cl273   1.774   .     S
Cl271  C307    1.772   .     S
Cu283  Cu284   2.683   .     S
Cu283  N290    2.015   .     S
Cu283  O297    1.973   .     S
Cu283  O300    1.970   .     S
Cu283  O296    1.960   .     S
Cu283  O293    1.944   .     S
Cu284  N289    2.015   .     S
Cu284  O295    1.960   .     S
Cu284  O299    1.970   .     S
Cu284  O294    1.944   .     S
Cu284  O298    1.973   .     S
C301   O355    1.292   .     A
C301   O353    1.298   .     A
C301   C314    1.461   .     S
C302   C304    1.418   .     A
C302   Cl334   1.774   .     S
C302   C329    1.413   .     A
C303   C323    1.426   .     A
C303   C330    1.418   .     A
C303   C664    1.546   1_554 S
C304   C325    1.426   .     A
C304   C663    1.546   .     S
C305   C307    1.431   .     S
C305   O357    1.283   .     A
C305   O359    1.293   .     A
C306   O360    1.293   .     A
C306   O358    1.283   .     A
C306   C308    1.431   .     S
C308   C187    1.351   1_655 S
C308   Cl215   1.772   1_655 S
C309   Cl336   1.767   .     S
C309   C320    1.416   .     A
C309   C311    1.391   .     A
C310   Cl337   1.767   .     S
C310   C313    1.391   .     A
C310   C321    1.416   .     A
C311   C314    1.397   .     A
C311   H345    1.084   .     S
C312   C315    1.461   .     S
C312   O356    1.292   .     A
C312   O354    1.298   .     A
C313   C315    1.397   .     A
C313   H346    1.084   .     S
C314   C316    1.411   .     A
C315   C317    1.411   .     A
C316   C318    1.400   .     A
C316   Cl338   1.770   .     S
C317   C319    1.400   .     A
C317   Cl339   1.770   .     S
C318   C320    1.415   .     A
C318   Cl340   1.772   .     S
C319   C321    1.415   .     A
C319   Cl341   1.772   .     S
C321   C140    1.510   1_565 S
C322   C328    1.442   .     S
C322   N351    1.158   .     T
C323   Cl342   1.766   .     S
C323   C326    1.408   .     A
C324   N352    1.158   .     T
C324   C329    1.442   .     S
C325   C327    1.408   .     A
C325   Cl332   1.766   .     S
C326   H347    1.079   .     S
C326   N349    1.359   .     A
C327   N350    1.359   .     A
C327   H348    1.079   .     S
C328   N349    1.370   .     A
C328   C330    1.413   .     A
C329   N350    1.370   .     A
C330   Cl333   1.774   .     S
Cl331  C187    1.772   1_655 S
Cu343  Cu344   2.683   .     S
Cu343  N350    2.015   .     S
Cu343  O357    1.973   .     S
Cu343  O360    1.970   .     S
Cu343  O356    1.960   .     S
Cu343  O353    1.944   .     S
Cu344  N349    2.015   .     S
Cu344  O355    1.960   .     S
Cu344  O359    1.970   .     S
Cu344  O354    1.944   .     S
Cu344  O358    1.973   .     S
C361   O415    1.292   .     A
C361   O413    1.298   .     A
C361   C374    1.461   .     S
C362   C364    1.418   .     A
C362   Cl394   1.774   .     S
C362   C389    1.413   .     A
C363   C383    1.426   .     A
C363   C390    1.418   .     A
C364   C385    1.426   .     A
C364   C3      1.546   1_556 S
C365   C367    1.431   .     S
C365   O417    1.283   .     A
C365   O419    1.293   .     A
C366   O420    1.293   .     A
C366   O418    1.283   .     A
C366   C368    1.431   .     S
C367   C488    1.351   1_455 S
C367   Cl511   1.772   1_455 S
C368   C427    1.351   .     S
C368   Cl455   1.772   .     S
C369   Cl396   1.767   .     S
C369   C380    1.416   .     A
C369   C371    1.391   .     A
C370   Cl397   1.767   .     S
C370   C373    1.391   .     A
C370   C381    1.416   .     A
C371   C374    1.397   .     A
C371   H405    1.084   .     S
C372   C375    1.461   .     S
C372   O416    1.292   .     A
C372   O414    1.298   .     A
C373   C375    1.397   .     A
C373   H406    1.084   .     S
C374   C376    1.411   .     A
C375   C377    1.411   .     A
C376   C378    1.400   .     A
C376   Cl398   1.770   .     S
C377   C379    1.400   .     A
C377   Cl399   1.770   .     S
C378   C380    1.415   .     A
C378   Cl400   1.772   .     S
C379   C381    1.415   .     A
C379   Cl401   1.772   .     S
C380   C561    1.510   1_545 S
C381   C560    1.510   .     S
C382   C388    1.442   .     S
C382   N411    1.158   .     T
C383   Cl402   1.766   .     S
C383   C386    1.408   .     A
C384   N412    1.158   .     T
C384   C389    1.442   .     S
C385   C387    1.408   .     A
C385   Cl392   1.766   .     S
C386   H407    1.079   .     S
C386   N409    1.359   .     A
C387   N410    1.359   .     A
C387   H408    1.079   .     S
C388   N409    1.370   .     A
C388   C390    1.413   .     A
C389   N410    1.370   .     A
C390   Cl393   1.774   .     S
Cl391  C427    1.772   .     S
Cl395  C488    1.772   1_455 S
Cu403  Cu404   2.683   .     S
Cu403  N410    2.015   .     S
Cu403  O417    1.973   .     S
Cu403  O420    1.970   .     S
Cu403  O416    1.960   .     S
Cu403  O413    1.944   .     S
Cu404  N409    2.015   .     S
Cu404  O415    1.960   .     S
Cu404  O419    1.970   .     S
Cu404  O414    1.944   .     S
Cu404  O418    1.973   .     S
C421   O475    1.292   .     A
C421   O473    1.298   .     A
C421   C434    1.461   .     S
C422   C424    1.418   .     A
C422   Cl454   1.774   .     S
C422   C449    1.413   .     A
C423   C443    1.426   .     A
C423   C450    1.418   .     A
C424   C445    1.426   .     A
C424   C63     1.546   1_556 S
C425   C427    1.431   .     S
C425   O477    1.283   .     A
C425   O479    1.293   .     A
C426   O480    1.293   .     A
C426   O478    1.283   .     A
C426   C428    1.431   .     S
C428   C487    1.351   .     S
C428   Cl515   1.772   .     S
C429   Cl456   1.767   .     S
C429   C440    1.416   .     A
C429   C431    1.391   .     A
C430   Cl457   1.767   .     S
C430   C433    1.391   .     A
C430   C441    1.416   .     A
C431   C434    1.397   .     A
C431   H465    1.084   .     S
C432   C435    1.461   .     S
C432   O476    1.292   .     A
C432   O474    1.298   .     A
C433   C435    1.397   .     A
C433   H466    1.084   .     S
C434   C436    1.411   .     A
C435   C437    1.411   .     A
C436   C438    1.400   .     A
C436   Cl458   1.770   .     S
C437   C439    1.400   .     A
C437   Cl459   1.770   .     S
C438   C440    1.415   .     A
C438   Cl460   1.772   .     S
C439   C441    1.415   .     A
C439   Cl461   1.772   .     S
C440   C621    1.510   1_545 S
C441   C620    1.510   .     S
C442   C448    1.442   .     S
C442   N471    1.158   .     T
C443   Cl462   1.766   .     S
C443   C446    1.408   .     A
C444   N472    1.158   .     T
C444   C449    1.442   .     S
C445   C447    1.408   .     A
C445   Cl452   1.766   .     S
C446   H467    1.079   .     S
C446   N469    1.359   .     A
C447   N470    1.359   .     A
C447   H468    1.079   .     S
C448   N469    1.370   .     A
C448   C450    1.413   .     A
C449   N470    1.370   .     A
C450   Cl453   1.774   .     S
Cl451  C487    1.772   .     S
Cu463  Cu464   2.683   .     S
Cu463  N470    2.015   .     S
Cu463  O477    1.973   .     S
Cu463  O480    1.970   .     S
Cu463  O476    1.960   .     S
Cu463  O473    1.944   .     S
Cu464  N469    2.015   .     S
Cu464  O475    1.960   .     S
Cu464  O479    1.970   .     S
Cu464  O474    1.944   .     S
Cu464  O478    1.973   .     S
C481   O535    1.292   .     A
C481   O533    1.298   .     A
C481   C494    1.461   .     S
C482   C484    1.418   .     A
C482   Cl514   1.774   .     S
C482   C509    1.413   .     A
C483   C503    1.426   .     A
C483   C510    1.418   .     A
C484   C505    1.426   .     A
C484   C123    1.546   1_556 S
C485   C487    1.431   .     S
C485   O537    1.283   .     A
C485   O539    1.293   .     A
C486   O540    1.293   .     A
C486   O538    1.283   .     A
C486   C488    1.431   .     S
C488   C367    1.351   1_655 S
C488   Cl395   1.772   1_655 S
C489   Cl516   1.767   .     S
C489   C500    1.416   .     A
C489   C491    1.391   .     A
C490   Cl517   1.767   .     S
C490   C493    1.391   .     A
C490   C501    1.416   .     A
C491   C494    1.397   .     A
C491   H525    1.084   .     S
C492   C495    1.461   .     S
C492   O536    1.292   .     A
C492   O534    1.298   .     A
C493   C495    1.397   .     A
C493   H526    1.084   .     S
C494   C496    1.411   .     A
C495   C497    1.411   .     A
C496   C498    1.400   .     A
C496   Cl518   1.770   .     S
C497   C499    1.400   .     A
C497   Cl519   1.770   .     S
C498   C500    1.415   .     A
C498   Cl520   1.772   .     S
C499   C501    1.415   .     A
C499   Cl521   1.772   .     S
C500   C681    1.510   1_545 S
C501   C680    1.510   .     S
C502   C508    1.442   .     S
C502   N531    1.158   .     T
C503   Cl522   1.766   .     S
C503   C506    1.408   .     A
C504   N532    1.158   .     T
C504   C509    1.442   .     S
C505   C507    1.408   .     A
C505   Cl512   1.766   .     S
C506   H527    1.079   .     S
C506   N529    1.359   .     A
C507   N530    1.359   .     A
C507   H528    1.079   .     S
C508   N529    1.370   .     A
C508   C510    1.413   .     A
C509   N530    1.370   .     A
C510   Cl513   1.774   .     S
Cl511  C367    1.772   1_655 S
Cu523  Cu524   2.683   .     S
Cu523  N530    2.015   .     S
Cu523  O537    1.973   .     S
Cu523  O540    1.970   .     S
Cu523  O536    1.960   .     S
Cu523  O533    1.944   .     S
Cu524  N529    2.015   .     S
Cu524  O535    1.960   .     S
Cu524  O539    1.970   .     S
Cu524  O534    1.944   .     S
Cu524  O538    1.973   .     S
C541   O595    1.292   .     A
C541   O593    1.298   .     A
C541   C554    1.461   .     S
C542   C544    1.418   .     A
C542   Cl574   1.774   .     S
C542   C569    1.413   .     A
C543   C563    1.426   .     A
C543   C570    1.418   .     A
C544   C565    1.426   .     A
C544   C183    1.546   1_556 S
C545   C547    1.431   .     S
C545   O597    1.283   .     A
C545   O599    1.293   .     A
C546   O600    1.293   .     A
C546   O598    1.283   .     A
C546   C548    1.431   .     S
C547   C668    1.351   1_455 S
C547   Cl691   1.772   1_455 S
C548   C607    1.351   .     S
C548   Cl635   1.772   .     S
C549   Cl576   1.767   .     S
C549   C560    1.416   .     A
C549   C551    1.391   .     A
C550   Cl577   1.767   .     S
C550   C553    1.391   .     A
C550   C561    1.416   .     A
C551   C554    1.397   .     A
C551   H585    1.084   .     S
C552   C555    1.461   .     S
C552   O596    1.292   .     A
C552   O594    1.298   .     A
C553   C555    1.397   .     A
C553   H586    1.084   .     S
C554   C556    1.411   .     A
C555   C557    1.411   .     A
C556   C558    1.400   .     A
C556   Cl578   1.770   .     S
C557   C559    1.400   .     A
C557   Cl579   1.770   .     S
C558   C560    1.415   .     A
C558   Cl580   1.772   .     S
C559   C561    1.415   .     A
C559   Cl581   1.772   .     S
C561   C380    1.510   1_565 S
C562   C568    1.442   .     S
C562   N591    1.158   .     T
C563   Cl582   1.766   .     S
C563   C566    1.408   .     A
C564   N592    1.158   .     T
C564   C569    1.442   .     S
C565   C567    1.408   .     A
C565   Cl572   1.766   .     S
C566   H587    1.079   .     S
C566   N589    1.359   .     A
C567   N590    1.359   .     A
C567   H588    1.079   .     S
C568   N589    1.370   .     A
C568   C570    1.413   .     A
C569   N590    1.370   .     A
C570   Cl573   1.774   .     S
Cl571  C607    1.772   .     S
Cl575  C668    1.772   1_455 S
Cu583  Cu584   2.683   .     S
Cu583  N590    2.015   .     S
Cu583  O597    1.973   .     S
Cu583  O600    1.970   .     S
Cu583  O596    1.960   .     S
Cu583  O593    1.944   .     S
Cu584  N589    2.015   .     S
Cu584  O595    1.960   .     S
Cu584  O599    1.970   .     S
Cu584  O594    1.944   .     S
Cu584  O598    1.973   .     S
C601   O655    1.292   .     A
C601   O653    1.298   .     A
C601   C614    1.461   .     S
C602   C604    1.418   .     A
C602   Cl634   1.774   .     S
C602   C629    1.413   .     A
C603   C623    1.426   .     A
C603   C630    1.418   .     A
C604   C625    1.426   .     A
C604   C243    1.546   1_556 S
C605   C607    1.431   .     S
C605   O657    1.283   .     A
C605   O659    1.293   .     A
C606   O660    1.293   .     A
C606   O658    1.283   .     A
C606   C608    1.431   .     S
C608   C667    1.351   .     S
C608   Cl695   1.772   .     S
C609   Cl636   1.767   .     S
C609   C620    1.416   .     A
C609   C611    1.391   .     A
C610   Cl637   1.767   .     S
C610   C613    1.391   .     A
C610   C621    1.416   .     A
C611   C614    1.397   .     A
C611   H645    1.084   .     S
C612   C615    1.461   .     S
C612   O656    1.292   .     A
C612   O654    1.298   .     A
C613   C615    1.397   .     A
C613   H646    1.084   .     S
C614   C616    1.411   .     A
C615   C617    1.411   .     A
C616   C618    1.400   .     A
C616   Cl638   1.770   .     S
C617   C619    1.400   .     A
C617   Cl639   1.770   .     S
C618   C620    1.415   .     A
C618   Cl640   1.772   .     S
C619   C621    1.415   .     A
C619   Cl641   1.772   .     S
C621   C440    1.510   1_565 S
C622   C628    1.442   .     S
C622   N651    1.158   .     T
C623   Cl642   1.766   .     S
C623   C626    1.408   .     A
C624   N652    1.158   .     T
C624   C629    1.442   .     S
C625   C627    1.408   .     A
C625   Cl632   1.766   .     S
C626   H647    1.079   .     S
C626   N649    1.359   .     A
C627   N650    1.359   .     A
C627   H648    1.079   .     S
C628   N649    1.370   .     A
C628   C630    1.413   .     A
C629   N650    1.370   .     A
C630   Cl633   1.774   .     S
Cl631  C667    1.772   .     S
Cu643  Cu644   2.683   .     S
Cu643  N650    2.015   .     S
Cu643  O657    1.973   .     S
Cu643  O660    1.970   .     S
Cu643  O656    1.960   .     S
Cu643  O653    1.944   .     S
Cu644  N649    2.015   .     S
Cu644  O655    1.960   .     S
Cu644  O659    1.970   .     S
Cu644  O654    1.944   .     S
Cu644  O658    1.973   .     S
C661   O715    1.292   .     A
C661   O713    1.298   .     A
C661   C674    1.461   .     S
C662   C664    1.418   .     A
C662   Cl694   1.774   .     S
C662   C689    1.413   .     A
C663   C683    1.426   .     A
C663   C690    1.418   .     A
C664   C685    1.426   .     A
C664   C303    1.546   1_556 S
C665   C667    1.431   .     S
C665   O717    1.283   .     A
C665   O719    1.293   .     A
C666   O720    1.293   .     A
C666   O718    1.283   .     A
C666   C668    1.431   .     S
C668   C547    1.351   1_655 S
C668   Cl575   1.772   1_655 S
C669   Cl696   1.767   .     S
C669   C680    1.416   .     A
C669   C671    1.391   .     A
C670   Cl697   1.767   .     S
C670   C673    1.391   .     A
C670   C681    1.416   .     A
C671   C674    1.397   .     A
C671   H705    1.084   .     S
C672   C675    1.461   .     S
C672   O716    1.292   .     A
C672   O714    1.298   .     A
C673   C675    1.397   .     A
C673   H706    1.084   .     S
C674   C676    1.411   .     A
C675   C677    1.411   .     A
C676   C678    1.400   .     A
C676   Cl698   1.770   .     S
C677   C679    1.400   .     A
C677   Cl699   1.770   .     S
C678   C680    1.415   .     A
C678   Cl700   1.772   .     S
C679   C681    1.415   .     A
C679   Cl701   1.772   .     S
C681   C500    1.510   1_565 S
C682   C688    1.442   .     S
C682   N711    1.158   .     T
C683   Cl702   1.766   .     S
C683   C686    1.408   .     A
C684   N712    1.158   .     T
C684   C689    1.442   .     S
C685   C687    1.408   .     A
C685   Cl692   1.766   .     S
C686   H707    1.079   .     S
C686   N709    1.359   .     A
C687   N710    1.359   .     A
C687   H708    1.079   .     S
C688   N709    1.370   .     A
C688   C690    1.413   .     A
C689   N710    1.370   .     A
C690   Cl693   1.774   .     S
Cl691  C547    1.772   1_655 S
Cu703  Cu704   2.683   .     S
Cu703  N710    2.015   .     S
Cu703  O717    1.973   .     S
Cu703  O720    1.970   .     S
Cu703  O716    1.960   .     S
Cu703  O713    1.944   .     S
Cu704  N709    2.015   .     S
Cu704  O715    1.960   .     S
Cu704  O719    1.970   .     S
Cu704  O714    1.944   .     S
Cu704  O718    1.973   .     S
