data_str_m2_o10_o17_pcu_sym.23
_audit_creation_date              2020-01-03
_audit_creation_method            'Materials Studio'
_symmetry_space_group_name_H-M    'P1'
_symmetry_Int_Tables_number       1
_symmetry_cell_setting            triclinic
loop_
_symmetry_equiv_pos_as_xyz
  x,y,z
_cell_length_a                    29.9177
_cell_length_b                    26.0115
_cell_length_c                    22.3542
_cell_angle_alpha                 102.8576
_cell_angle_beta                  93.9699
_cell_angle_gamma                 92.3326
loop_
_atom_site_label
_atom_site_type_symbol
_atom_site_fract_x
_atom_site_fract_y
_atom_site_fract_z
_atom_site_U_iso_or_equiv
_atom_site_adp_type
_atom_site_occupancy
C1     C     0.24866   0.06660   0.15112   0.00000  Uiso   1.00
C2     C     0.09082   0.11961   0.14621   0.00000  Uiso   1.00
C3     C     0.38346   0.16683   0.16384   0.00000  Uiso   1.00
C4     C     0.11654   0.16651   0.16949   0.00000  Uiso   1.00
C5     C     0.40342   0.11967   0.14114   0.00000  Uiso   1.00
C6     C     0.09658   0.21367   0.19219   0.00000  Uiso   1.00
C7     C     0.45028   0.11849   0.14234   0.00000  Uiso   1.00
C8     C     0.04972   0.21485   0.19098   0.00000  Uiso   1.00
C9     C     0.47652   0.16644   0.16578   0.00000  Uiso   1.00
C10    C     0.02348   0.16689   0.16754   0.00000  Uiso   1.00
C11    C     0.45572   0.21404   0.18774   0.00000  Uiso   1.00
C12    C     0.25134   0.26673   0.18222   0.00000  Uiso   1.00
C13    C     0.04428   0.11929   0.14559   0.00000  Uiso   1.00
C14    C     0.47161   0.07087   0.12133   0.00000  Uiso   1.00
C15    C     0.02839   0.26247   0.21199   0.00000  Uiso   1.00
C16    C     0.44540   0.01863   0.09739   0.00000  Uiso   1.00
C17    C     0.05460   0.31471   0.23594   0.00000  Uiso   1.00
C18    C     0.01848   0.07201   0.12305   0.00000  Uiso   1.00
C19    C     0.48152   0.26133   0.21028   0.00000  Uiso   1.00
C20    C     0.24801   0.01063   0.14235   0.00000  Uiso   1.00
C21    C     0.25199   0.32270   0.19098   0.00000  Uiso   1.00
C22    C     0.16458   0.16657   0.16759   0.00000  Uiso   1.00
C23    C     0.33542   0.16676   0.16575   0.00000  Uiso   1.00
C24    C     0.40918   0.21372   0.18712   0.00000  Uiso   1.00
Cu25   Cu    0.25500   0.17246   0.22813   0.00000  Uiso   1.00
Cu26   Cu    0.24499   0.16087   0.10521   0.00000  Uiso   1.00
H27    H     0.39279   0.24987   0.20460   0.00000  Uiso   1.00
H28    H     0.28495   0.20742   0.01707   0.00000  Uiso   1.00
H29    H     0.42510   0.00927   0.13376   0.00000  Uiso   1.00
H30    H     0.42294   0.02052   0.05635   0.00000  Uiso   1.00
H31    H     0.46777   0.31902   0.08364   0.00000  Uiso   1.00
H32    H     0.07706   0.31282   0.27697   0.00000  Uiso   1.00
H33    H     0.07489   0.32406   0.19956   0.00000  Uiso   1.00
H34    H     0.03223   0.01431   0.24968   0.00000  Uiso   1.00
H35    H     0.10721   0.08345   0.12875   0.00000  Uiso   1.00
H36    H     0.38198   0.08414   0.12390   0.00000  Uiso   1.00
H37    H     0.11802   0.24919   0.20942   0.00000  Uiso   1.00
H38    H     0.03505   0.03577   0.10678   0.00000  Uiso   1.00
H39    H     0.46495   0.29756   0.22655   0.00000  Uiso   1.00
H40    H     0.24426   0.32015   0.09548   0.00000  Uiso   1.00
H41    H     0.25574   0.01319   0.23785   0.00000  Uiso   1.00
H42    H     0.21505   0.12591   0.31626   0.00000  Uiso   1.00
N43    N     0.23744   0.15214   0.01284   0.00000  Uiso   1.00
N44    N     0.26255   0.18119   0.32049   0.00000  Uiso   1.00
O45    O     0.25325   0.09538   0.20659   0.00000  Uiso   1.00
O46    O     0.24674   0.23796   0.12674   0.00000  Uiso   1.00
O47    O     0.24480   0.08559   0.10279   0.00000  Uiso   1.00
O48    O     0.25520   0.24774   0.23055   0.00000  Uiso   1.00
O49    O     0.18935   0.17155   0.21857   0.00000  Uiso   1.00
O50    O     0.31064   0.16179   0.11476   0.00000  Uiso   1.00
O51    O     0.18090   0.16176   0.11477   0.00000  Uiso   1.00
O52    O     0.31910   0.17157   0.21857   0.00000  Uiso   1.00
C53    C     0.74866   0.06660   0.15112   0.00000  Uiso   1.00
C54    C     0.59082   0.11961   0.14621   0.00000  Uiso   1.00
C55    C     0.88346   0.16683   0.16384   0.00000  Uiso   1.00
C56    C     0.61654   0.16651   0.16949   0.00000  Uiso   1.00
C57    C     0.90342   0.11967   0.14114   0.00000  Uiso   1.00
C58    C     0.59658   0.21367   0.19219   0.00000  Uiso   1.00
C59    C     0.95028   0.11849   0.14234   0.00000  Uiso   1.00
C60    C     0.54972   0.21485   0.19098   0.00000  Uiso   1.00
C61    C     0.97652   0.16644   0.16578   0.00000  Uiso   1.00
C62    C     0.52348   0.16689   0.16754   0.00000  Uiso   1.00
C63    C     0.95572   0.21404   0.18774   0.00000  Uiso   1.00
C64    C     0.75134   0.26673   0.18222   0.00000  Uiso   1.00
C65    C     0.54428   0.11929   0.14559   0.00000  Uiso   1.00
C66    C     0.97161   0.07087   0.12133   0.00000  Uiso   1.00
C67    C     0.52839   0.26247   0.21199   0.00000  Uiso   1.00
C68    C     0.94540   0.01863   0.09739   0.00000  Uiso   1.00
C69    C     0.55460   0.31471   0.23594   0.00000  Uiso   1.00
C70    C     0.51848   0.07201   0.12305   0.00000  Uiso   1.00
C71    C     0.98152   0.26133   0.21028   0.00000  Uiso   1.00
C72    C     0.74801   0.01063   0.14235   0.00000  Uiso   1.00
C73    C     0.75199   0.32270   0.19098   0.00000  Uiso   1.00
C74    C     0.66458   0.16657   0.16759   0.00000  Uiso   1.00
C75    C     0.83542   0.16676   0.16575   0.00000  Uiso   1.00
C76    C     0.90918   0.21372   0.18712   0.00000  Uiso   1.00
Cu77   Cu    0.75500   0.17246   0.22813   0.00000  Uiso   1.00
Cu78   Cu    0.74499   0.16087   0.10521   0.00000  Uiso   1.00
H79    H     0.89279   0.24987   0.20460   0.00000  Uiso   1.00
H80    H     0.78495   0.20742   0.01707   0.00000  Uiso   1.00
H81    H     0.92510   0.00927   0.13376   0.00000  Uiso   1.00
H82    H     0.92294   0.02052   0.05635   0.00000  Uiso   1.00
H83    H     0.96777   0.31902   0.08364   0.00000  Uiso   1.00
H84    H     0.57706   0.31282   0.27697   0.00000  Uiso   1.00
H85    H     0.57489   0.32406   0.19956   0.00000  Uiso   1.00
H86    H     0.53223   0.01431   0.24968   0.00000  Uiso   1.00
H87    H     0.60721   0.08345   0.12875   0.00000  Uiso   1.00
H88    H     0.88198   0.08414   0.12390   0.00000  Uiso   1.00
H89    H     0.61802   0.24919   0.20942   0.00000  Uiso   1.00
H90    H     0.53505   0.03577   0.10678   0.00000  Uiso   1.00
H91    H     0.96495   0.29756   0.22655   0.00000  Uiso   1.00
H92    H     0.74426   0.32015   0.09548   0.00000  Uiso   1.00
H93    H     0.75574   0.01319   0.23785   0.00000  Uiso   1.00
H94    H     0.71505   0.12591   0.31626   0.00000  Uiso   1.00
N95    N     0.73744   0.15214   0.01284   0.00000  Uiso   1.00
N96    N     0.76255   0.18119   0.32049   0.00000  Uiso   1.00
O97    O     0.75325   0.09538   0.20659   0.00000  Uiso   1.00
O98    O     0.74674   0.23796   0.12674   0.00000  Uiso   1.00
O99    O     0.74480   0.08559   0.10279   0.00000  Uiso   1.00
O100   O     0.75520   0.24774   0.23055   0.00000  Uiso   1.00
O101   O     0.68935   0.17155   0.21857   0.00000  Uiso   1.00
O102   O     0.81064   0.16179   0.11476   0.00000  Uiso   1.00
O103   O     0.68090   0.16176   0.11477   0.00000  Uiso   1.00
O104   O     0.81910   0.17157   0.21857   0.00000  Uiso   1.00
C105   C     0.24866   0.39993   0.15112   0.00000  Uiso   1.00
C106   C     0.09082   0.45294   0.14621   0.00000  Uiso   1.00
C107   C     0.38346   0.50016   0.16384   0.00000  Uiso   1.00
C108   C     0.11654   0.49984   0.16949   0.00000  Uiso   1.00
C109   C     0.40342   0.45300   0.14114   0.00000  Uiso   1.00
C110   C     0.09658   0.54700   0.19219   0.00000  Uiso   1.00
C111   C     0.45028   0.45182   0.14234   0.00000  Uiso   1.00
C112   C     0.04972   0.54818   0.19098   0.00000  Uiso   1.00
C113   C     0.47652   0.49978   0.16578   0.00000  Uiso   1.00
C114   C     0.02348   0.50022   0.16754   0.00000  Uiso   1.00
C115   C     0.45572   0.54738   0.18774   0.00000  Uiso   1.00
C116   C     0.25134   0.60007   0.18222   0.00000  Uiso   1.00
C117   C     0.04428   0.45262   0.14559   0.00000  Uiso   1.00
C118   C     0.47161   0.40420   0.12133   0.00000  Uiso   1.00
C119   C     0.02839   0.59580   0.21199   0.00000  Uiso   1.00
C120   C     0.44540   0.35196   0.09739   0.00000  Uiso   1.00
C121   C     0.05460   0.64804   0.23594   0.00000  Uiso   1.00
C122   C     0.01848   0.40534   0.12305   0.00000  Uiso   1.00
C123   C     0.48152   0.59466   0.21028   0.00000  Uiso   1.00
C124   C     0.24801   0.34396   0.14235   0.00000  Uiso   1.00
C125   C     0.25199   0.65604   0.19098   0.00000  Uiso   1.00
C126   C     0.16458   0.49991   0.16759   0.00000  Uiso   1.00
C127   C     0.33542   0.50009   0.16575   0.00000  Uiso   1.00
C128   C     0.40918   0.54705   0.18712   0.00000  Uiso   1.00
Cu129  Cu    0.25500   0.50579   0.22813   0.00000  Uiso   1.00
Cu130  Cu    0.24499   0.49421   0.10521   0.00000  Uiso   1.00
H131   H     0.39279   0.58321   0.20460   0.00000  Uiso   1.00
H132   H     0.28495   0.54075   0.01707   0.00000  Uiso   1.00
H133   H     0.42510   0.34260   0.13376   0.00000  Uiso   1.00
H134   H     0.42294   0.35385   0.05635   0.00000  Uiso   1.00
H135   H     0.46777   0.65235   0.08364   0.00000  Uiso   1.00
H136   H     0.07706   0.64615   0.27697   0.00000  Uiso   1.00
H137   H     0.07489   0.65740   0.19956   0.00000  Uiso   1.00
H138   H     0.03223   0.34765   0.24968   0.00000  Uiso   1.00
H139   H     0.10721   0.41679   0.12875   0.00000  Uiso   1.00
H140   H     0.38198   0.41748   0.12390   0.00000  Uiso   1.00
H141   H     0.11802   0.58253   0.20942   0.00000  Uiso   1.00
H142   H     0.03505   0.36911   0.10678   0.00000  Uiso   1.00
H143   H     0.46495   0.63089   0.22655   0.00000  Uiso   1.00
H144   H     0.24426   0.65348   0.09548   0.00000  Uiso   1.00
H145   H     0.25574   0.34652   0.23785   0.00000  Uiso   1.00
H146   H     0.21505   0.45925   0.31626   0.00000  Uiso   1.00
N147   N     0.23744   0.48547   0.01284   0.00000  Uiso   1.00
N148   N     0.26255   0.51453   0.32049   0.00000  Uiso   1.00
O149   O     0.25325   0.42871   0.20659   0.00000  Uiso   1.00
O150   O     0.24674   0.57129   0.12674   0.00000  Uiso   1.00
O151   O     0.24480   0.41892   0.10279   0.00000  Uiso   1.00
O152   O     0.25520   0.58108   0.23055   0.00000  Uiso   1.00
O153   O     0.18935   0.50488   0.21857   0.00000  Uiso   1.00
O154   O     0.31064   0.49512   0.11476   0.00000  Uiso   1.00
O155   O     0.18090   0.49510   0.11477   0.00000  Uiso   1.00
O156   O     0.31910   0.50490   0.21857   0.00000  Uiso   1.00
C157   C     0.74866   0.39993   0.15112   0.00000  Uiso   1.00
C158   C     0.59082   0.45294   0.14621   0.00000  Uiso   1.00
C159   C     0.88346   0.50016   0.16384   0.00000  Uiso   1.00
C160   C     0.61654   0.49984   0.16949   0.00000  Uiso   1.00
C161   C     0.90342   0.45300   0.14114   0.00000  Uiso   1.00
C162   C     0.59658   0.54700   0.19219   0.00000  Uiso   1.00
C163   C     0.95028   0.45182   0.14234   0.00000  Uiso   1.00
C164   C     0.54972   0.54818   0.19098   0.00000  Uiso   1.00
C165   C     0.97652   0.49978   0.16578   0.00000  Uiso   1.00
C166   C     0.52348   0.50022   0.16754   0.00000  Uiso   1.00
C167   C     0.95572   0.54738   0.18774   0.00000  Uiso   1.00
C168   C     0.75134   0.60007   0.18222   0.00000  Uiso   1.00
C169   C     0.54428   0.45262   0.14559   0.00000  Uiso   1.00
C170   C     0.97161   0.40420   0.12133   0.00000  Uiso   1.00
C171   C     0.52839   0.59580   0.21199   0.00000  Uiso   1.00
C172   C     0.94540   0.35196   0.09739   0.00000  Uiso   1.00
C173   C     0.55460   0.64804   0.23594   0.00000  Uiso   1.00
C174   C     0.51848   0.40534   0.12305   0.00000  Uiso   1.00
C175   C     0.98152   0.59466   0.21028   0.00000  Uiso   1.00
C176   C     0.74801   0.34396   0.14235   0.00000  Uiso   1.00
C177   C     0.75199   0.65604   0.19098   0.00000  Uiso   1.00
C178   C     0.66458   0.49991   0.16759   0.00000  Uiso   1.00
C179   C     0.83542   0.50009   0.16575   0.00000  Uiso   1.00
C180   C     0.90918   0.54705   0.18712   0.00000  Uiso   1.00
Cu181  Cu    0.75500   0.50579   0.22813   0.00000  Uiso   1.00
Cu182  Cu    0.74499   0.49421   0.10521   0.00000  Uiso   1.00
H183   H     0.89279   0.58321   0.20460   0.00000  Uiso   1.00
H184   H     0.78495   0.54075   0.01707   0.00000  Uiso   1.00
H185   H     0.92510   0.34260   0.13376   0.00000  Uiso   1.00
H186   H     0.92294   0.35385   0.05635   0.00000  Uiso   1.00
H187   H     0.96777   0.65235   0.08364   0.00000  Uiso   1.00
H188   H     0.57706   0.64615   0.27697   0.00000  Uiso   1.00
H189   H     0.57489   0.65740   0.19956   0.00000  Uiso   1.00
H190   H     0.53223   0.34765   0.24968   0.00000  Uiso   1.00
H191   H     0.60721   0.41679   0.12875   0.00000  Uiso   1.00
H192   H     0.88198   0.41748   0.12390   0.00000  Uiso   1.00
H193   H     0.61802   0.58253   0.20942   0.00000  Uiso   1.00
H194   H     0.53505   0.36911   0.10678   0.00000  Uiso   1.00
H195   H     0.96495   0.63089   0.22655   0.00000  Uiso   1.00
H196   H     0.74426   0.65348   0.09548   0.00000  Uiso   1.00
H197   H     0.75574   0.34652   0.23785   0.00000  Uiso   1.00
H198   H     0.71505   0.45925   0.31626   0.00000  Uiso   1.00
N199   N     0.73744   0.48547   0.01284   0.00000  Uiso   1.00
N200   N     0.76255   0.51453   0.32049   0.00000  Uiso   1.00
O201   O     0.75325   0.42871   0.20659   0.00000  Uiso   1.00
O202   O     0.74674   0.57129   0.12674   0.00000  Uiso   1.00
O203   O     0.74480   0.41892   0.10279   0.00000  Uiso   1.00
O204   O     0.75520   0.58108   0.23055   0.00000  Uiso   1.00
O205   O     0.68935   0.50488   0.21857   0.00000  Uiso   1.00
O206   O     0.81064   0.49512   0.11476   0.00000  Uiso   1.00
O207   O     0.68090   0.49510   0.11477   0.00000  Uiso   1.00
O208   O     0.81910   0.50490   0.21857   0.00000  Uiso   1.00
C209   C     0.24866   0.73327   0.15112   0.00000  Uiso   1.00
C210   C     0.09082   0.78628   0.14621   0.00000  Uiso   1.00
C211   C     0.38346   0.83349   0.16384   0.00000  Uiso   1.00
C212   C     0.11654   0.83317   0.16949   0.00000  Uiso   1.00
C213   C     0.40342   0.78633   0.14114   0.00000  Uiso   1.00
C214   C     0.09658   0.88034   0.19219   0.00000  Uiso   1.00
C215   C     0.45028   0.78515   0.14234   0.00000  Uiso   1.00
C216   C     0.04972   0.88151   0.19098   0.00000  Uiso   1.00
C217   C     0.47652   0.83311   0.16578   0.00000  Uiso   1.00
C218   C     0.02348   0.83356   0.16754   0.00000  Uiso   1.00
C219   C     0.45572   0.88071   0.18774   0.00000  Uiso   1.00
C220   C     0.25134   0.93340   0.18222   0.00000  Uiso   1.00
C221   C     0.04428   0.78596   0.14559   0.00000  Uiso   1.00
C222   C     0.47161   0.73753   0.12133   0.00000  Uiso   1.00
C223   C     0.02839   0.92913   0.21199   0.00000  Uiso   1.00
C224   C     0.44540   0.68529   0.09739   0.00000  Uiso   1.00
C225   C     0.05460   0.98137   0.23594   0.00000  Uiso   1.00
C226   C     0.01848   0.73867   0.12305   0.00000  Uiso   1.00
C227   C     0.48152   0.92799   0.21028   0.00000  Uiso   1.00
C228   C     0.24801   0.67730   0.14235   0.00000  Uiso   1.00
C229   C     0.25199   0.98937   0.19098   0.00000  Uiso   1.00
C230   C     0.16458   0.83324   0.16759   0.00000  Uiso   1.00
C231   C     0.33542   0.83343   0.16575   0.00000  Uiso   1.00
C232   C     0.40918   0.88039   0.18712   0.00000  Uiso   1.00
Cu233  Cu    0.25500   0.83913   0.22813   0.00000  Uiso   1.00
Cu234  Cu    0.24499   0.82754   0.10521   0.00000  Uiso   1.00
H235   H     0.39279   0.91654   0.20460   0.00000  Uiso   1.00
H236   H     0.28495   0.87409   0.01707   0.00000  Uiso   1.00
H237   H     0.42510   0.67594   0.13376   0.00000  Uiso   1.00
H238   H     0.42294   0.68718   0.05635   0.00000  Uiso   1.00
H239   H     0.46777   0.98568   0.08364   0.00000  Uiso   1.00
H240   H     0.07706   0.97949   0.27697   0.00000  Uiso   1.00
H241   H     0.07489   0.99073   0.19956   0.00000  Uiso   1.00
H242   H     0.03223   0.68098   0.24968   0.00000  Uiso   1.00
H243   H     0.10721   0.75012   0.12875   0.00000  Uiso   1.00
H244   H     0.38198   0.75081   0.12390   0.00000  Uiso   1.00
H245   H     0.11802   0.91586   0.20942   0.00000  Uiso   1.00
H246   H     0.03505   0.70244   0.10678   0.00000  Uiso   1.00
H247   H     0.46495   0.96422   0.22655   0.00000  Uiso   1.00
H248   H     0.24426   0.98681   0.09548   0.00000  Uiso   1.00
H249   H     0.25574   0.67985   0.23785   0.00000  Uiso   1.00
H250   H     0.21505   0.79258   0.31626   0.00000  Uiso   1.00
N251   N     0.23744   0.81881   0.01284   0.00000  Uiso   1.00
N252   N     0.26255   0.84786   0.32049   0.00000  Uiso   1.00
O253   O     0.25325   0.76204   0.20659   0.00000  Uiso   1.00
O254   O     0.24674   0.90462   0.12674   0.00000  Uiso   1.00
O255   O     0.24480   0.75226   0.10279   0.00000  Uiso   1.00
O256   O     0.25520   0.91441   0.23055   0.00000  Uiso   1.00
O257   O     0.18935   0.83821   0.21857   0.00000  Uiso   1.00
O258   O     0.31064   0.82845   0.11476   0.00000  Uiso   1.00
O259   O     0.18090   0.82843   0.11477   0.00000  Uiso   1.00
O260   O     0.31910   0.83824   0.21857   0.00000  Uiso   1.00
C261   C     0.74866   0.73327   0.15112   0.00000  Uiso   1.00
C262   C     0.59082   0.78628   0.14621   0.00000  Uiso   1.00
C263   C     0.88346   0.83349   0.16384   0.00000  Uiso   1.00
C264   C     0.61654   0.83317   0.16949   0.00000  Uiso   1.00
C265   C     0.90342   0.78633   0.14114   0.00000  Uiso   1.00
C266   C     0.59658   0.88034   0.19219   0.00000  Uiso   1.00
C267   C     0.95028   0.78515   0.14234   0.00000  Uiso   1.00
C268   C     0.54972   0.88151   0.19098   0.00000  Uiso   1.00
C269   C     0.97652   0.83311   0.16578   0.00000  Uiso   1.00
C270   C     0.52348   0.83356   0.16754   0.00000  Uiso   1.00
C271   C     0.95572   0.88071   0.18774   0.00000  Uiso   1.00
C272   C     0.75134   0.93340   0.18222   0.00000  Uiso   1.00
C273   C     0.54428   0.78596   0.14559   0.00000  Uiso   1.00
C274   C     0.97161   0.73753   0.12133   0.00000  Uiso   1.00
C275   C     0.52839   0.92913   0.21199   0.00000  Uiso   1.00
C276   C     0.94540   0.68529   0.09739   0.00000  Uiso   1.00
C277   C     0.55460   0.98137   0.23594   0.00000  Uiso   1.00
C278   C     0.51848   0.73867   0.12305   0.00000  Uiso   1.00
C279   C     0.98152   0.92799   0.21028   0.00000  Uiso   1.00
C280   C     0.74801   0.67730   0.14235   0.00000  Uiso   1.00
C281   C     0.75199   0.98937   0.19098   0.00000  Uiso   1.00
C282   C     0.66458   0.83324   0.16759   0.00000  Uiso   1.00
C283   C     0.83542   0.83343   0.16575   0.00000  Uiso   1.00
C284   C     0.90918   0.88039   0.18712   0.00000  Uiso   1.00
Cu285  Cu    0.75500   0.83913   0.22813   0.00000  Uiso   1.00
Cu286  Cu    0.74499   0.82754   0.10521   0.00000  Uiso   1.00
H287   H     0.89279   0.91654   0.20460   0.00000  Uiso   1.00
H288   H     0.78495   0.87409   0.01707   0.00000  Uiso   1.00
H289   H     0.92510   0.67594   0.13376   0.00000  Uiso   1.00
H290   H     0.92294   0.68718   0.05635   0.00000  Uiso   1.00
H291   H     0.96777   0.98568   0.08364   0.00000  Uiso   1.00
H292   H     0.57706   0.97949   0.27697   0.00000  Uiso   1.00
H293   H     0.57489   0.99073   0.19956   0.00000  Uiso   1.00
H294   H     0.53223   0.68098   0.24968   0.00000  Uiso   1.00
H295   H     0.60721   0.75012   0.12875   0.00000  Uiso   1.00
H296   H     0.88198   0.75081   0.12390   0.00000  Uiso   1.00
H297   H     0.61802   0.91586   0.20942   0.00000  Uiso   1.00
H298   H     0.53505   0.70244   0.10678   0.00000  Uiso   1.00
H299   H     0.96495   0.96422   0.22655   0.00000  Uiso   1.00
H300   H     0.74426   0.98681   0.09548   0.00000  Uiso   1.00
H301   H     0.75574   0.67985   0.23785   0.00000  Uiso   1.00
H302   H     0.71505   0.79258   0.31626   0.00000  Uiso   1.00
N303   N     0.73744   0.81881   0.01284   0.00000  Uiso   1.00
N304   N     0.76255   0.84786   0.32049   0.00000  Uiso   1.00
O305   O     0.75325   0.76204   0.20659   0.00000  Uiso   1.00
O306   O     0.74674   0.90462   0.12674   0.00000  Uiso   1.00
O307   O     0.74480   0.75226   0.10279   0.00000  Uiso   1.00
O308   O     0.75520   0.91441   0.23055   0.00000  Uiso   1.00
O309   O     0.68935   0.83821   0.21857   0.00000  Uiso   1.00
O310   O     0.81064   0.82845   0.11476   0.00000  Uiso   1.00
O311   O     0.68090   0.82843   0.11477   0.00000  Uiso   1.00
O312   O     0.81910   0.83824   0.21857   0.00000  Uiso   1.00
C313   C     0.24866   0.06660   0.48445   0.00000  Uiso   1.00
C314   C     0.09082   0.11961   0.47955   0.00000  Uiso   1.00
C315   C     0.38346   0.16683   0.49717   0.00000  Uiso   1.00
C316   C     0.11654   0.16651   0.50283   0.00000  Uiso   1.00
C317   C     0.40342   0.11967   0.47447   0.00000  Uiso   1.00
C318   C     0.09658   0.21367   0.52552   0.00000  Uiso   1.00
C319   C     0.45028   0.11849   0.47568   0.00000  Uiso   1.00
C320   C     0.04972   0.21485   0.52432   0.00000  Uiso   1.00
C321   C     0.47652   0.16644   0.49912   0.00000  Uiso   1.00
C322   C     0.02348   0.16689   0.50088   0.00000  Uiso   1.00
C323   C     0.45572   0.21404   0.52107   0.00000  Uiso   1.00
C324   C     0.25134   0.26673   0.51555   0.00000  Uiso   1.00
C325   C     0.04428   0.11929   0.47893   0.00000  Uiso   1.00
C326   C     0.47161   0.07087   0.45467   0.00000  Uiso   1.00
C327   C     0.02839   0.26247   0.54533   0.00000  Uiso   1.00
C328   C     0.44540   0.01863   0.43072   0.00000  Uiso   1.00
C329   C     0.05460   0.31471   0.56927   0.00000  Uiso   1.00
C330   C     0.01848   0.07201   0.45638   0.00000  Uiso   1.00
C331   C     0.48152   0.26133   0.54361   0.00000  Uiso   1.00
C332   C     0.24801   0.01063   0.47569   0.00000  Uiso   1.00
C333   C     0.25199   0.32270   0.52431   0.00000  Uiso   1.00
C334   C     0.16458   0.16657   0.50092   0.00000  Uiso   1.00
C335   C     0.33542   0.16676   0.49908   0.00000  Uiso   1.00
C336   C     0.40918   0.21372   0.52045   0.00000  Uiso   1.00
Cu337  Cu    0.25500   0.17246   0.56146   0.00000  Uiso   1.00
Cu338  Cu    0.24499   0.16087   0.43854   0.00000  Uiso   1.00
H339   H     0.39279   0.24987   0.53793   0.00000  Uiso   1.00
H340   H     0.28495   0.20742   0.35041   0.00000  Uiso   1.00
H341   H     0.42510   0.00927   0.46709   0.00000  Uiso   1.00
H342   H     0.42294   0.02052   0.38968   0.00000  Uiso   1.00
H343   H     0.46777   0.31902   0.41698   0.00000  Uiso   1.00
H344   H     0.07706   0.31282   0.61031   0.00000  Uiso   1.00
H345   H     0.07489   0.32406   0.53290   0.00000  Uiso   1.00
H346   H     0.03223   0.01431   0.58302   0.00000  Uiso   1.00
H347   H     0.10721   0.08345   0.46208   0.00000  Uiso   1.00
H348   H     0.38198   0.08414   0.45723   0.00000  Uiso   1.00
H349   H     0.11802   0.24919   0.54276   0.00000  Uiso   1.00
H350   H     0.03505   0.03577   0.44011   0.00000  Uiso   1.00
H351   H     0.46495   0.29756   0.55988   0.00000  Uiso   1.00
H352   H     0.24426   0.32015   0.42882   0.00000  Uiso   1.00
H353   H     0.25574   0.01319   0.57118   0.00000  Uiso   1.00
H354   H     0.21505   0.12591   0.64959   0.00000  Uiso   1.00
N355   N     0.23744   0.15214   0.34617   0.00000  Uiso   1.00
N356   N     0.26255   0.18119   0.65383   0.00000  Uiso   1.00
O357   O     0.25325   0.09538   0.53992   0.00000  Uiso   1.00
O358   O     0.24674   0.23796   0.46008   0.00000  Uiso   1.00
O359   O     0.24480   0.08559   0.43612   0.00000  Uiso   1.00
O360   O     0.25520   0.24774   0.56388   0.00000  Uiso   1.00
O361   O     0.18935   0.17155   0.55191   0.00000  Uiso   1.00
O362   O     0.31064   0.16179   0.44809   0.00000  Uiso   1.00
O363   O     0.18090   0.16176   0.44810   0.00000  Uiso   1.00
O364   O     0.31910   0.17157   0.55190   0.00000  Uiso   1.00
C365   C     0.74866   0.06660   0.48445   0.00000  Uiso   1.00
C366   C     0.59082   0.11961   0.47955   0.00000  Uiso   1.00
C367   C     0.88346   0.16683   0.49717   0.00000  Uiso   1.00
C368   C     0.61654   0.16651   0.50283   0.00000  Uiso   1.00
C369   C     0.90342   0.11967   0.47447   0.00000  Uiso   1.00
C370   C     0.59658   0.21367   0.52552   0.00000  Uiso   1.00
C371   C     0.95028   0.11849   0.47568   0.00000  Uiso   1.00
C372   C     0.54972   0.21485   0.52432   0.00000  Uiso   1.00
C373   C     0.97652   0.16644   0.49912   0.00000  Uiso   1.00
C374   C     0.52348   0.16689   0.50088   0.00000  Uiso   1.00
C375   C     0.95572   0.21404   0.52107   0.00000  Uiso   1.00
C376   C     0.75134   0.26673   0.51555   0.00000  Uiso   1.00
C377   C     0.54428   0.11929   0.47893   0.00000  Uiso   1.00
C378   C     0.97161   0.07087   0.45467   0.00000  Uiso   1.00
C379   C     0.52839   0.26247   0.54533   0.00000  Uiso   1.00
C380   C     0.94540   0.01863   0.43072   0.00000  Uiso   1.00
C381   C     0.55460   0.31471   0.56927   0.00000  Uiso   1.00
C382   C     0.51848   0.07201   0.45638   0.00000  Uiso   1.00
C383   C     0.98152   0.26133   0.54361   0.00000  Uiso   1.00
C384   C     0.74801   0.01063   0.47569   0.00000  Uiso   1.00
C385   C     0.75199   0.32270   0.52431   0.00000  Uiso   1.00
C386   C     0.66458   0.16657   0.50092   0.00000  Uiso   1.00
C387   C     0.83542   0.16676   0.49908   0.00000  Uiso   1.00
C388   C     0.90918   0.21372   0.52045   0.00000  Uiso   1.00
Cu389  Cu    0.75500   0.17246   0.56146   0.00000  Uiso   1.00
Cu390  Cu    0.74499   0.16087   0.43854   0.00000  Uiso   1.00
H391   H     0.89279   0.24987   0.53793   0.00000  Uiso   1.00
H392   H     0.78495   0.20742   0.35041   0.00000  Uiso   1.00
H393   H     0.92510   0.00927   0.46709   0.00000  Uiso   1.00
H394   H     0.92294   0.02052   0.38968   0.00000  Uiso   1.00
H395   H     0.96777   0.31902   0.41698   0.00000  Uiso   1.00
H396   H     0.57706   0.31282   0.61031   0.00000  Uiso   1.00
H397   H     0.57489   0.32406   0.53290   0.00000  Uiso   1.00
H398   H     0.53223   0.01431   0.58302   0.00000  Uiso   1.00
H399   H     0.60721   0.08345   0.46208   0.00000  Uiso   1.00
H400   H     0.88198   0.08414   0.45723   0.00000  Uiso   1.00
H401   H     0.61802   0.24919   0.54276   0.00000  Uiso   1.00
H402   H     0.53505   0.03577   0.44011   0.00000  Uiso   1.00
H403   H     0.96495   0.29756   0.55988   0.00000  Uiso   1.00
H404   H     0.74426   0.32015   0.42882   0.00000  Uiso   1.00
H405   H     0.75574   0.01319   0.57118   0.00000  Uiso   1.00
H406   H     0.71505   0.12591   0.64959   0.00000  Uiso   1.00
N407   N     0.73744   0.15214   0.34617   0.00000  Uiso   1.00
N408   N     0.76255   0.18119   0.65383   0.00000  Uiso   1.00
O409   O     0.75325   0.09538   0.53992   0.00000  Uiso   1.00
O410   O     0.74674   0.23796   0.46008   0.00000  Uiso   1.00
O411   O     0.74480   0.08559   0.43612   0.00000  Uiso   1.00
O412   O     0.75520   0.24774   0.56388   0.00000  Uiso   1.00
O413   O     0.68935   0.17155   0.55191   0.00000  Uiso   1.00
O414   O     0.81064   0.16179   0.44809   0.00000  Uiso   1.00
O415   O     0.68090   0.16176   0.44810   0.00000  Uiso   1.00
O416   O     0.81910   0.17157   0.55190   0.00000  Uiso   1.00
C417   C     0.24866   0.39993   0.48445   0.00000  Uiso   1.00
C418   C     0.09082   0.45294   0.47955   0.00000  Uiso   1.00
C419   C     0.38346   0.50016   0.49717   0.00000  Uiso   1.00
C420   C     0.11654   0.49984   0.50283   0.00000  Uiso   1.00
C421   C     0.40342   0.45300   0.47447   0.00000  Uiso   1.00
C422   C     0.09658   0.54700   0.52552   0.00000  Uiso   1.00
C423   C     0.45028   0.45182   0.47568   0.00000  Uiso   1.00
C424   C     0.04972   0.54818   0.52432   0.00000  Uiso   1.00
C425   C     0.47652   0.49978   0.49912   0.00000  Uiso   1.00
C426   C     0.02348   0.50022   0.50088   0.00000  Uiso   1.00
C427   C     0.45572   0.54738   0.52107   0.00000  Uiso   1.00
C428   C     0.25134   0.60007   0.51555   0.00000  Uiso   1.00
C429   C     0.04428   0.45262   0.47893   0.00000  Uiso   1.00
C430   C     0.47161   0.40420   0.45467   0.00000  Uiso   1.00
C431   C     0.02839   0.59580   0.54533   0.00000  Uiso   1.00
C432   C     0.44540   0.35196   0.43072   0.00000  Uiso   1.00
C433   C     0.05460   0.64804   0.56927   0.00000  Uiso   1.00
C434   C     0.01848   0.40534   0.45638   0.00000  Uiso   1.00
C435   C     0.48152   0.59466   0.54361   0.00000  Uiso   1.00
C436   C     0.24801   0.34396   0.47569   0.00000  Uiso   1.00
C437   C     0.25199   0.65604   0.52431   0.00000  Uiso   1.00
C438   C     0.16458   0.49991   0.50092   0.00000  Uiso   1.00
C439   C     0.33542   0.50009   0.49908   0.00000  Uiso   1.00
C440   C     0.40918   0.54705   0.52045   0.00000  Uiso   1.00
Cu441  Cu    0.25500   0.50579   0.56146   0.00000  Uiso   1.00
Cu442  Cu    0.24499   0.49421   0.43854   0.00000  Uiso   1.00
H443   H     0.39279   0.58321   0.53793   0.00000  Uiso   1.00
H444   H     0.28495   0.54075   0.35041   0.00000  Uiso   1.00
H445   H     0.42510   0.34260   0.46709   0.00000  Uiso   1.00
H446   H     0.42294   0.35385   0.38968   0.00000  Uiso   1.00
H447   H     0.46777   0.65235   0.41698   0.00000  Uiso   1.00
H448   H     0.07706   0.64615   0.61031   0.00000  Uiso   1.00
H449   H     0.07489   0.65740   0.53290   0.00000  Uiso   1.00
H450   H     0.03223   0.34765   0.58302   0.00000  Uiso   1.00
H451   H     0.10721   0.41679   0.46208   0.00000  Uiso   1.00
H452   H     0.38198   0.41748   0.45723   0.00000  Uiso   1.00
H453   H     0.11802   0.58253   0.54276   0.00000  Uiso   1.00
H454   H     0.03505   0.36911   0.44011   0.00000  Uiso   1.00
H455   H     0.46495   0.63089   0.55988   0.00000  Uiso   1.00
H456   H     0.24426   0.65348   0.42882   0.00000  Uiso   1.00
H457   H     0.25574   0.34652   0.57118   0.00000  Uiso   1.00
H458   H     0.21505   0.45925   0.64959   0.00000  Uiso   1.00
N459   N     0.23744   0.48547   0.34617   0.00000  Uiso   1.00
N460   N     0.26255   0.51453   0.65383   0.00000  Uiso   1.00
O461   O     0.25325   0.42871   0.53992   0.00000  Uiso   1.00
O462   O     0.24674   0.57129   0.46008   0.00000  Uiso   1.00
O463   O     0.24480   0.41892   0.43612   0.00000  Uiso   1.00
O464   O     0.25520   0.58108   0.56388   0.00000  Uiso   1.00
O465   O     0.18935   0.50488   0.55191   0.00000  Uiso   1.00
O466   O     0.31064   0.49512   0.44809   0.00000  Uiso   1.00
O467   O     0.18090   0.49510   0.44810   0.00000  Uiso   1.00
O468   O     0.31910   0.50490   0.55190   0.00000  Uiso   1.00
C469   C     0.74866   0.39993   0.48445   0.00000  Uiso   1.00
C470   C     0.59082   0.45294   0.47955   0.00000  Uiso   1.00
C471   C     0.88346   0.50016   0.49717   0.00000  Uiso   1.00
C472   C     0.61654   0.49984   0.50283   0.00000  Uiso   1.00
C473   C     0.90342   0.45300   0.47447   0.00000  Uiso   1.00
C474   C     0.59658   0.54700   0.52552   0.00000  Uiso   1.00
C475   C     0.95028   0.45182   0.47568   0.00000  Uiso   1.00
C476   C     0.54972   0.54818   0.52432   0.00000  Uiso   1.00
C477   C     0.97652   0.49978   0.49912   0.00000  Uiso   1.00
C478   C     0.52348   0.50022   0.50088   0.00000  Uiso   1.00
C479   C     0.95572   0.54738   0.52107   0.00000  Uiso   1.00
C480   C     0.75134   0.60007   0.51555   0.00000  Uiso   1.00
C481   C     0.54428   0.45262   0.47893   0.00000  Uiso   1.00
C482   C     0.97161   0.40420   0.45467   0.00000  Uiso   1.00
C483   C     0.52839   0.59580   0.54533   0.00000  Uiso   1.00
C484   C     0.94540   0.35196   0.43072   0.00000  Uiso   1.00
C485   C     0.55460   0.64804   0.56927   0.00000  Uiso   1.00
C486   C     0.51848   0.40534   0.45638   0.00000  Uiso   1.00
C487   C     0.98152   0.59466   0.54361   0.00000  Uiso   1.00
C488   C     0.74801   0.34396   0.47569   0.00000  Uiso   1.00
C489   C     0.75199   0.65604   0.52431   0.00000  Uiso   1.00
C490   C     0.66458   0.49991   0.50092   0.00000  Uiso   1.00
C491   C     0.83542   0.50009   0.49908   0.00000  Uiso   1.00
C492   C     0.90918   0.54705   0.52045   0.00000  Uiso   1.00
Cu493  Cu    0.75500   0.50579   0.56146   0.00000  Uiso   1.00
Cu494  Cu    0.74499   0.49421   0.43854   0.00000  Uiso   1.00
H495   H     0.89279   0.58321   0.53793   0.00000  Uiso   1.00
H496   H     0.78495   0.54075   0.35041   0.00000  Uiso   1.00
H497   H     0.92510   0.34260   0.46709   0.00000  Uiso   1.00
H498   H     0.92294   0.35385   0.38968   0.00000  Uiso   1.00
H499   H     0.96777   0.65235   0.41698   0.00000  Uiso   1.00
H500   H     0.57706   0.64615   0.61031   0.00000  Uiso   1.00
H501   H     0.57489   0.65740   0.53290   0.00000  Uiso   1.00
H502   H     0.53223   0.34765   0.58302   0.00000  Uiso   1.00
H503   H     0.60721   0.41679   0.46208   0.00000  Uiso   1.00
H504   H     0.88198   0.41748   0.45723   0.00000  Uiso   1.00
H505   H     0.61802   0.58253   0.54276   0.00000  Uiso   1.00
H506   H     0.53505   0.36911   0.44011   0.00000  Uiso   1.00
H507   H     0.96495   0.63089   0.55988   0.00000  Uiso   1.00
H508   H     0.74426   0.65348   0.42882   0.00000  Uiso   1.00
H509   H     0.75574   0.34652   0.57118   0.00000  Uiso   1.00
H510   H     0.71505   0.45925   0.64959   0.00000  Uiso   1.00
N511   N     0.73744   0.48547   0.34617   0.00000  Uiso   1.00
N512   N     0.76255   0.51453   0.65383   0.00000  Uiso   1.00
O513   O     0.75325   0.42871   0.53992   0.00000  Uiso   1.00
O514   O     0.74674   0.57129   0.46008   0.00000  Uiso   1.00
O515   O     0.74480   0.41892   0.43612   0.00000  Uiso   1.00
O516   O     0.75520   0.58108   0.56388   0.00000  Uiso   1.00
O517   O     0.68935   0.50488   0.55191   0.00000  Uiso   1.00
O518   O     0.81064   0.49512   0.44809   0.00000  Uiso   1.00
O519   O     0.68090   0.49510   0.44810   0.00000  Uiso   1.00
O520   O     0.81910   0.50490   0.55190   0.00000  Uiso   1.00
C521   C     0.24866   0.73327   0.48445   0.00000  Uiso   1.00
C522   C     0.09082   0.78628   0.47955   0.00000  Uiso   1.00
C523   C     0.38346   0.83349   0.49717   0.00000  Uiso   1.00
C524   C     0.11654   0.83317   0.50283   0.00000  Uiso   1.00
C525   C     0.40342   0.78633   0.47447   0.00000  Uiso   1.00
C526   C     0.09658   0.88034   0.52552   0.00000  Uiso   1.00
C527   C     0.45028   0.78515   0.47568   0.00000  Uiso   1.00
C528   C     0.04972   0.88151   0.52432   0.00000  Uiso   1.00
C529   C     0.47652   0.83311   0.49912   0.00000  Uiso   1.00
C530   C     0.02348   0.83356   0.50088   0.00000  Uiso   1.00
C531   C     0.45572   0.88071   0.52107   0.00000  Uiso   1.00
C532   C     0.25134   0.93340   0.51555   0.00000  Uiso   1.00
C533   C     0.04428   0.78596   0.47893   0.00000  Uiso   1.00
C534   C     0.47161   0.73753   0.45467   0.00000  Uiso   1.00
C535   C     0.02839   0.92913   0.54533   0.00000  Uiso   1.00
C536   C     0.44540   0.68529   0.43072   0.00000  Uiso   1.00
C537   C     0.05460   0.98137   0.56927   0.00000  Uiso   1.00
C538   C     0.01848   0.73867   0.45638   0.00000  Uiso   1.00
C539   C     0.48152   0.92799   0.54361   0.00000  Uiso   1.00
C540   C     0.24801   0.67730   0.47569   0.00000  Uiso   1.00
C541   C     0.25199   0.98937   0.52431   0.00000  Uiso   1.00
C542   C     0.16458   0.83324   0.50092   0.00000  Uiso   1.00
C543   C     0.33542   0.83343   0.49908   0.00000  Uiso   1.00
C544   C     0.40918   0.88039   0.52045   0.00000  Uiso   1.00
Cu545  Cu    0.25500   0.83913   0.56146   0.00000  Uiso   1.00
Cu546  Cu    0.24499   0.82754   0.43854   0.00000  Uiso   1.00
H547   H     0.39279   0.91654   0.53793   0.00000  Uiso   1.00
H548   H     0.28495   0.87409   0.35041   0.00000  Uiso   1.00
H549   H     0.42510   0.67594   0.46709   0.00000  Uiso   1.00
H550   H     0.42294   0.68718   0.38968   0.00000  Uiso   1.00
H551   H     0.46777   0.98568   0.41698   0.00000  Uiso   1.00
H552   H     0.07706   0.97949   0.61031   0.00000  Uiso   1.00
H553   H     0.07489   0.99073   0.53290   0.00000  Uiso   1.00
H554   H     0.03223   0.68098   0.58302   0.00000  Uiso   1.00
H555   H     0.10721   0.75012   0.46208   0.00000  Uiso   1.00
H556   H     0.38198   0.75081   0.45723   0.00000  Uiso   1.00
H557   H     0.11802   0.91586   0.54276   0.00000  Uiso   1.00
H558   H     0.03505   0.70244   0.44011   0.00000  Uiso   1.00
H559   H     0.46495   0.96422   0.55988   0.00000  Uiso   1.00
H560   H     0.24426   0.98681   0.42882   0.00000  Uiso   1.00
H561   H     0.25574   0.67985   0.57118   0.00000  Uiso   1.00
H562   H     0.21505   0.79258   0.64959   0.00000  Uiso   1.00
N563   N     0.23744   0.81881   0.34617   0.00000  Uiso   1.00
N564   N     0.26255   0.84786   0.65383   0.00000  Uiso   1.00
O565   O     0.25325   0.76204   0.53992   0.00000  Uiso   1.00
O566   O     0.24674   0.90462   0.46008   0.00000  Uiso   1.00
O567   O     0.24480   0.75226   0.43612   0.00000  Uiso   1.00
O568   O     0.25520   0.91441   0.56388   0.00000  Uiso   1.00
O569   O     0.18935   0.83821   0.55191   0.00000  Uiso   1.00
O570   O     0.31064   0.82845   0.44809   0.00000  Uiso   1.00
O571   O     0.18090   0.82843   0.44810   0.00000  Uiso   1.00
O572   O     0.31910   0.83824   0.55190   0.00000  Uiso   1.00
C573   C     0.74866   0.73327   0.48445   0.00000  Uiso   1.00
C574   C     0.59082   0.78628   0.47955   0.00000  Uiso   1.00
C575   C     0.88346   0.83349   0.49717   0.00000  Uiso   1.00
C576   C     0.61654   0.83317   0.50283   0.00000  Uiso   1.00
C577   C     0.90342   0.78633   0.47447   0.00000  Uiso   1.00
C578   C     0.59658   0.88034   0.52552   0.00000  Uiso   1.00
C579   C     0.95028   0.78515   0.47568   0.00000  Uiso   1.00
C580   C     0.54972   0.88151   0.52432   0.00000  Uiso   1.00
C581   C     0.97652   0.83311   0.49912   0.00000  Uiso   1.00
C582   C     0.52348   0.83356   0.50088   0.00000  Uiso   1.00
C583   C     0.95572   0.88071   0.52107   0.00000  Uiso   1.00
C584   C     0.75134   0.93340   0.51555   0.00000  Uiso   1.00
C585   C     0.54428   0.78596   0.47893   0.00000  Uiso   1.00
C586   C     0.97161   0.73753   0.45467   0.00000  Uiso   1.00
C587   C     0.52839   0.92913   0.54533   0.00000  Uiso   1.00
C588   C     0.94540   0.68529   0.43072   0.00000  Uiso   1.00
C589   C     0.55460   0.98137   0.56927   0.00000  Uiso   1.00
C590   C     0.51848   0.73867   0.45638   0.00000  Uiso   1.00
C591   C     0.98152   0.92799   0.54361   0.00000  Uiso   1.00
C592   C     0.74801   0.67730   0.47569   0.00000  Uiso   1.00
C593   C     0.75199   0.98937   0.52431   0.00000  Uiso   1.00
C594   C     0.66458   0.83324   0.50092   0.00000  Uiso   1.00
C595   C     0.83542   0.83343   0.49908   0.00000  Uiso   1.00
C596   C     0.90918   0.88039   0.52045   0.00000  Uiso   1.00
Cu597  Cu    0.75500   0.83913   0.56146   0.00000  Uiso   1.00
Cu598  Cu    0.74499   0.82754   0.43854   0.00000  Uiso   1.00
H599   H     0.89279   0.91654   0.53793   0.00000  Uiso   1.00
H600   H     0.78495   0.87409   0.35041   0.00000  Uiso   1.00
H601   H     0.92510   0.67594   0.46709   0.00000  Uiso   1.00
H602   H     0.92294   0.68718   0.38968   0.00000  Uiso   1.00
H603   H     0.96777   0.98568   0.41698   0.00000  Uiso   1.00
H604   H     0.57706   0.97949   0.61031   0.00000  Uiso   1.00
H605   H     0.57489   0.99073   0.53290   0.00000  Uiso   1.00
H606   H     0.53223   0.68098   0.58302   0.00000  Uiso   1.00
H607   H     0.60721   0.75012   0.46208   0.00000  Uiso   1.00
H608   H     0.88198   0.75081   0.45723   0.00000  Uiso   1.00
H609   H     0.61802   0.91586   0.54276   0.00000  Uiso   1.00
H610   H     0.53505   0.70244   0.44011   0.00000  Uiso   1.00
H611   H     0.96495   0.96422   0.55988   0.00000  Uiso   1.00
H612   H     0.74426   0.98681   0.42882   0.00000  Uiso   1.00
H613   H     0.75574   0.67985   0.57118   0.00000  Uiso   1.00
H614   H     0.71505   0.79258   0.64959   0.00000  Uiso   1.00
N615   N     0.73744   0.81881   0.34617   0.00000  Uiso   1.00
N616   N     0.76255   0.84786   0.65383   0.00000  Uiso   1.00
O617   O     0.75325   0.76204   0.53992   0.00000  Uiso   1.00
O618   O     0.74674   0.90462   0.46008   0.00000  Uiso   1.00
O619   O     0.74480   0.75226   0.43612   0.00000  Uiso   1.00
O620   O     0.75520   0.91441   0.56388   0.00000  Uiso   1.00
O621   O     0.68935   0.83821   0.55191   0.00000  Uiso   1.00
O622   O     0.81064   0.82845   0.44809   0.00000  Uiso   1.00
O623   O     0.68090   0.82843   0.44810   0.00000  Uiso   1.00
O624   O     0.81910   0.83824   0.55190   0.00000  Uiso   1.00
C625   C     0.24866   0.06660   0.81778   0.00000  Uiso   1.00
C626   C     0.09082   0.11961   0.81288   0.00000  Uiso   1.00
C627   C     0.38346   0.16683   0.83051   0.00000  Uiso   1.00
C628   C     0.11654   0.16651   0.83616   0.00000  Uiso   1.00
C629   C     0.40342   0.11967   0.80781   0.00000  Uiso   1.00
C630   C     0.09658   0.21367   0.85885   0.00000  Uiso   1.00
C631   C     0.45028   0.11849   0.80901   0.00000  Uiso   1.00
C632   C     0.04972   0.21485   0.85765   0.00000  Uiso   1.00
C633   C     0.47652   0.16644   0.83245   0.00000  Uiso   1.00
C634   C     0.02348   0.16689   0.83421   0.00000  Uiso   1.00
C635   C     0.45572   0.21404   0.85440   0.00000  Uiso   1.00
C636   C     0.25134   0.26673   0.84888   0.00000  Uiso   1.00
C637   C     0.04428   0.11929   0.81226   0.00000  Uiso   1.00
C638   C     0.47161   0.07087   0.78800   0.00000  Uiso   1.00
C639   C     0.02839   0.26247   0.87866   0.00000  Uiso   1.00
C640   C     0.44540   0.01863   0.76405   0.00000  Uiso   1.00
C641   C     0.05460   0.31471   0.90260   0.00000  Uiso   1.00
C642   C     0.01848   0.07201   0.78972   0.00000  Uiso   1.00
C643   C     0.48152   0.26133   0.87694   0.00000  Uiso   1.00
C644   C     0.24801   0.01063   0.80902   0.00000  Uiso   1.00
C645   C     0.25199   0.32270   0.85765   0.00000  Uiso   1.00
C646   C     0.16458   0.16657   0.83425   0.00000  Uiso   1.00
C647   C     0.33542   0.16676   0.83241   0.00000  Uiso   1.00
C648   C     0.40918   0.21372   0.85379   0.00000  Uiso   1.00
Cu649  Cu    0.25500   0.17246   0.89479   0.00000  Uiso   1.00
Cu650  Cu    0.24499   0.16087   0.77187   0.00000  Uiso   1.00
H651   H     0.39279   0.24987   0.87126   0.00000  Uiso   1.00
H652   H     0.28495   0.20742   0.68374   0.00000  Uiso   1.00
H653   H     0.42510   0.00927   0.80043   0.00000  Uiso   1.00
H654   H     0.42294   0.02052   0.72301   0.00000  Uiso   1.00
H655   H     0.46777   0.31902   0.75031   0.00000  Uiso   1.00
H656   H     0.07706   0.31282   0.94364   0.00000  Uiso   1.00
H657   H     0.07489   0.32406   0.86623   0.00000  Uiso   1.00
H658   H     0.03223   0.01431   0.91635   0.00000  Uiso   1.00
H659   H     0.10721   0.08345   0.79541   0.00000  Uiso   1.00
H660   H     0.38198   0.08414   0.79056   0.00000  Uiso   1.00
H661   H     0.11802   0.24919   0.87609   0.00000  Uiso   1.00
H662   H     0.03505   0.03577   0.77345   0.00000  Uiso   1.00
H663   H     0.46495   0.29756   0.89322   0.00000  Uiso   1.00
H664   H     0.24426   0.32015   0.76215   0.00000  Uiso   1.00
H665   H     0.25574   0.01319   0.90452   0.00000  Uiso   1.00
H666   H     0.21505   0.12591   0.98293   0.00000  Uiso   1.00
N667   N     0.23744   0.15214   0.67951   0.00000  Uiso   1.00
N668   N     0.26255   0.18119   0.98716   0.00000  Uiso   1.00
O669   O     0.25325   0.09538   0.87326   0.00000  Uiso   1.00
O670   O     0.24674   0.23796   0.79341   0.00000  Uiso   1.00
O671   O     0.24480   0.08559   0.76945   0.00000  Uiso   1.00
O672   O     0.25520   0.24774   0.89721   0.00000  Uiso   1.00
O673   O     0.18935   0.17155   0.88524   0.00000  Uiso   1.00
O674   O     0.31064   0.16179   0.78143   0.00000  Uiso   1.00
O675   O     0.18090   0.16176   0.78143   0.00000  Uiso   1.00
O676   O     0.31910   0.17157   0.88523   0.00000  Uiso   1.00
C677   C     0.74866   0.06660   0.81778   0.00000  Uiso   1.00
C678   C     0.59082   0.11961   0.81288   0.00000  Uiso   1.00
C679   C     0.88346   0.16683   0.83051   0.00000  Uiso   1.00
C680   C     0.61654   0.16651   0.83616   0.00000  Uiso   1.00
C681   C     0.90342   0.11967   0.80781   0.00000  Uiso   1.00
C682   C     0.59658   0.21367   0.85885   0.00000  Uiso   1.00
C683   C     0.95028   0.11849   0.80901   0.00000  Uiso   1.00
C684   C     0.54972   0.21485   0.85765   0.00000  Uiso   1.00
C685   C     0.97652   0.16644   0.83245   0.00000  Uiso   1.00
C686   C     0.52348   0.16689   0.83421   0.00000  Uiso   1.00
C687   C     0.95572   0.21404   0.85440   0.00000  Uiso   1.00
C688   C     0.75134   0.26673   0.84888   0.00000  Uiso   1.00
C689   C     0.54428   0.11929   0.81226   0.00000  Uiso   1.00
C690   C     0.97161   0.07087   0.78800   0.00000  Uiso   1.00
C691   C     0.52839   0.26247   0.87866   0.00000  Uiso   1.00
C692   C     0.94540   0.01863   0.76405   0.00000  Uiso   1.00
C693   C     0.55460   0.31471   0.90260   0.00000  Uiso   1.00
C694   C     0.51848   0.07201   0.78972   0.00000  Uiso   1.00
C695   C     0.98152   0.26133   0.87694   0.00000  Uiso   1.00
C696   C     0.74801   0.01063   0.80902   0.00000  Uiso   1.00
C697   C     0.75199   0.32270   0.85765   0.00000  Uiso   1.00
C698   C     0.66458   0.16657   0.83425   0.00000  Uiso   1.00
C699   C     0.83542   0.16676   0.83241   0.00000  Uiso   1.00
C700   C     0.90918   0.21372   0.85379   0.00000  Uiso   1.00
Cu701  Cu    0.75500   0.17246   0.89479   0.00000  Uiso   1.00
Cu702  Cu    0.74499   0.16087   0.77187   0.00000  Uiso   1.00
H703   H     0.89279   0.24987   0.87126   0.00000  Uiso   1.00
H704   H     0.78495   0.20742   0.68374   0.00000  Uiso   1.00
H705   H     0.92510   0.00927   0.80043   0.00000  Uiso   1.00
H706   H     0.92294   0.02052   0.72301   0.00000  Uiso   1.00
H707   H     0.96777   0.31902   0.75031   0.00000  Uiso   1.00
H708   H     0.57706   0.31282   0.94364   0.00000  Uiso   1.00
H709   H     0.57489   0.32406   0.86623   0.00000  Uiso   1.00
H710   H     0.53223   0.01431   0.91635   0.00000  Uiso   1.00
H711   H     0.60721   0.08345   0.79541   0.00000  Uiso   1.00
H712   H     0.88198   0.08414   0.79056   0.00000  Uiso   1.00
H713   H     0.61802   0.24919   0.87609   0.00000  Uiso   1.00
H714   H     0.53505   0.03577   0.77345   0.00000  Uiso   1.00
H715   H     0.96495   0.29756   0.89322   0.00000  Uiso   1.00
H716   H     0.74426   0.32015   0.76215   0.00000  Uiso   1.00
H717   H     0.75574   0.01319   0.90452   0.00000  Uiso   1.00
H718   H     0.71505   0.12591   0.98293   0.00000  Uiso   1.00
N719   N     0.73744   0.15214   0.67951   0.00000  Uiso   1.00
N720   N     0.76255   0.18119   0.98716   0.00000  Uiso   1.00
O721   O     0.75325   0.09538   0.87326   0.00000  Uiso   1.00
O722   O     0.74674   0.23796   0.79341   0.00000  Uiso   1.00
O723   O     0.74480   0.08559   0.76945   0.00000  Uiso   1.00
O724   O     0.75520   0.24774   0.89721   0.00000  Uiso   1.00
O725   O     0.68935   0.17155   0.88524   0.00000  Uiso   1.00
O726   O     0.81064   0.16179   0.78143   0.00000  Uiso   1.00
O727   O     0.68090   0.16176   0.78143   0.00000  Uiso   1.00
O728   O     0.81910   0.17157   0.88523   0.00000  Uiso   1.00
C729   C     0.24866   0.39993   0.81778   0.00000  Uiso   1.00
C730   C     0.09082   0.45294   0.81288   0.00000  Uiso   1.00
C731   C     0.38346   0.50016   0.83051   0.00000  Uiso   1.00
C732   C     0.11654   0.49984   0.83616   0.00000  Uiso   1.00
C733   C     0.40342   0.45300   0.80781   0.00000  Uiso   1.00
C734   C     0.09658   0.54700   0.85885   0.00000  Uiso   1.00
C735   C     0.45028   0.45182   0.80901   0.00000  Uiso   1.00
C736   C     0.04972   0.54818   0.85765   0.00000  Uiso   1.00
C737   C     0.47652   0.49978   0.83245   0.00000  Uiso   1.00
C738   C     0.02348   0.50022   0.83421   0.00000  Uiso   1.00
C739   C     0.45572   0.54738   0.85440   0.00000  Uiso   1.00
C740   C     0.25134   0.60007   0.84888   0.00000  Uiso   1.00
C741   C     0.04428   0.45262   0.81226   0.00000  Uiso   1.00
C742   C     0.47161   0.40420   0.78800   0.00000  Uiso   1.00
C743   C     0.02839   0.59580   0.87866   0.00000  Uiso   1.00
C744   C     0.44540   0.35196   0.76405   0.00000  Uiso   1.00
C745   C     0.05460   0.64804   0.90260   0.00000  Uiso   1.00
C746   C     0.01848   0.40534   0.78972   0.00000  Uiso   1.00
C747   C     0.48152   0.59466   0.87694   0.00000  Uiso   1.00
C748   C     0.24801   0.34396   0.80902   0.00000  Uiso   1.00
C749   C     0.25199   0.65604   0.85765   0.00000  Uiso   1.00
C750   C     0.16458   0.49991   0.83425   0.00000  Uiso   1.00
C751   C     0.33542   0.50009   0.83241   0.00000  Uiso   1.00
C752   C     0.40918   0.54705   0.85379   0.00000  Uiso   1.00
Cu753  Cu    0.25500   0.50579   0.89479   0.00000  Uiso   1.00
Cu754  Cu    0.24499   0.49421   0.77187   0.00000  Uiso   1.00
H755   H     0.39279   0.58321   0.87126   0.00000  Uiso   1.00
H756   H     0.28495   0.54075   0.68374   0.00000  Uiso   1.00
H757   H     0.42510   0.34260   0.80043   0.00000  Uiso   1.00
H758   H     0.42294   0.35385   0.72301   0.00000  Uiso   1.00
H759   H     0.46777   0.65235   0.75031   0.00000  Uiso   1.00
H760   H     0.07706   0.64615   0.94364   0.00000  Uiso   1.00
H761   H     0.07489   0.65740   0.86623   0.00000  Uiso   1.00
H762   H     0.03223   0.34765   0.91635   0.00000  Uiso   1.00
H763   H     0.10721   0.41679   0.79541   0.00000  Uiso   1.00
H764   H     0.38198   0.41748   0.79056   0.00000  Uiso   1.00
H765   H     0.11802   0.58253   0.87609   0.00000  Uiso   1.00
H766   H     0.03505   0.36911   0.77345   0.00000  Uiso   1.00
H767   H     0.46495   0.63089   0.89322   0.00000  Uiso   1.00
H768   H     0.24426   0.65348   0.76215   0.00000  Uiso   1.00
H769   H     0.25574   0.34652   0.90452   0.00000  Uiso   1.00
H770   H     0.21505   0.45925   0.98293   0.00000  Uiso   1.00
N771   N     0.23744   0.48547   0.67951   0.00000  Uiso   1.00
N772   N     0.26255   0.51453   0.98716   0.00000  Uiso   1.00
O773   O     0.25325   0.42871   0.87326   0.00000  Uiso   1.00
O774   O     0.24674   0.57129   0.79341   0.00000  Uiso   1.00
O775   O     0.24480   0.41892   0.76945   0.00000  Uiso   1.00
O776   O     0.25520   0.58108   0.89721   0.00000  Uiso   1.00
O777   O     0.18935   0.50488   0.88524   0.00000  Uiso   1.00
O778   O     0.31064   0.49512   0.78143   0.00000  Uiso   1.00
O779   O     0.18090   0.49510   0.78143   0.00000  Uiso   1.00
O780   O     0.31910   0.50490   0.88523   0.00000  Uiso   1.00
C781   C     0.74866   0.39993   0.81778   0.00000  Uiso   1.00
C782   C     0.59082   0.45294   0.81288   0.00000  Uiso   1.00
C783   C     0.88346   0.50016   0.83051   0.00000  Uiso   1.00
C784   C     0.61654   0.49984   0.83616   0.00000  Uiso   1.00
C785   C     0.90342   0.45300   0.80781   0.00000  Uiso   1.00
C786   C     0.59658   0.54700   0.85885   0.00000  Uiso   1.00
C787   C     0.95028   0.45182   0.80901   0.00000  Uiso   1.00
C788   C     0.54972   0.54818   0.85765   0.00000  Uiso   1.00
C789   C     0.97652   0.49978   0.83245   0.00000  Uiso   1.00
C790   C     0.52348   0.50022   0.83421   0.00000  Uiso   1.00
C791   C     0.95572   0.54738   0.85440   0.00000  Uiso   1.00
C792   C     0.75134   0.60007   0.84888   0.00000  Uiso   1.00
C793   C     0.54428   0.45262   0.81226   0.00000  Uiso   1.00
C794   C     0.97161   0.40420   0.78800   0.00000  Uiso   1.00
C795   C     0.52839   0.59580   0.87866   0.00000  Uiso   1.00
C796   C     0.94540   0.35196   0.76405   0.00000  Uiso   1.00
C797   C     0.55460   0.64804   0.90260   0.00000  Uiso   1.00
C798   C     0.51848   0.40534   0.78972   0.00000  Uiso   1.00
C799   C     0.98152   0.59466   0.87694   0.00000  Uiso   1.00
C800   C     0.74801   0.34396   0.80902   0.00000  Uiso   1.00
C801   C     0.75199   0.65604   0.85765   0.00000  Uiso   1.00
C802   C     0.66458   0.49991   0.83425   0.00000  Uiso   1.00
C803   C     0.83542   0.50009   0.83241   0.00000  Uiso   1.00
C804   C     0.90918   0.54705   0.85379   0.00000  Uiso   1.00
Cu805  Cu    0.75500   0.50579   0.89479   0.00000  Uiso   1.00
Cu806  Cu    0.74499   0.49421   0.77187   0.00000  Uiso   1.00
H807   H     0.89279   0.58321   0.87126   0.00000  Uiso   1.00
H808   H     0.78495   0.54075   0.68374   0.00000  Uiso   1.00
H809   H     0.92510   0.34260   0.80043   0.00000  Uiso   1.00
H810   H     0.92294   0.35385   0.72301   0.00000  Uiso   1.00
H811   H     0.96777   0.65235   0.75031   0.00000  Uiso   1.00
H812   H     0.57706   0.64615   0.94364   0.00000  Uiso   1.00
H813   H     0.57489   0.65740   0.86623   0.00000  Uiso   1.00
H814   H     0.53223   0.34765   0.91635   0.00000  Uiso   1.00
H815   H     0.60721   0.41679   0.79541   0.00000  Uiso   1.00
H816   H     0.88198   0.41748   0.79056   0.00000  Uiso   1.00
H817   H     0.61802   0.58253   0.87609   0.00000  Uiso   1.00
H818   H     0.53505   0.36911   0.77345   0.00000  Uiso   1.00
H819   H     0.96495   0.63089   0.89322   0.00000  Uiso   1.00
H820   H     0.74426   0.65348   0.76215   0.00000  Uiso   1.00
H821   H     0.75574   0.34652   0.90452   0.00000  Uiso   1.00
H822   H     0.71505   0.45925   0.98293   0.00000  Uiso   1.00
N823   N     0.73744   0.48547   0.67951   0.00000  Uiso   1.00
N824   N     0.76255   0.51453   0.98716   0.00000  Uiso   1.00
O825   O     0.75325   0.42871   0.87326   0.00000  Uiso   1.00
O826   O     0.74674   0.57129   0.79341   0.00000  Uiso   1.00
O827   O     0.74480   0.41892   0.76945   0.00000  Uiso   1.00
O828   O     0.75520   0.58108   0.89721   0.00000  Uiso   1.00
O829   O     0.68935   0.50488   0.88524   0.00000  Uiso   1.00
O830   O     0.81064   0.49512   0.78143   0.00000  Uiso   1.00
O831   O     0.68090   0.49510   0.78143   0.00000  Uiso   1.00
O832   O     0.81910   0.50490   0.88523   0.00000  Uiso   1.00
C833   C     0.24866   0.73327   0.81778   0.00000  Uiso   1.00
C834   C     0.09082   0.78628   0.81288   0.00000  Uiso   1.00
C835   C     0.38346   0.83349   0.83051   0.00000  Uiso   1.00
C836   C     0.11654   0.83317   0.83616   0.00000  Uiso   1.00
C837   C     0.40342   0.78633   0.80781   0.00000  Uiso   1.00
C838   C     0.09658   0.88034   0.85885   0.00000  Uiso   1.00
C839   C     0.45028   0.78515   0.80901   0.00000  Uiso   1.00
C840   C     0.04972   0.88151   0.85765   0.00000  Uiso   1.00
C841   C     0.47652   0.83311   0.83245   0.00000  Uiso   1.00
C842   C     0.02348   0.83356   0.83421   0.00000  Uiso   1.00
C843   C     0.45572   0.88071   0.85440   0.00000  Uiso   1.00
C844   C     0.25134   0.93340   0.84888   0.00000  Uiso   1.00
C845   C     0.04428   0.78596   0.81226   0.00000  Uiso   1.00
C846   C     0.47161   0.73753   0.78800   0.00000  Uiso   1.00
C847   C     0.02839   0.92913   0.87866   0.00000  Uiso   1.00
C848   C     0.44540   0.68529   0.76405   0.00000  Uiso   1.00
C849   C     0.05460   0.98137   0.90260   0.00000  Uiso   1.00
C850   C     0.01848   0.73867   0.78972   0.00000  Uiso   1.00
C851   C     0.48152   0.92799   0.87694   0.00000  Uiso   1.00
C852   C     0.24801   0.67730   0.80902   0.00000  Uiso   1.00
C853   C     0.25199   0.98937   0.85765   0.00000  Uiso   1.00
C854   C     0.16458   0.83324   0.83425   0.00000  Uiso   1.00
C855   C     0.33542   0.83343   0.83241   0.00000  Uiso   1.00
C856   C     0.40918   0.88039   0.85379   0.00000  Uiso   1.00
Cu857  Cu    0.25500   0.83913   0.89479   0.00000  Uiso   1.00
Cu858  Cu    0.24499   0.82754   0.77187   0.00000  Uiso   1.00
H859   H     0.39279   0.91654   0.87126   0.00000  Uiso   1.00
H860   H     0.28495   0.87409   0.68374   0.00000  Uiso   1.00
H861   H     0.42510   0.67594   0.80043   0.00000  Uiso   1.00
H862   H     0.42294   0.68718   0.72301   0.00000  Uiso   1.00
H863   H     0.46777   0.98568   0.75031   0.00000  Uiso   1.00
H864   H     0.07706   0.97949   0.94364   0.00000  Uiso   1.00
H865   H     0.07489   0.99073   0.86623   0.00000  Uiso   1.00
H866   H     0.03223   0.68098   0.91635   0.00000  Uiso   1.00
H867   H     0.10721   0.75012   0.79541   0.00000  Uiso   1.00
H868   H     0.38198   0.75081   0.79056   0.00000  Uiso   1.00
H869   H     0.11802   0.91586   0.87609   0.00000  Uiso   1.00
H870   H     0.03505   0.70244   0.77345   0.00000  Uiso   1.00
H871   H     0.46495   0.96422   0.89322   0.00000  Uiso   1.00
H872   H     0.24426   0.98681   0.76215   0.00000  Uiso   1.00
H873   H     0.25574   0.67985   0.90452   0.00000  Uiso   1.00
H874   H     0.21505   0.79258   0.98293   0.00000  Uiso   1.00
N875   N     0.23744   0.81881   0.67951   0.00000  Uiso   1.00
N876   N     0.26255   0.84786   0.98716   0.00000  Uiso   1.00
O877   O     0.25325   0.76204   0.87326   0.00000  Uiso   1.00
O878   O     0.24674   0.90462   0.79341   0.00000  Uiso   1.00
O879   O     0.24480   0.75226   0.76945   0.00000  Uiso   1.00
O880   O     0.25520   0.91441   0.89721   0.00000  Uiso   1.00
O881   O     0.18935   0.83821   0.88524   0.00000  Uiso   1.00
O882   O     0.31064   0.82845   0.78143   0.00000  Uiso   1.00
O883   O     0.18090   0.82843   0.78143   0.00000  Uiso   1.00
O884   O     0.31910   0.83824   0.88523   0.00000  Uiso   1.00
C885   C     0.74866   0.73327   0.81778   0.00000  Uiso   1.00
C886   C     0.59082   0.78628   0.81288   0.00000  Uiso   1.00
C887   C     0.88346   0.83349   0.83051   0.00000  Uiso   1.00
C888   C     0.61654   0.83317   0.83616   0.00000  Uiso   1.00
C889   C     0.90342   0.78633   0.80781   0.00000  Uiso   1.00
C890   C     0.59658   0.88034   0.85885   0.00000  Uiso   1.00
C891   C     0.95028   0.78515   0.80901   0.00000  Uiso   1.00
C892   C     0.54972   0.88151   0.85765   0.00000  Uiso   1.00
C893   C     0.97652   0.83311   0.83245   0.00000  Uiso   1.00
C894   C     0.52348   0.83356   0.83421   0.00000  Uiso   1.00
C895   C     0.95572   0.88071   0.85440   0.00000  Uiso   1.00
C896   C     0.75134   0.93340   0.84888   0.00000  Uiso   1.00
C897   C     0.54428   0.78596   0.81226   0.00000  Uiso   1.00
C898   C     0.97161   0.73753   0.78800   0.00000  Uiso   1.00
C899   C     0.52839   0.92913   0.87866   0.00000  Uiso   1.00
C900   C     0.94540   0.68529   0.76405   0.00000  Uiso   1.00
C901   C     0.55460   0.98137   0.90260   0.00000  Uiso   1.00
C902   C     0.51848   0.73867   0.78972   0.00000  Uiso   1.00
C903   C     0.98152   0.92799   0.87694   0.00000  Uiso   1.00
C904   C     0.74801   0.67730   0.80902   0.00000  Uiso   1.00
C905   C     0.75199   0.98937   0.85765   0.00000  Uiso   1.00
C906   C     0.66458   0.83324   0.83425   0.00000  Uiso   1.00
C907   C     0.83542   0.83343   0.83241   0.00000  Uiso   1.00
C908   C     0.90918   0.88039   0.85379   0.00000  Uiso   1.00
Cu909  Cu    0.75500   0.83913   0.89479   0.00000  Uiso   1.00
Cu910  Cu    0.74499   0.82754   0.77187   0.00000  Uiso   1.00
H911   H     0.89279   0.91654   0.87126   0.00000  Uiso   1.00
H912   H     0.78495   0.87409   0.68374   0.00000  Uiso   1.00
H913   H     0.92510   0.67594   0.80043   0.00000  Uiso   1.00
H914   H     0.92294   0.68718   0.72301   0.00000  Uiso   1.00
H915   H     0.96777   0.98568   0.75031   0.00000  Uiso   1.00
H916   H     0.57706   0.97949   0.94364   0.00000  Uiso   1.00
H917   H     0.57489   0.99073   0.86623   0.00000  Uiso   1.00
H918   H     0.53223   0.68098   0.91635   0.00000  Uiso   1.00
H919   H     0.60721   0.75012   0.79541   0.00000  Uiso   1.00
H920   H     0.88198   0.75081   0.79056   0.00000  Uiso   1.00
H921   H     0.61802   0.91586   0.87609   0.00000  Uiso   1.00
H922   H     0.53505   0.70244   0.77345   0.00000  Uiso   1.00
H923   H     0.96495   0.96422   0.89322   0.00000  Uiso   1.00
H924   H     0.74426   0.98681   0.76215   0.00000  Uiso   1.00
H925   H     0.75574   0.67985   0.90452   0.00000  Uiso   1.00
H926   H     0.71505   0.79258   0.98293   0.00000  Uiso   1.00
N927   N     0.73744   0.81881   0.67951   0.00000  Uiso   1.00
N928   N     0.76255   0.84786   0.98716   0.00000  Uiso   1.00
O929   O     0.75325   0.76204   0.87326   0.00000  Uiso   1.00
O930   O     0.74674   0.90462   0.79341   0.00000  Uiso   1.00
O931   O     0.74480   0.75226   0.76945   0.00000  Uiso   1.00
O932   O     0.75520   0.91441   0.89721   0.00000  Uiso   1.00
O933   O     0.68935   0.83821   0.88524   0.00000  Uiso   1.00
O934   O     0.81064   0.82845   0.78143   0.00000  Uiso   1.00
O935   O     0.68090   0.82843   0.78143   0.00000  Uiso   1.00
O936   O     0.81910   0.83824   0.88523   0.00000  Uiso   1.00
loop_
_geom_bond_atom_site_label_1
_geom_bond_atom_site_label_2
_geom_bond_distance
_geom_bond_site_symmetry_2
_ccdc_geom_bond_type
C1     O45     1.293   .     A
C1     O47     1.284   .     A
C1     C20     1.424   .     S
C2     H35     1.085   .     S
C2     C4      1.392   .     A
C2     C13     1.391   .     A
C3     C23     1.441   .     S
C3     C24     1.392   .     A
C3     C5      1.394   .     A
C4     C22     1.441   .     S
C4     C6      1.394   .     A
C5     H36     1.083   .     S
C5     C7      1.402   .     A
C6     H37     1.083   .     S
C6     C8      1.402   .     A
C7     C14     1.417   .     A
C7     C9      1.421   .     A
C8     C15     1.417   .     A
C8     C10     1.421   .     A
C9     C11     1.413   .     A
C9     C62     1.402   .     S
C10    C13     1.413   .     A
C10    C61     1.402   1_455 S
C11    C19     1.398   .     A
C11    C24     1.391   .     A
C12    O48     1.284   .     A
C12    O46     1.293   .     A
C12    C21     1.424   .     S
C13    C18     1.398   .     A
C14    C16     1.510   .     S
C14    C70     1.399   .     S
C15    C17     1.510   .     S
C15    C71     1.399   1_455 S
C16    H30     1.110   .     S
C16    H29     1.111   .     S
C16    H239    1.111   1_545 S
C17    H33     1.110   .     S
C17    H32     1.110   .     S
C17    H138    1.111   .     S
C18    H38     1.085   .     S
C18    C66     1.399   1_455 S
C19    H39     1.085   .     S
C19    C67     1.399   .     S
C20    C229    1.325   1_545 S
C20    H248    1.088   1_545 S
C21    C124    1.325   .     S
C21    H145    1.088   .     S
C22    O49     1.294   .     A
C22    O51     1.291   .     A
C23    O52     1.291   .     A
C23    O50     1.294   .     A
C24    H27     1.085   .     S
Cu25   O48     1.947   .     S
Cu25   N44     2.022   .     S
Cu25   O49     1.960   .     S
Cu25   O52     1.945   .     S
Cu25   O45     1.953   .     S
Cu25   Cu26    2.691   .     S
Cu26   O51     1.945   .     S
Cu26   O47     1.947   .     S
Cu26   N43     2.022   .     S
Cu26   O50     1.960   .     S
Cu26   O46     1.953   .     S
H28    N668    1.029   1_554 S
H31    C120    1.111   .     S
H34    C225    1.111   1_545 S
H40    C124    1.088   .     S
H41    C229    1.088   1_545 S
H42    N355    1.029   .     S
N43    H666    1.029   1_554 S
N43    N668    1.293   1_554 S
N44    N355    1.293   .     S
N44    H340    1.029   .     S
C53    O97     1.293   .     A
C53    O99     1.284   .     A
C53    C72     1.424   .     S
C54    H87     1.085   .     S
C54    C56     1.392   .     A
C54    C65     1.391   .     A
C55    C75     1.441   .     S
C55    C76     1.392   .     A
C55    C57     1.394   .     A
C56    C74     1.441   .     S
C56    C58     1.394   .     A
C57    H88     1.083   .     S
C57    C59     1.402   .     A
C58    H89     1.083   .     S
C58    C60     1.402   .     A
C59    C66     1.417   .     A
C59    C61     1.421   .     A
C60    C67     1.417   .     A
C60    C62     1.421   .     A
C61    C63     1.413   .     A
C61    C10     1.402   1_655 S
C62    C65     1.413   .     A
C63    C71     1.398   .     A
C63    C76     1.391   .     A
C64    O100    1.284   .     A
C64    O98     1.293   .     A
C64    C73     1.424   .     S
C65    C70     1.398   .     A
C66    C68     1.510   .     S
C66    C18     1.399   1_655 S
C67    C69     1.510   .     S
C68    H82     1.110   .     S
C68    H81     1.111   .     S
C68    H291    1.111   1_545 S
C69    H85     1.110   .     S
C69    H84     1.110   .     S
C69    H190    1.111   .     S
C70    H90     1.085   .     S
C71    H91     1.085   .     S
C71    C15     1.399   1_655 S
C72    C281    1.325   1_545 S
C72    H300    1.088   1_545 S
C73    C176    1.325   .     S
C73    H197    1.088   .     S
C74    O101    1.294   .     A
C74    O103    1.291   .     A
C75    O104    1.291   .     A
C75    O102    1.294   .     A
C76    H79     1.085   .     S
Cu77   O100    1.947   .     S
Cu77   N96     2.022   .     S
Cu77   O101    1.960   .     S
Cu77   O104    1.945   .     S
Cu77   O97     1.953   .     S
Cu77   Cu78    2.691   .     S
Cu78   O103    1.945   .     S
Cu78   O99     1.947   .     S
Cu78   N95     2.022   .     S
Cu78   O102    1.960   .     S
Cu78   O98     1.953   .     S
H80    N720    1.029   1_554 S
H83    C172    1.111   .     S
H86    C277    1.111   1_545 S
H92    C176    1.088   .     S
H93    C281    1.088   1_545 S
H94    N407    1.029   .     S
N95    H718    1.029   1_554 S
N95    N720    1.293   1_554 S
N96    N407    1.293   .     S
N96    H392    1.029   .     S
C105   O149    1.293   .     A
C105   O151    1.284   .     A
C105   C124    1.424   .     S
C106   H139    1.085   .     S
C106   C108    1.392   .     A
C106   C117    1.391   .     A
C107   C127    1.441   .     S
C107   C128    1.392   .     A
C107   C109    1.394   .     A
C108   C126    1.441   .     S
C108   C110    1.394   .     A
C109   H140    1.083   .     S
C109   C111    1.402   .     A
C110   H141    1.083   .     S
C110   C112    1.402   .     A
C111   C118    1.417   .     A
C111   C113    1.421   .     A
C112   C119    1.417   .     A
C112   C114    1.421   .     A
C113   C115    1.413   .     A
C113   C166    1.402   .     S
C114   C117    1.413   .     A
C114   C165    1.402   1_455 S
C115   C123    1.398   .     A
C115   C128    1.391   .     A
C116   O152    1.284   .     A
C116   O150    1.293   .     A
C116   C125    1.424   .     S
C117   C122    1.398   .     A
C118   C120    1.510   .     S
C118   C174    1.399   .     S
C119   C121    1.510   .     S
C119   C175    1.399   1_455 S
C120   H134    1.110   .     S
C120   H133    1.111   .     S
C121   H137    1.110   .     S
C121   H136    1.110   .     S
C121   H242    1.111   .     S
C122   H142    1.085   .     S
C122   C170    1.399   1_455 S
C123   H143    1.085   .     S
C123   C171    1.399   .     S
C125   C228    1.325   .     S
C125   H249    1.088   .     S
C126   O153    1.294   .     A
C126   O155    1.291   .     A
C127   O156    1.291   .     A
C127   O154    1.294   .     A
C128   H131    1.085   .     S
Cu129  O152    1.947   .     S
Cu129  N148    2.022   .     S
Cu129  O153    1.960   .     S
Cu129  O156    1.945   .     S
Cu129  O149    1.953   .     S
Cu129  Cu130   2.691   .     S
Cu130  O155    1.945   .     S
Cu130  O151    1.947   .     S
Cu130  N147    2.022   .     S
Cu130  O154    1.960   .     S
Cu130  O150    1.953   .     S
H132   N772    1.029   1_554 S
H135   C224    1.111   .     S
H144   C228    1.088   .     S
H146   N459    1.029   .     S
N147   H770    1.029   1_554 S
N147   N772    1.293   1_554 S
N148   N459    1.293   .     S
N148   H444    1.029   .     S
C157   O201    1.293   .     A
C157   O203    1.284   .     A
C157   C176    1.424   .     S
C158   H191    1.085   .     S
C158   C160    1.392   .     A
C158   C169    1.391   .     A
C159   C179    1.441   .     S
C159   C180    1.392   .     A
C159   C161    1.394   .     A
C160   C178    1.441   .     S
C160   C162    1.394   .     A
C161   H192    1.083   .     S
C161   C163    1.402   .     A
C162   H193    1.083   .     S
C162   C164    1.402   .     A
C163   C170    1.417   .     A
C163   C165    1.421   .     A
C164   C171    1.417   .     A
C164   C166    1.421   .     A
C165   C167    1.413   .     A
C165   C114    1.402   1_655 S
C166   C169    1.413   .     A
C167   C175    1.398   .     A
C167   C180    1.391   .     A
C168   O204    1.284   .     A
C168   O202    1.293   .     A
C168   C177    1.424   .     S
C169   C174    1.398   .     A
C170   C172    1.510   .     S
C170   C122    1.399   1_655 S
C171   C173    1.510   .     S
C172   H186    1.110   .     S
C172   H185    1.111   .     S
C173   H189    1.110   .     S
C173   H188    1.110   .     S
C173   H294    1.111   .     S
C174   H194    1.085   .     S
C175   H195    1.085   .     S
C175   C119    1.399   1_655 S
C177   C280    1.325   .     S
C177   H301    1.088   .     S
C178   O205    1.294   .     A
C178   O207    1.291   .     A
C179   O208    1.291   .     A
C179   O206    1.294   .     A
C180   H183    1.085   .     S
Cu181  O204    1.947   .     S
Cu181  N200    2.022   .     S
Cu181  O205    1.960   .     S
Cu181  O208    1.945   .     S
Cu181  O201    1.953   .     S
Cu181  Cu182   2.691   .     S
Cu182  O207    1.945   .     S
Cu182  O203    1.947   .     S
Cu182  N199    2.022   .     S
Cu182  O206    1.960   .     S
Cu182  O202    1.953   .     S
H184   N824    1.029   1_554 S
H187   C276    1.111   .     S
H196   C280    1.088   .     S
H198   N511    1.029   .     S
N199   H822    1.029   1_554 S
N199   N824    1.293   1_554 S
N200   N511    1.293   .     S
N200   H496    1.029   .     S
C209   O253    1.293   .     A
C209   O255    1.284   .     A
C209   C228    1.424   .     S
C210   H243    1.085   .     S
C210   C212    1.392   .     A
C210   C221    1.391   .     A
C211   C231    1.441   .     S
C211   C232    1.392   .     A
C211   C213    1.394   .     A
C212   C230    1.441   .     S
C212   C214    1.394   .     A
C213   H244    1.083   .     S
C213   C215    1.402   .     A
C214   H245    1.083   .     S
C214   C216    1.402   .     A
C215   C222    1.417   .     A
C215   C217    1.421   .     A
C216   C223    1.417   .     A
C216   C218    1.421   .     A
C217   C219    1.413   .     A
C217   C270    1.402   .     S
C218   C221    1.413   .     A
C218   C269    1.402   1_455 S
C219   C227    1.398   .     A
C219   C232    1.391   .     A
C220   O256    1.284   .     A
C220   O254    1.293   .     A
C220   C229    1.424   .     S
C221   C226    1.398   .     A
C222   C224    1.510   .     S
C222   C278    1.399   .     S
C223   C225    1.510   .     S
C223   C279    1.399   1_455 S
C224   H238    1.110   .     S
C224   H237    1.111   .     S
C225   H241    1.110   .     S
C225   H240    1.110   .     S
C225   H34     1.111   1_565 S
C226   H246    1.085   .     S
C226   C274    1.399   1_455 S
C227   H247    1.085   .     S
C227   C275    1.399   .     S
C229   C20     1.325   1_565 S
C229   H41     1.088   1_565 S
C230   O257    1.294   .     A
C230   O259    1.291   .     A
C231   O260    1.291   .     A
C231   O258    1.294   .     A
C232   H235    1.085   .     S
Cu233  O256    1.947   .     S
Cu233  N252    2.022   .     S
Cu233  O257    1.960   .     S
Cu233  O260    1.945   .     S
Cu233  O253    1.953   .     S
Cu233  Cu234   2.691   .     S
Cu234  O259    1.945   .     S
Cu234  O255    1.947   .     S
Cu234  N251    2.022   .     S
Cu234  O258    1.960   .     S
Cu234  O254    1.953   .     S
H236   N876    1.029   1_554 S
H239   C16     1.111   1_565 S
H248   C20     1.088   1_565 S
H250   N563    1.029   .     S
N251   H874    1.029   1_554 S
N251   N876    1.293   1_554 S
N252   N563    1.293   .     S
N252   H548    1.029   .     S
C261   O305    1.293   .     A
C261   O307    1.284   .     A
C261   C280    1.424   .     S
C262   H295    1.085   .     S
C262   C264    1.392   .     A
C262   C273    1.391   .     A
C263   C283    1.441   .     S
C263   C284    1.392   .     A
C263   C265    1.394   .     A
C264   C282    1.441   .     S
C264   C266    1.394   .     A
C265   H296    1.083   .     S
C265   C267    1.402   .     A
C266   H297    1.083   .     S
C266   C268    1.402   .     A
C267   C274    1.417   .     A
C267   C269    1.421   .     A
C268   C275    1.417   .     A
C268   C270    1.421   .     A
C269   C271    1.413   .     A
C269   C218    1.402   1_655 S
C270   C273    1.413   .     A
C271   C279    1.398   .     A
C271   C284    1.391   .     A
C272   O308    1.284   .     A
C272   O306    1.293   .     A
C272   C281    1.424   .     S
C273   C278    1.398   .     A
C274   C276    1.510   .     S
C274   C226    1.399   1_655 S
C275   C277    1.510   .     S
C276   H290    1.110   .     S
C276   H289    1.111   .     S
C277   H293    1.110   .     S
C277   H292    1.110   .     S
C277   H86     1.111   1_565 S
C278   H298    1.085   .     S
C279   H299    1.085   .     S
C279   C223    1.399   1_655 S
C281   C72     1.325   1_565 S
C281   H93     1.088   1_565 S
C282   O309    1.294   .     A
C282   O311    1.291   .     A
C283   O312    1.291   .     A
C283   O310    1.294   .     A
C284   H287    1.085   .     S
Cu285  O308    1.947   .     S
Cu285  N304    2.022   .     S
Cu285  O309    1.960   .     S
Cu285  O312    1.945   .     S
Cu285  O305    1.953   .     S
Cu285  Cu286   2.691   .     S
Cu286  O311    1.945   .     S
Cu286  O307    1.947   .     S
Cu286  N303    2.022   .     S
Cu286  O310    1.960   .     S
Cu286  O306    1.953   .     S
H288   N928    1.029   1_554 S
H291   C68     1.111   1_565 S
H300   C72     1.088   1_565 S
H302   N615    1.029   .     S
N303   H926    1.029   1_554 S
N303   N928    1.293   1_554 S
N304   N615    1.293   .     S
N304   H600    1.029   .     S
C313   O357    1.293   .     A
C313   O359    1.284   .     A
C313   C332    1.424   .     S
C314   H347    1.085   .     S
C314   C316    1.392   .     A
C314   C325    1.391   .     A
C315   C335    1.441   .     S
C315   C336    1.392   .     A
C315   C317    1.394   .     A
C316   C334    1.441   .     S
C316   C318    1.394   .     A
C317   H348    1.083   .     S
C317   C319    1.402   .     A
C318   H349    1.083   .     S
C318   C320    1.402   .     A
C319   C326    1.417   .     A
C319   C321    1.421   .     A
C320   C327    1.417   .     A
C320   C322    1.421   .     A
C321   C323    1.413   .     A
C321   C374    1.402   .     S
C322   C325    1.413   .     A
C322   C373    1.402   1_455 S
C323   C331    1.398   .     A
C323   C336    1.391   .     A
C324   O360    1.284   .     A
C324   O358    1.293   .     A
C324   C333    1.424   .     S
C325   C330    1.398   .     A
C326   C328    1.510   .     S
C326   C382    1.399   .     S
C327   C329    1.510   .     S
C327   C383    1.399   1_455 S
C328   H342    1.110   .     S
C328   H341    1.111   .     S
C328   H551    1.111   1_545 S
C329   H345    1.110   .     S
C329   H344    1.110   .     S
C329   H450    1.111   .     S
C330   H350    1.085   .     S
C330   C378    1.399   1_455 S
C331   H351    1.085   .     S
C331   C379    1.399   .     S
C332   C541    1.325   1_545 S
C332   H560    1.088   1_545 S
C333   C436    1.325   .     S
C333   H457    1.088   .     S
C334   O361    1.294   .     A
C334   O363    1.291   .     A
C335   O364    1.291   .     A
C335   O362    1.294   .     A
C336   H339    1.085   .     S
Cu337  O360    1.947   .     S
Cu337  N356    2.022   .     S
Cu337  O361    1.960   .     S
Cu337  O364    1.945   .     S
Cu337  O357    1.953   .     S
Cu337  Cu338   2.691   .     S
Cu338  O363    1.945   .     S
Cu338  O359    1.947   .     S
Cu338  N355    2.022   .     S
Cu338  O362    1.960   .     S
Cu338  O358    1.953   .     S
H343   C432    1.111   .     S
H346   C537    1.111   1_545 S
H352   C436    1.088   .     S
H353   C541    1.088   1_545 S
H354   N667    1.029   .     S
N356   N667    1.293   .     S
N356   H652    1.029   .     S
C365   O409    1.293   .     A
C365   O411    1.284   .     A
C365   C384    1.424   .     S
C366   H399    1.085   .     S
C366   C368    1.392   .     A
C366   C377    1.391   .     A
C367   C387    1.441   .     S
C367   C388    1.392   .     A
C367   C369    1.394   .     A
C368   C386    1.441   .     S
C368   C370    1.394   .     A
C369   H400    1.083   .     S
C369   C371    1.402   .     A
C370   H401    1.083   .     S
C370   C372    1.402   .     A
C371   C378    1.417   .     A
C371   C373    1.421   .     A
C372   C379    1.417   .     A
C372   C374    1.421   .     A
C373   C375    1.413   .     A
C373   C322    1.402   1_655 S
C374   C377    1.413   .     A
C375   C383    1.398   .     A
C375   C388    1.391   .     A
C376   O412    1.284   .     A
C376   O410    1.293   .     A
C376   C385    1.424   .     S
C377   C382    1.398   .     A
C378   C380    1.510   .     S
C378   C330    1.399   1_655 S
C379   C381    1.510   .     S
C380   H394    1.110   .     S
C380   H393    1.111   .     S
C380   H603    1.111   1_545 S
C381   H397    1.110   .     S
C381   H396    1.110   .     S
C381   H502    1.111   .     S
C382   H402    1.085   .     S
C383   H403    1.085   .     S
C383   C327    1.399   1_655 S
C384   C593    1.325   1_545 S
C384   H612    1.088   1_545 S
C385   C488    1.325   .     S
C385   H509    1.088   .     S
C386   O413    1.294   .     A
C386   O415    1.291   .     A
C387   O416    1.291   .     A
C387   O414    1.294   .     A
C388   H391    1.085   .     S
Cu389  O412    1.947   .     S
Cu389  N408    2.022   .     S
Cu389  O413    1.960   .     S
Cu389  O416    1.945   .     S
Cu389  O409    1.953   .     S
Cu389  Cu390   2.691   .     S
Cu390  O415    1.945   .     S
Cu390  O411    1.947   .     S
Cu390  N407    2.022   .     S
Cu390  O414    1.960   .     S
Cu390  O410    1.953   .     S
H395   C484    1.111   .     S
H398   C589    1.111   1_545 S
H404   C488    1.088   .     S
H405   C593    1.088   1_545 S
H406   N719    1.029   .     S
N408   N719    1.293   .     S
N408   H704    1.029   .     S
C417   O461    1.293   .     A
C417   O463    1.284   .     A
C417   C436    1.424   .     S
C418   H451    1.085   .     S
C418   C420    1.392   .     A
C418   C429    1.391   .     A
C419   C439    1.441   .     S
C419   C440    1.392   .     A
C419   C421    1.394   .     A
C420   C438    1.441   .     S
C420   C422    1.394   .     A
C421   H452    1.083   .     S
C421   C423    1.402   .     A
C422   H453    1.083   .     S
C422   C424    1.402   .     A
C423   C430    1.417   .     A
C423   C425    1.421   .     A
C424   C431    1.417   .     A
C424   C426    1.421   .     A
C425   C427    1.413   .     A
C425   C478    1.402   .     S
C426   C429    1.413   .     A
C426   C477    1.402   1_455 S
C427   C435    1.398   .     A
C427   C440    1.391   .     A
C428   O464    1.284   .     A
C428   O462    1.293   .     A
C428   C437    1.424   .     S
C429   C434    1.398   .     A
C430   C432    1.510   .     S
C430   C486    1.399   .     S
C431   C433    1.510   .     S
C431   C487    1.399   1_455 S
C432   H446    1.110   .     S
C432   H445    1.111   .     S
C433   H449    1.110   .     S
C433   H448    1.110   .     S
C433   H554    1.111   .     S
C434   H454    1.085   .     S
C434   C482    1.399   1_455 S
C435   H455    1.085   .     S
C435   C483    1.399   .     S
C437   C540    1.325   .     S
C437   H561    1.088   .     S
C438   O465    1.294   .     A
C438   O467    1.291   .     A
C439   O468    1.291   .     A
C439   O466    1.294   .     A
C440   H443    1.085   .     S
Cu441  O464    1.947   .     S
Cu441  N460    2.022   .     S
Cu441  O465    1.960   .     S
Cu441  O468    1.945   .     S
Cu441  O461    1.953   .     S
Cu441  Cu442   2.691   .     S
Cu442  O467    1.945   .     S
Cu442  O463    1.947   .     S
Cu442  N459    2.022   .     S
Cu442  O466    1.960   .     S
Cu442  O462    1.953   .     S
H447   C536    1.111   .     S
H456   C540    1.088   .     S
H458   N771    1.029   .     S
N460   N771    1.293   .     S
N460   H756    1.029   .     S
C469   O513    1.293   .     A
C469   O515    1.284   .     A
C469   C488    1.424   .     S
C470   H503    1.085   .     S
C470   C472    1.392   .     A
C470   C481    1.391   .     A
C471   C491    1.441   .     S
C471   C492    1.392   .     A
C471   C473    1.394   .     A
C472   C490    1.441   .     S
C472   C474    1.394   .     A
C473   H504    1.083   .     S
C473   C475    1.402   .     A
C474   H505    1.083   .     S
C474   C476    1.402   .     A
C475   C482    1.417   .     A
C475   C477    1.421   .     A
C476   C483    1.417   .     A
C476   C478    1.421   .     A
C477   C479    1.413   .     A
C477   C426    1.402   1_655 S
C478   C481    1.413   .     A
C479   C487    1.398   .     A
C479   C492    1.391   .     A
C480   O516    1.284   .     A
C480   O514    1.293   .     A
C480   C489    1.424   .     S
C481   C486    1.398   .     A
C482   C484    1.510   .     S
C482   C434    1.399   1_655 S
C483   C485    1.510   .     S
C484   H498    1.110   .     S
C484   H497    1.111   .     S
C485   H501    1.110   .     S
C485   H500    1.110   .     S
C485   H606    1.111   .     S
C486   H506    1.085   .     S
C487   H507    1.085   .     S
C487   C431    1.399   1_655 S
C489   C592    1.325   .     S
C489   H613    1.088   .     S
C490   O517    1.294   .     A
C490   O519    1.291   .     A
C491   O520    1.291   .     A
C491   O518    1.294   .     A
C492   H495    1.085   .     S
Cu493  O516    1.947   .     S
Cu493  N512    2.022   .     S
Cu493  O517    1.960   .     S
Cu493  O520    1.945   .     S
Cu493  O513    1.953   .     S
Cu493  Cu494   2.691   .     S
Cu494  O519    1.945   .     S
Cu494  O515    1.947   .     S
Cu494  N511    2.022   .     S
Cu494  O518    1.960   .     S
Cu494  O514    1.953   .     S
H499   C588    1.111   .     S
H508   C592    1.088   .     S
H510   N823    1.029   .     S
N512   N823    1.293   .     S
N512   H808    1.029   .     S
C521   O565    1.293   .     A
C521   O567    1.284   .     A
C521   C540    1.424   .     S
C522   H555    1.085   .     S
C522   C524    1.392   .     A
C522   C533    1.391   .     A
C523   C543    1.441   .     S
C523   C544    1.392   .     A
C523   C525    1.394   .     A
C524   C542    1.441   .     S
C524   C526    1.394   .     A
C525   H556    1.083   .     S
C525   C527    1.402   .     A
C526   H557    1.083   .     S
C526   C528    1.402   .     A
C527   C534    1.417   .     A
C527   C529    1.421   .     A
C528   C535    1.417   .     A
C528   C530    1.421   .     A
C529   C531    1.413   .     A
C529   C582    1.402   .     S
C530   C533    1.413   .     A
C530   C581    1.402   1_455 S
C531   C539    1.398   .     A
C531   C544    1.391   .     A
C532   O568    1.284   .     A
C532   O566    1.293   .     A
C532   C541    1.424   .     S
C533   C538    1.398   .     A
C534   C536    1.510   .     S
C534   C590    1.399   .     S
C535   C537    1.510   .     S
C535   C591    1.399   1_455 S
C536   H550    1.110   .     S
C536   H549    1.111   .     S
C537   H553    1.110   .     S
C537   H552    1.110   .     S
C537   H346    1.111   1_565 S
C538   H558    1.085   .     S
C538   C586    1.399   1_455 S
C539   H559    1.085   .     S
C539   C587    1.399   .     S
C541   C332    1.325   1_565 S
C541   H353    1.088   1_565 S
C542   O569    1.294   .     A
C542   O571    1.291   .     A
C543   O572    1.291   .     A
C543   O570    1.294   .     A
C544   H547    1.085   .     S
Cu545  O568    1.947   .     S
Cu545  N564    2.022   .     S
Cu545  O569    1.960   .     S
Cu545  O572    1.945   .     S
Cu545  O565    1.953   .     S
Cu545  Cu546   2.691   .     S
Cu546  O571    1.945   .     S
Cu546  O567    1.947   .     S
Cu546  N563    2.022   .     S
Cu546  O570    1.960   .     S
Cu546  O566    1.953   .     S
H551   C328    1.111   1_565 S
H560   C332    1.088   1_565 S
H562   N875    1.029   .     S
N564   N875    1.293   .     S
N564   H860    1.029   .     S
C573   O617    1.293   .     A
C573   O619    1.284   .     A
C573   C592    1.424   .     S
C574   H607    1.085   .     S
C574   C576    1.392   .     A
C574   C585    1.391   .     A
C575   C595    1.441   .     S
C575   C596    1.392   .     A
C575   C577    1.394   .     A
C576   C594    1.441   .     S
C576   C578    1.394   .     A
C577   H608    1.083   .     S
C577   C579    1.402   .     A
C578   H609    1.083   .     S
C578   C580    1.402   .     A
C579   C586    1.417   .     A
C579   C581    1.421   .     A
C580   C587    1.417   .     A
C580   C582    1.421   .     A
C581   C583    1.413   .     A
C581   C530    1.402   1_655 S
C582   C585    1.413   .     A
C583   C591    1.398   .     A
C583   C596    1.391   .     A
C584   O620    1.284   .     A
C584   O618    1.293   .     A
C584   C593    1.424   .     S
C585   C590    1.398   .     A
C586   C588    1.510   .     S
C586   C538    1.399   1_655 S
C587   C589    1.510   .     S
C588   H602    1.110   .     S
C588   H601    1.111   .     S
C589   H605    1.110   .     S
C589   H604    1.110   .     S
C589   H398    1.111   1_565 S
C590   H610    1.085   .     S
C591   H611    1.085   .     S
C591   C535    1.399   1_655 S
C593   C384    1.325   1_565 S
C593   H405    1.088   1_565 S
C594   O621    1.294   .     A
C594   O623    1.291   .     A
C595   O624    1.291   .     A
C595   O622    1.294   .     A
C596   H599    1.085   .     S
Cu597  O620    1.947   .     S
Cu597  N616    2.022   .     S
Cu597  O621    1.960   .     S
Cu597  O624    1.945   .     S
Cu597  O617    1.953   .     S
Cu597  Cu598   2.691   .     S
Cu598  O623    1.945   .     S
Cu598  O619    1.947   .     S
Cu598  N615    2.022   .     S
Cu598  O622    1.960   .     S
Cu598  O618    1.953   .     S
H603   C380    1.111   1_565 S
H612   C384    1.088   1_565 S
H614   N927    1.029   .     S
N616   N927    1.293   .     S
N616   H912    1.029   .     S
C625   O669    1.293   .     A
C625   O671    1.284   .     A
C625   C644    1.424   .     S
C626   H659    1.085   .     S
C626   C628    1.392   .     A
C626   C637    1.391   .     A
C627   C647    1.441   .     S
C627   C648    1.392   .     A
C627   C629    1.394   .     A
C628   C646    1.441   .     S
C628   C630    1.394   .     A
C629   H660    1.083   .     S
C629   C631    1.402   .     A
C630   H661    1.083   .     S
C630   C632    1.402   .     A
C631   C638    1.417   .     A
C631   C633    1.421   .     A
C632   C639    1.417   .     A
C632   C634    1.421   .     A
C633   C635    1.413   .     A
C633   C686    1.402   .     S
C634   C637    1.413   .     A
C634   C685    1.402   1_455 S
C635   C643    1.398   .     A
C635   C648    1.391   .     A
C636   O672    1.284   .     A
C636   O670    1.293   .     A
C636   C645    1.424   .     S
C637   C642    1.398   .     A
C638   C640    1.510   .     S
C638   C694    1.399   .     S
C639   C641    1.510   .     S
C639   C695    1.399   1_455 S
C640   H654    1.110   .     S
C640   H653    1.111   .     S
C640   H863    1.111   1_545 S
C641   H657    1.110   .     S
C641   H656    1.110   .     S
C641   H762    1.111   .     S
C642   H662    1.085   .     S
C642   C690    1.399   1_455 S
C643   H663    1.085   .     S
C643   C691    1.399   .     S
C644   C853    1.325   1_545 S
C644   H872    1.088   1_545 S
C645   C748    1.325   .     S
C645   H769    1.088   .     S
C646   O673    1.294   .     A
C646   O675    1.291   .     A
C647   O676    1.291   .     A
C647   O674    1.294   .     A
C648   H651    1.085   .     S
Cu649  O672    1.947   .     S
Cu649  N668    2.022   .     S
Cu649  O673    1.960   .     S
Cu649  O676    1.945   .     S
Cu649  O669    1.953   .     S
Cu649  Cu650   2.691   .     S
Cu650  O675    1.945   .     S
Cu650  O671    1.947   .     S
Cu650  N667    2.022   .     S
Cu650  O674    1.960   .     S
Cu650  O670    1.953   .     S
H655   C744    1.111   .     S
H658   C849    1.111   1_545 S
H664   C748    1.088   .     S
H665   C853    1.088   1_545 S
H666   N43     1.029   1_556 S
N668   N43     1.293   1_556 S
N668   H28     1.029   1_556 S
C677   O721    1.293   .     A
C677   O723    1.284   .     A
C677   C696    1.424   .     S
C678   H711    1.085   .     S
C678   C680    1.392   .     A
C678   C689    1.391   .     A
C679   C699    1.441   .     S
C679   C700    1.392   .     A
C679   C681    1.394   .     A
C680   C698    1.441   .     S
C680   C682    1.394   .     A
C681   H712    1.083   .     S
C681   C683    1.402   .     A
C682   H713    1.083   .     S
C682   C684    1.402   .     A
C683   C690    1.417   .     A
C683   C685    1.421   .     A
C684   C691    1.417   .     A
C684   C686    1.421   .     A
C685   C687    1.413   .     A
C685   C634    1.402   1_655 S
C686   C689    1.413   .     A
C687   C695    1.398   .     A
C687   C700    1.391   .     A
C688   O724    1.284   .     A
C688   O722    1.293   .     A
C688   C697    1.424   .     S
C689   C694    1.398   .     A
C690   C692    1.510   .     S
C690   C642    1.399   1_655 S
C691   C693    1.510   .     S
C692   H706    1.110   .     S
C692   H705    1.111   .     S
C692   H915    1.111   1_545 S
C693   H709    1.110   .     S
C693   H708    1.110   .     S
C693   H814    1.111   .     S
C694   H714    1.085   .     S
C695   H715    1.085   .     S
C695   C639    1.399   1_655 S
C696   C905    1.325   1_545 S
C696   H924    1.088   1_545 S
C697   C800    1.325   .     S
C697   H821    1.088   .     S
C698   O725    1.294   .     A
C698   O727    1.291   .     A
C699   O728    1.291   .     A
C699   O726    1.294   .     A
C700   H703    1.085   .     S
Cu701  O724    1.947   .     S
Cu701  N720    2.022   .     S
Cu701  O725    1.960   .     S
Cu701  O728    1.945   .     S
Cu701  O721    1.953   .     S
Cu701  Cu702   2.691   .     S
Cu702  O727    1.945   .     S
Cu702  O723    1.947   .     S
Cu702  N719    2.022   .     S
Cu702  O726    1.960   .     S
Cu702  O722    1.953   .     S
H707   C796    1.111   .     S
H710   C901    1.111   1_545 S
H716   C800    1.088   .     S
H717   C905    1.088   1_545 S
H718   N95     1.029   1_556 S
N720   N95     1.293   1_556 S
N720   H80     1.029   1_556 S
C729   O773    1.293   .     A
C729   O775    1.284   .     A
C729   C748    1.424   .     S
C730   H763    1.085   .     S
C730   C732    1.392   .     A
C730   C741    1.391   .     A
C731   C751    1.441   .     S
C731   C752    1.392   .     A
C731   C733    1.394   .     A
C732   C750    1.441   .     S
C732   C734    1.394   .     A
C733   H764    1.083   .     S
C733   C735    1.402   .     A
C734   H765    1.083   .     S
C734   C736    1.402   .     A
C735   C742    1.417   .     A
C735   C737    1.421   .     A
C736   C743    1.417   .     A
C736   C738    1.421   .     A
C737   C739    1.413   .     A
C737   C790    1.402   .     S
C738   C741    1.413   .     A
C738   C789    1.402   1_455 S
C739   C747    1.398   .     A
C739   C752    1.391   .     A
C740   O776    1.284   .     A
C740   O774    1.293   .     A
C740   C749    1.424   .     S
C741   C746    1.398   .     A
C742   C744    1.510   .     S
C742   C798    1.399   .     S
C743   C745    1.510   .     S
C743   C799    1.399   1_455 S
C744   H758    1.110   .     S
C744   H757    1.111   .     S
C745   H761    1.110   .     S
C745   H760    1.110   .     S
C745   H866    1.111   .     S
C746   H766    1.085   .     S
C746   C794    1.399   1_455 S
C747   H767    1.085   .     S
C747   C795    1.399   .     S
C749   C852    1.325   .     S
C749   H873    1.088   .     S
C750   O777    1.294   .     A
C750   O779    1.291   .     A
C751   O780    1.291   .     A
C751   O778    1.294   .     A
C752   H755    1.085   .     S
Cu753  O776    1.947   .     S
Cu753  N772    2.022   .     S
Cu753  O777    1.960   .     S
Cu753  O780    1.945   .     S
Cu753  O773    1.953   .     S
Cu753  Cu754   2.691   .     S
Cu754  O779    1.945   .     S
Cu754  O775    1.947   .     S
Cu754  N771    2.022   .     S
Cu754  O778    1.960   .     S
Cu754  O774    1.953   .     S
H759   C848    1.111   .     S
H768   C852    1.088   .     S
H770   N147    1.029   1_556 S
N772   N147    1.293   1_556 S
N772   H132    1.029   1_556 S
C781   O825    1.293   .     A
C781   O827    1.284   .     A
C781   C800    1.424   .     S
C782   H815    1.085   .     S
C782   C784    1.392   .     A
C782   C793    1.391   .     A
C783   C803    1.441   .     S
C783   C804    1.392   .     A
C783   C785    1.394   .     A
C784   C802    1.441   .     S
C784   C786    1.394   .     A
C785   H816    1.083   .     S
C785   C787    1.402   .     A
C786   H817    1.083   .     S
C786   C788    1.402   .     A
C787   C794    1.417   .     A
C787   C789    1.421   .     A
C788   C795    1.417   .     A
C788   C790    1.421   .     A
C789   C791    1.413   .     A
C789   C738    1.402   1_655 S
C790   C793    1.413   .     A
C791   C799    1.398   .     A
C791   C804    1.391   .     A
C792   O828    1.284   .     A
C792   O826    1.293   .     A
C792   C801    1.424   .     S
C793   C798    1.398   .     A
C794   C796    1.510   .     S
C794   C746    1.399   1_655 S
C795   C797    1.510   .     S
C796   H810    1.110   .     S
C796   H809    1.111   .     S
C797   H813    1.110   .     S
C797   H812    1.110   .     S
C797   H918    1.111   .     S
C798   H818    1.085   .     S
C799   H819    1.085   .     S
C799   C743    1.399   1_655 S
C801   C904    1.325   .     S
C801   H925    1.088   .     S
C802   O829    1.294   .     A
C802   O831    1.291   .     A
C803   O832    1.291   .     A
C803   O830    1.294   .     A
C804   H807    1.085   .     S
Cu805  O828    1.947   .     S
Cu805  N824    2.022   .     S
Cu805  O829    1.960   .     S
Cu805  O832    1.945   .     S
Cu805  O825    1.953   .     S
Cu805  Cu806   2.691   .     S
Cu806  O831    1.945   .     S
Cu806  O827    1.947   .     S
Cu806  N823    2.022   .     S
Cu806  O830    1.960   .     S
Cu806  O826    1.953   .     S
H811   C900    1.111   .     S
H820   C904    1.088   .     S
H822   N199    1.029   1_556 S
N824   N199    1.293   1_556 S
N824   H184    1.029   1_556 S
C833   O877    1.293   .     A
C833   O879    1.284   .     A
C833   C852    1.424   .     S
C834   H867    1.085   .     S
C834   C836    1.392   .     A
C834   C845    1.391   .     A
C835   C855    1.441   .     S
C835   C856    1.392   .     A
C835   C837    1.394   .     A
C836   C854    1.441   .     S
C836   C838    1.394   .     A
C837   H868    1.083   .     S
C837   C839    1.402   .     A
C838   H869    1.083   .     S
C838   C840    1.402   .     A
C839   C846    1.417   .     A
C839   C841    1.421   .     A
C840   C847    1.417   .     A
C840   C842    1.421   .     A
C841   C843    1.413   .     A
C841   C894    1.402   .     S
C842   C845    1.413   .     A
C842   C893    1.402   1_455 S
C843   C851    1.398   .     A
C843   C856    1.391   .     A
C844   O880    1.284   .     A
C844   O878    1.293   .     A
C844   C853    1.424   .     S
C845   C850    1.398   .     A
C846   C848    1.510   .     S
C846   C902    1.399   .     S
C847   C849    1.510   .     S
C847   C903    1.399   1_455 S
C848   H862    1.110   .     S
C848   H861    1.111   .     S
C849   H865    1.110   .     S
C849   H864    1.110   .     S
C849   H658    1.111   1_565 S
C850   H870    1.085   .     S
C850   C898    1.399   1_455 S
C851   H871    1.085   .     S
C851   C899    1.399   .     S
C853   C644    1.325   1_565 S
C853   H665    1.088   1_565 S
C854   O881    1.294   .     A
C854   O883    1.291   .     A
C855   O884    1.291   .     A
C855   O882    1.294   .     A
C856   H859    1.085   .     S
Cu857  O880    1.947   .     S
Cu857  N876    2.022   .     S
Cu857  O881    1.960   .     S
Cu857  O884    1.945   .     S
Cu857  O877    1.953   .     S
Cu857  Cu858   2.691   .     S
Cu858  O883    1.945   .     S
Cu858  O879    1.947   .     S
Cu858  N875    2.022   .     S
Cu858  O882    1.960   .     S
Cu858  O878    1.953   .     S
H863   C640    1.111   1_565 S
H872   C644    1.088   1_565 S
H874   N251    1.029   1_556 S
N876   N251    1.293   1_556 S
N876   H236    1.029   1_556 S
C885   O929    1.293   .     A
C885   O931    1.284   .     A
C885   C904    1.424   .     S
C886   H919    1.085   .     S
C886   C888    1.392   .     A
C886   C897    1.391   .     A
C887   C907    1.441   .     S
C887   C908    1.392   .     A
C887   C889    1.394   .     A
C888   C906    1.441   .     S
C888   C890    1.394   .     A
C889   H920    1.083   .     S
C889   C891    1.402   .     A
C890   H921    1.083   .     S
C890   C892    1.402   .     A
C891   C898    1.417   .     A
C891   C893    1.421   .     A
C892   C899    1.417   .     A
C892   C894    1.421   .     A
C893   C895    1.413   .     A
C893   C842    1.402   1_655 S
C894   C897    1.413   .     A
C895   C903    1.398   .     A
C895   C908    1.391   .     A
C896   O932    1.284   .     A
C896   O930    1.293   .     A
C896   C905    1.424   .     S
C897   C902    1.398   .     A
C898   C900    1.510   .     S
C898   C850    1.399   1_655 S
C899   C901    1.510   .     S
C900   H914    1.110   .     S
C900   H913    1.111   .     S
C901   H917    1.110   .     S
C901   H916    1.110   .     S
C901   H710    1.111   1_565 S
C902   H922    1.085   .     S
C903   H923    1.085   .     S
C903   C847    1.399   1_655 S
C905   C696    1.325   1_565 S
C905   H717    1.088   1_565 S
C906   O933    1.294   .     A
C906   O935    1.291   .     A
C907   O936    1.291   .     A
C907   O934    1.294   .     A
C908   H911    1.085   .     S
Cu909  O932    1.947   .     S
Cu909  N928    2.022   .     S
Cu909  O933    1.960   .     S
Cu909  O936    1.945   .     S
Cu909  O929    1.953   .     S
Cu909  Cu910   2.691   .     S
Cu910  O935    1.945   .     S
Cu910  O931    1.947   .     S
Cu910  N927    2.022   .     S
Cu910  O934    1.960   .     S
Cu910  O930    1.953   .     S
H915   C692    1.111   1_565 S
H924   C696    1.088   1_565 S
H926   N303    1.029   1_556 S
N928   N303    1.293   1_556 S
N928   H288    1.029   1_556 S
