data_str_m2_o1_o17_pcu_sym.41
_audit_creation_date              2020-01-03
_audit_creation_method            'Materials Studio'
_symmetry_space_group_name_H-M    'P1'
_symmetry_Int_Tables_number       1
_symmetry_cell_setting            triclinic
loop_
_symmetry_equiv_pos_as_xyz
  x,y,z
_cell_length_a                    32.6699
_cell_length_b                    28.5756
_cell_length_c                    30.1816
_cell_angle_alpha                 90.0050
_cell_angle_beta                  90.3852
_cell_angle_gamma                 89.7556
loop_
_atom_site_label
_atom_site_type_symbol
_atom_site_fract_x
_atom_site_fract_y
_atom_site_fract_z
_atom_site_U_iso_or_equiv
_atom_site_adp_type
_atom_site_occupancy
C1     C     0.08747   0.16674   0.25001   0.00000  Uiso   1.00
C2     C     0.04280   0.16675   0.24997   0.00000  Uiso   1.00
C3     C     0.14925   0.02487   0.21586   0.00000  Uiso   1.00
C4     C     0.18408   0.30846   0.28414   0.00000  Uiso   1.00
C5     C     0.18390   0.02467   0.28422   0.00000  Uiso   1.00
C6     C     0.14943   0.30867   0.21578   0.00000  Uiso   1.00
C7     C     0.16630   0.16655   0.16456   0.00000  Uiso   1.00
C8     C     0.16704   0.16679   0.33544   0.00000  Uiso   1.00
C9     C     0.20448   0.16794   0.40677   0.00000  Uiso   1.00
C10    C     0.12885   0.16539   0.09323   0.00000  Uiso   1.00
C11    C     0.16706   0.16739   0.38366   0.00000  Uiso   1.00
C12    C     0.24586   0.16660   0.24999   0.00000  Uiso   1.00
C13    C     0.16627   0.16594   0.11634   0.00000  Uiso   1.00
C14    C     0.12975   0.17037   0.40617   0.00000  Uiso   1.00
C15    C     0.20358   0.16296   0.09383   0.00000  Uiso   1.00
C16    C     0.12968   0.17159   0.45273   0.00000  Uiso   1.00
C17    C     0.20365   0.16174   0.04726   0.00000  Uiso   1.00
C18    C     0.16695   0.16678   0.47651   0.00000  Uiso   1.00
C19    C     0.16638   0.16655   0.02349   0.00000  Uiso   1.00
C20    C     0.20473   0.16272   0.45342   0.00000  Uiso   1.00
C21    C     0.12860   0.17061   0.04658   0.00000  Uiso   1.00
C22    C     0.09311   0.17866   0.47592   0.00000  Uiso   1.00
C23    C     0.09234   0.17970   0.02191   0.00000  Uiso   1.00
C24    C     0.24023   0.15467   0.02408   0.00000  Uiso   1.00
C25    C     0.09188   0.17571   0.38111   0.00000  Uiso   1.00
C26    C     0.24145   0.15762   0.11889   0.00000  Uiso   1.00
C27    C     0.05463   0.19617   0.04140   0.00000  Uiso   1.00
C28    C     0.27870   0.13716   0.45860   0.00000  Uiso   1.00
C29    C     0.04359   0.09582   0.29861   0.00000  Uiso   1.00
C30    C     0.28975   0.23752   0.20139   0.00000  Uiso   1.00
C31    C     0.29134   0.09649   0.29973   0.00000  Uiso   1.00
C32    C     0.04199   0.23684   0.20027   0.00000  Uiso   1.00
C33    C     0.24099   0.15363   0.47809   0.00000  Uiso   1.00
C34    C     0.02170   0.13149   0.27329   0.00000  Uiso   1.00
C35    C     0.31163   0.20185   0.22671   0.00000  Uiso   1.00
C36    C     0.31232   0.13152   0.27346   0.00000  Uiso   1.00
C37    C     0.02101   0.20181   0.22654   0.00000  Uiso   1.00
C38    C     0.29054   0.16658   0.25003   0.00000  Uiso   1.00
Cu39   Cu    0.16667   0.21355   0.25000   0.00000  Uiso   1.00
Cu40   Cu    0.16667   0.11978   0.25000   0.00000  Uiso   1.00
H41    H     0.06462   0.18498   0.45823   0.00000  Uiso   1.00
H42    H     0.26872   0.14836   0.04177   0.00000  Uiso   1.00
H43    H     0.13511   0.04349   0.18854   0.00000  Uiso   1.00
H44    H     0.19823   0.28985   0.31146   0.00000  Uiso   1.00
H45    H     0.19744   0.04311   0.31184   0.00000  Uiso   1.00
H46    H     0.13589   0.29023   0.18816   0.00000  Uiso   1.00
I47    I     0.25726   0.19101   0.37062   0.00000  Uiso   1.00
I48    I     0.07607   0.14233   0.12937   0.00000  Uiso   1.00
N49    N     0.16667   0.28402   0.25000   0.00000  Uiso   1.00
N50    N     0.05827   0.26480   0.17908   0.00000  Uiso   1.00
N51    N     0.16667   0.04931   0.25000   0.00000  Uiso   1.00
N52    N     0.06162   0.18049   0.36147   0.00000  Uiso   1.00
N53    N     0.27171   0.15284   0.13853   0.00000  Uiso   1.00
N54    N     0.02427   0.20971   0.05640   0.00000  Uiso   1.00
N55    N     0.30906   0.12363   0.44360   0.00000  Uiso   1.00
N56    N     0.06092   0.06744   0.31877   0.00000  Uiso   1.00
N57    N     0.27241   0.26590   0.18123   0.00000  Uiso   1.00
N58    N     0.27506   0.06853   0.32092   0.00000  Uiso   1.00
O59    O     0.10655   0.20625   0.24999   0.00000  Uiso   1.00
O60    O     0.22679   0.12709   0.25000   0.00000  Uiso   1.00
O61    O     0.22679   0.20625   0.25000   0.00000  Uiso   1.00
O62    O     0.10655   0.12709   0.24999   0.00000  Uiso   1.00
O63    O     0.16666   0.20627   0.18513   0.00000  Uiso   1.00
O64    O     0.16668   0.12707   0.31487   0.00000  Uiso   1.00
O65    O     0.16668   0.20627   0.31487   0.00000  Uiso   1.00
O66    O     0.16666   0.12707   0.18513   0.00000  Uiso   1.00
C67    C     0.42080   0.16674   0.25001   0.00000  Uiso   1.00
C68    C     0.37613   0.16675   0.24997   0.00000  Uiso   1.00
C69    C     0.48258   0.02487   0.21586   0.00000  Uiso   1.00
C70    C     0.51742   0.30846   0.28414   0.00000  Uiso   1.00
C71    C     0.51724   0.02467   0.28422   0.00000  Uiso   1.00
C72    C     0.48276   0.30867   0.21578   0.00000  Uiso   1.00
C73    C     0.49963   0.16655   0.16456   0.00000  Uiso   1.00
C74    C     0.50037   0.16679   0.33544   0.00000  Uiso   1.00
C75    C     0.53782   0.16794   0.40677   0.00000  Uiso   1.00
C76    C     0.46218   0.16539   0.09323   0.00000  Uiso   1.00
C77    C     0.50039   0.16739   0.38366   0.00000  Uiso   1.00
C78    C     0.57920   0.16660   0.24999   0.00000  Uiso   1.00
C79    C     0.49961   0.16594   0.11634   0.00000  Uiso   1.00
C80    C     0.46308   0.17037   0.40617   0.00000  Uiso   1.00
C81    C     0.53692   0.16296   0.09383   0.00000  Uiso   1.00
C82    C     0.46302   0.17159   0.45273   0.00000  Uiso   1.00
C83    C     0.53698   0.16174   0.04726   0.00000  Uiso   1.00
C84    C     0.50028   0.16678   0.47651   0.00000  Uiso   1.00
C85    C     0.49971   0.16655   0.02349   0.00000  Uiso   1.00
C86    C     0.53807   0.16272   0.45342   0.00000  Uiso   1.00
C87    C     0.46193   0.17061   0.04658   0.00000  Uiso   1.00
C88    C     0.42644   0.17866   0.47592   0.00000  Uiso   1.00
C89    C     0.42567   0.17970   0.02191   0.00000  Uiso   1.00
C90    C     0.57356   0.15467   0.02408   0.00000  Uiso   1.00
C91    C     0.42521   0.17571   0.38111   0.00000  Uiso   1.00
C92    C     0.57479   0.15762   0.11889   0.00000  Uiso   1.00
C93    C     0.38796   0.19617   0.04140   0.00000  Uiso   1.00
C94    C     0.61204   0.13716   0.45860   0.00000  Uiso   1.00
C95    C     0.37692   0.09582   0.29861   0.00000  Uiso   1.00
C96    C     0.62308   0.23752   0.20139   0.00000  Uiso   1.00
C97    C     0.62468   0.09649   0.29973   0.00000  Uiso   1.00
C98    C     0.37532   0.23684   0.20027   0.00000  Uiso   1.00
C99    C     0.57433   0.15363   0.47809   0.00000  Uiso   1.00
C100   C     0.35504   0.13149   0.27329   0.00000  Uiso   1.00
C101   C     0.64496   0.20185   0.22671   0.00000  Uiso   1.00
C102   C     0.64565   0.13152   0.27346   0.00000  Uiso   1.00
C103   C     0.35435   0.20181   0.22654   0.00000  Uiso   1.00
C104   C     0.62387   0.16658   0.25003   0.00000  Uiso   1.00
Cu105  Cu    0.50000   0.21355   0.25000   0.00000  Uiso   1.00
Cu106  Cu    0.50000   0.11978   0.25000   0.00000  Uiso   1.00
H107   H     0.39795   0.18498   0.45823   0.00000  Uiso   1.00
H108   H     0.60205   0.14836   0.04177   0.00000  Uiso   1.00
H109   H     0.46844   0.04349   0.18854   0.00000  Uiso   1.00
H110   H     0.53156   0.28985   0.31146   0.00000  Uiso   1.00
H111   H     0.53078   0.04311   0.31184   0.00000  Uiso   1.00
H112   H     0.46922   0.29023   0.18816   0.00000  Uiso   1.00
I113   I     0.59059   0.19101   0.37062   0.00000  Uiso   1.00
I114   I     0.40941   0.14233   0.12937   0.00000  Uiso   1.00
N115   N     0.50000   0.28402   0.25000   0.00000  Uiso   1.00
N116   N     0.39160   0.26480   0.17908   0.00000  Uiso   1.00
N117   N     0.50000   0.04931   0.25000   0.00000  Uiso   1.00
N118   N     0.39495   0.18049   0.36147   0.00000  Uiso   1.00
N119   N     0.60505   0.15284   0.13853   0.00000  Uiso   1.00
N120   N     0.35760   0.20971   0.05640   0.00000  Uiso   1.00
N121   N     0.64240   0.12363   0.44360   0.00000  Uiso   1.00
N122   N     0.39425   0.06744   0.31877   0.00000  Uiso   1.00
N123   N     0.60574   0.26590   0.18123   0.00000  Uiso   1.00
N124   N     0.60840   0.06853   0.32092   0.00000  Uiso   1.00
O125   O     0.43988   0.20625   0.24999   0.00000  Uiso   1.00
O126   O     0.56012   0.12709   0.25000   0.00000  Uiso   1.00
O127   O     0.56012   0.20625   0.25000   0.00000  Uiso   1.00
O128   O     0.43988   0.12709   0.24999   0.00000  Uiso   1.00
O129   O     0.49999   0.20627   0.18513   0.00000  Uiso   1.00
O130   O     0.50001   0.12707   0.31487   0.00000  Uiso   1.00
O131   O     0.50001   0.20627   0.31487   0.00000  Uiso   1.00
O132   O     0.49999   0.12707   0.18513   0.00000  Uiso   1.00
C133   C     0.75414   0.16674   0.25001   0.00000  Uiso   1.00
C134   C     0.70946   0.16675   0.24997   0.00000  Uiso   1.00
C135   C     0.81592   0.02487   0.21586   0.00000  Uiso   1.00
C136   C     0.85075   0.30846   0.28414   0.00000  Uiso   1.00
C137   C     0.85057   0.02467   0.28422   0.00000  Uiso   1.00
C138   C     0.81610   0.30867   0.21578   0.00000  Uiso   1.00
C139   C     0.83296   0.16655   0.16456   0.00000  Uiso   1.00
C140   C     0.83370   0.16679   0.33544   0.00000  Uiso   1.00
C141   C     0.87115   0.16794   0.40677   0.00000  Uiso   1.00
C142   C     0.79552   0.16539   0.09323   0.00000  Uiso   1.00
C143   C     0.83373   0.16739   0.38366   0.00000  Uiso   1.00
C144   C     0.91253   0.16660   0.24999   0.00000  Uiso   1.00
C145   C     0.83294   0.16594   0.11634   0.00000  Uiso   1.00
C146   C     0.79641   0.17037   0.40617   0.00000  Uiso   1.00
C147   C     0.87025   0.16296   0.09383   0.00000  Uiso   1.00
C148   C     0.79635   0.17159   0.45273   0.00000  Uiso   1.00
C149   C     0.87032   0.16174   0.04726   0.00000  Uiso   1.00
C150   C     0.83362   0.16678   0.47651   0.00000  Uiso   1.00
C151   C     0.83305   0.16655   0.02349   0.00000  Uiso   1.00
C152   C     0.87140   0.16272   0.45342   0.00000  Uiso   1.00
C153   C     0.79527   0.17061   0.04658   0.00000  Uiso   1.00
C154   C     0.75977   0.17866   0.47592   0.00000  Uiso   1.00
C155   C     0.75901   0.17970   0.02191   0.00000  Uiso   1.00
C156   C     0.90689   0.15467   0.02408   0.00000  Uiso   1.00
C157   C     0.75854   0.17571   0.38111   0.00000  Uiso   1.00
C158   C     0.90812   0.15762   0.11889   0.00000  Uiso   1.00
C159   C     0.72130   0.19617   0.04140   0.00000  Uiso   1.00
C160   C     0.94537   0.13716   0.45860   0.00000  Uiso   1.00
C161   C     0.71025   0.09582   0.29861   0.00000  Uiso   1.00
C162   C     0.95641   0.23752   0.20139   0.00000  Uiso   1.00
C163   C     0.95801   0.09649   0.29973   0.00000  Uiso   1.00
C164   C     0.70866   0.23684   0.20027   0.00000  Uiso   1.00
C165   C     0.90766   0.15363   0.47809   0.00000  Uiso   1.00
C166   C     0.68837   0.13149   0.27329   0.00000  Uiso   1.00
C167   C     0.97830   0.20185   0.22671   0.00000  Uiso   1.00
C168   C     0.97899   0.13152   0.27346   0.00000  Uiso   1.00
C169   C     0.68768   0.20181   0.22654   0.00000  Uiso   1.00
C170   C     0.95720   0.16658   0.25003   0.00000  Uiso   1.00
Cu171  Cu    0.83333   0.21355   0.25000   0.00000  Uiso   1.00
Cu172  Cu    0.83333   0.11978   0.25000   0.00000  Uiso   1.00
H173   H     0.73128   0.18498   0.45823   0.00000  Uiso   1.00
H174   H     0.93538   0.14836   0.04177   0.00000  Uiso   1.00
H175   H     0.80177   0.04349   0.18854   0.00000  Uiso   1.00
H176   H     0.86489   0.28985   0.31146   0.00000  Uiso   1.00
H177   H     0.86411   0.04311   0.31184   0.00000  Uiso   1.00
H178   H     0.80256   0.29023   0.18816   0.00000  Uiso   1.00
I179   I     0.92393   0.19101   0.37062   0.00000  Uiso   1.00
I180   I     0.74274   0.14233   0.12937   0.00000  Uiso   1.00
N181   N     0.83333   0.28402   0.25000   0.00000  Uiso   1.00
N182   N     0.72494   0.26480   0.17908   0.00000  Uiso   1.00
N183   N     0.83333   0.04931   0.25000   0.00000  Uiso   1.00
N184   N     0.72829   0.18049   0.36147   0.00000  Uiso   1.00
N185   N     0.93838   0.15284   0.13853   0.00000  Uiso   1.00
N186   N     0.69093   0.20971   0.05640   0.00000  Uiso   1.00
N187   N     0.97573   0.12363   0.44360   0.00000  Uiso   1.00
N188   N     0.72759   0.06744   0.31877   0.00000  Uiso   1.00
N189   N     0.93908   0.26590   0.18123   0.00000  Uiso   1.00
N190   N     0.94173   0.06853   0.32092   0.00000  Uiso   1.00
O191   O     0.77321   0.20625   0.24999   0.00000  Uiso   1.00
O192   O     0.89345   0.12709   0.25000   0.00000  Uiso   1.00
O193   O     0.89345   0.20625   0.25000   0.00000  Uiso   1.00
O194   O     0.77321   0.12709   0.24999   0.00000  Uiso   1.00
O195   O     0.83332   0.20627   0.18513   0.00000  Uiso   1.00
O196   O     0.83334   0.12707   0.31487   0.00000  Uiso   1.00
O197   O     0.83334   0.20627   0.31487   0.00000  Uiso   1.00
O198   O     0.83332   0.12707   0.18513   0.00000  Uiso   1.00
C199   C     0.08747   0.50007   0.25001   0.00000  Uiso   1.00
C200   C     0.04280   0.50008   0.24997   0.00000  Uiso   1.00
C201   C     0.14925   0.35821   0.21586   0.00000  Uiso   1.00
C202   C     0.18408   0.64179   0.28414   0.00000  Uiso   1.00
C203   C     0.18390   0.35800   0.28422   0.00000  Uiso   1.00
C204   C     0.14943   0.64200   0.21578   0.00000  Uiso   1.00
C205   C     0.16630   0.49988   0.16456   0.00000  Uiso   1.00
C206   C     0.16704   0.50012   0.33544   0.00000  Uiso   1.00
C207   C     0.20448   0.50128   0.40677   0.00000  Uiso   1.00
C208   C     0.12885   0.49872   0.09323   0.00000  Uiso   1.00
C209   C     0.16706   0.50072   0.38366   0.00000  Uiso   1.00
C210   C     0.24586   0.49993   0.24999   0.00000  Uiso   1.00
C211   C     0.16627   0.49928   0.11634   0.00000  Uiso   1.00
C212   C     0.12975   0.50371   0.40617   0.00000  Uiso   1.00
C213   C     0.20358   0.49629   0.09383   0.00000  Uiso   1.00
C214   C     0.12968   0.50493   0.45273   0.00000  Uiso   1.00
C215   C     0.20365   0.49507   0.04726   0.00000  Uiso   1.00
C216   C     0.16695   0.50011   0.47651   0.00000  Uiso   1.00
C217   C     0.16638   0.49989   0.02349   0.00000  Uiso   1.00
C218   C     0.20473   0.49605   0.45342   0.00000  Uiso   1.00
C219   C     0.12860   0.50395   0.04658   0.00000  Uiso   1.00
C220   C     0.09311   0.51199   0.47592   0.00000  Uiso   1.00
C221   C     0.09234   0.51303   0.02191   0.00000  Uiso   1.00
C222   C     0.24023   0.48801   0.02408   0.00000  Uiso   1.00
C223   C     0.09188   0.50904   0.38111   0.00000  Uiso   1.00
C224   C     0.24145   0.49096   0.11889   0.00000  Uiso   1.00
C225   C     0.05463   0.52951   0.04140   0.00000  Uiso   1.00
C226   C     0.27870   0.47049   0.45860   0.00000  Uiso   1.00
C227   C     0.04359   0.42915   0.29861   0.00000  Uiso   1.00
C228   C     0.28975   0.57085   0.20139   0.00000  Uiso   1.00
C229   C     0.29134   0.42983   0.29973   0.00000  Uiso   1.00
C230   C     0.04199   0.57017   0.20027   0.00000  Uiso   1.00
C231   C     0.24099   0.48697   0.47809   0.00000  Uiso   1.00
C232   C     0.02170   0.46482   0.27329   0.00000  Uiso   1.00
C233   C     0.31163   0.53518   0.22671   0.00000  Uiso   1.00
C234   C     0.31232   0.46486   0.27346   0.00000  Uiso   1.00
C235   C     0.02101   0.53514   0.22654   0.00000  Uiso   1.00
C236   C     0.29054   0.49992   0.25003   0.00000  Uiso   1.00
Cu237  Cu    0.16667   0.54689   0.25000   0.00000  Uiso   1.00
Cu238  Cu    0.16667   0.45311   0.25000   0.00000  Uiso   1.00
H239   H     0.06462   0.51831   0.45823   0.00000  Uiso   1.00
H240   H     0.26872   0.48169   0.04177   0.00000  Uiso   1.00
H241   H     0.13511   0.37682   0.18854   0.00000  Uiso   1.00
H242   H     0.19823   0.62318   0.31146   0.00000  Uiso   1.00
H243   H     0.19744   0.37644   0.31184   0.00000  Uiso   1.00
H244   H     0.13589   0.62356   0.18816   0.00000  Uiso   1.00
I245   I     0.25726   0.52434   0.37062   0.00000  Uiso   1.00
I246   I     0.07607   0.47566   0.12937   0.00000  Uiso   1.00
N247   N     0.16667   0.61736   0.25000   0.00000  Uiso   1.00
N248   N     0.05827   0.59814   0.17908   0.00000  Uiso   1.00
N249   N     0.16667   0.38264   0.25000   0.00000  Uiso   1.00
N250   N     0.06162   0.51382   0.36147   0.00000  Uiso   1.00
N251   N     0.27171   0.48618   0.13853   0.00000  Uiso   1.00
N252   N     0.02427   0.54304   0.05640   0.00000  Uiso   1.00
N253   N     0.30906   0.45696   0.44360   0.00000  Uiso   1.00
N254   N     0.06092   0.40077   0.31877   0.00000  Uiso   1.00
N255   N     0.27241   0.59923   0.18123   0.00000  Uiso   1.00
N256   N     0.27506   0.40187   0.32092   0.00000  Uiso   1.00
O257   O     0.10655   0.53958   0.24999   0.00000  Uiso   1.00
O258   O     0.22679   0.46042   0.25000   0.00000  Uiso   1.00
O259   O     0.22679   0.53958   0.25000   0.00000  Uiso   1.00
O260   O     0.10655   0.46042   0.24999   0.00000  Uiso   1.00
O261   O     0.16666   0.53960   0.18513   0.00000  Uiso   1.00
O262   O     0.16668   0.46040   0.31487   0.00000  Uiso   1.00
O263   O     0.16668   0.53960   0.31487   0.00000  Uiso   1.00
O264   O     0.16666   0.46040   0.18513   0.00000  Uiso   1.00
C265   C     0.42080   0.50007   0.25001   0.00000  Uiso   1.00
C266   C     0.37613   0.50008   0.24997   0.00000  Uiso   1.00
C267   C     0.48258   0.35821   0.21586   0.00000  Uiso   1.00
C268   C     0.51742   0.64179   0.28414   0.00000  Uiso   1.00
C269   C     0.51724   0.35800   0.28422   0.00000  Uiso   1.00
C270   C     0.48276   0.64200   0.21578   0.00000  Uiso   1.00
C271   C     0.49963   0.49988   0.16456   0.00000  Uiso   1.00
C272   C     0.50037   0.50012   0.33544   0.00000  Uiso   1.00
C273   C     0.53782   0.50128   0.40677   0.00000  Uiso   1.00
C274   C     0.46218   0.49872   0.09323   0.00000  Uiso   1.00
C275   C     0.50039   0.50072   0.38366   0.00000  Uiso   1.00
C276   C     0.57920   0.49993   0.24999   0.00000  Uiso   1.00
C277   C     0.49961   0.49928   0.11634   0.00000  Uiso   1.00
C278   C     0.46308   0.50371   0.40617   0.00000  Uiso   1.00
C279   C     0.53692   0.49629   0.09383   0.00000  Uiso   1.00
C280   C     0.46302   0.50493   0.45273   0.00000  Uiso   1.00
C281   C     0.53698   0.49507   0.04726   0.00000  Uiso   1.00
C282   C     0.50028   0.50011   0.47651   0.00000  Uiso   1.00
C283   C     0.49971   0.49989   0.02349   0.00000  Uiso   1.00
C284   C     0.53807   0.49605   0.45342   0.00000  Uiso   1.00
C285   C     0.46193   0.50395   0.04658   0.00000  Uiso   1.00
C286   C     0.42644   0.51199   0.47592   0.00000  Uiso   1.00
C287   C     0.42567   0.51303   0.02191   0.00000  Uiso   1.00
C288   C     0.57356   0.48801   0.02408   0.00000  Uiso   1.00
C289   C     0.42521   0.50904   0.38111   0.00000  Uiso   1.00
C290   C     0.57479   0.49096   0.11889   0.00000  Uiso   1.00
C291   C     0.38796   0.52951   0.04140   0.00000  Uiso   1.00
C292   C     0.61204   0.47049   0.45860   0.00000  Uiso   1.00
C293   C     0.37692   0.42915   0.29861   0.00000  Uiso   1.00
C294   C     0.62308   0.57085   0.20139   0.00000  Uiso   1.00
C295   C     0.62468   0.42983   0.29973   0.00000  Uiso   1.00
C296   C     0.37532   0.57017   0.20027   0.00000  Uiso   1.00
C297   C     0.57433   0.48697   0.47809   0.00000  Uiso   1.00
C298   C     0.35504   0.46482   0.27329   0.00000  Uiso   1.00
C299   C     0.64496   0.53518   0.22671   0.00000  Uiso   1.00
C300   C     0.64565   0.46486   0.27346   0.00000  Uiso   1.00
C301   C     0.35435   0.53514   0.22654   0.00000  Uiso   1.00
C302   C     0.62387   0.49992   0.25003   0.00000  Uiso   1.00
Cu303  Cu    0.50000   0.54689   0.25000   0.00000  Uiso   1.00
Cu304  Cu    0.50000   0.45311   0.25000   0.00000  Uiso   1.00
H305   H     0.39795   0.51831   0.45823   0.00000  Uiso   1.00
H306   H     0.60205   0.48169   0.04177   0.00000  Uiso   1.00
H307   H     0.46844   0.37682   0.18854   0.00000  Uiso   1.00
H308   H     0.53156   0.62318   0.31146   0.00000  Uiso   1.00
H309   H     0.53078   0.37644   0.31184   0.00000  Uiso   1.00
H310   H     0.46922   0.62356   0.18816   0.00000  Uiso   1.00
I311   I     0.59059   0.52434   0.37062   0.00000  Uiso   1.00
I312   I     0.40941   0.47566   0.12937   0.00000  Uiso   1.00
N313   N     0.50000   0.61736   0.25000   0.00000  Uiso   1.00
N314   N     0.39160   0.59814   0.17908   0.00000  Uiso   1.00
N315   N     0.50000   0.38264   0.25000   0.00000  Uiso   1.00
N316   N     0.39495   0.51382   0.36147   0.00000  Uiso   1.00
N317   N     0.60505   0.48618   0.13853   0.00000  Uiso   1.00
N318   N     0.35760   0.54304   0.05640   0.00000  Uiso   1.00
N319   N     0.64240   0.45696   0.44360   0.00000  Uiso   1.00
N320   N     0.39425   0.40077   0.31877   0.00000  Uiso   1.00
N321   N     0.60574   0.59923   0.18123   0.00000  Uiso   1.00
N322   N     0.60840   0.40187   0.32092   0.00000  Uiso   1.00
O323   O     0.43988   0.53958   0.24999   0.00000  Uiso   1.00
O324   O     0.56012   0.46042   0.25000   0.00000  Uiso   1.00
O325   O     0.56012   0.53958   0.25000   0.00000  Uiso   1.00
O326   O     0.43988   0.46042   0.24999   0.00000  Uiso   1.00
O327   O     0.49999   0.53960   0.18513   0.00000  Uiso   1.00
O328   O     0.50001   0.46040   0.31487   0.00000  Uiso   1.00
O329   O     0.50001   0.53960   0.31487   0.00000  Uiso   1.00
O330   O     0.49999   0.46040   0.18513   0.00000  Uiso   1.00
C331   C     0.75414   0.50007   0.25001   0.00000  Uiso   1.00
C332   C     0.70946   0.50008   0.24997   0.00000  Uiso   1.00
C333   C     0.81592   0.35821   0.21586   0.00000  Uiso   1.00
C334   C     0.85075   0.64179   0.28414   0.00000  Uiso   1.00
C335   C     0.85057   0.35800   0.28422   0.00000  Uiso   1.00
C336   C     0.81610   0.64200   0.21578   0.00000  Uiso   1.00
C337   C     0.83296   0.49988   0.16456   0.00000  Uiso   1.00
C338   C     0.83370   0.50012   0.33544   0.00000  Uiso   1.00
C339   C     0.87115   0.50128   0.40677   0.00000  Uiso   1.00
C340   C     0.79552   0.49872   0.09323   0.00000  Uiso   1.00
C341   C     0.83373   0.50072   0.38366   0.00000  Uiso   1.00
C342   C     0.91253   0.49993   0.24999   0.00000  Uiso   1.00
C343   C     0.83294   0.49928   0.11634   0.00000  Uiso   1.00
C344   C     0.79641   0.50371   0.40617   0.00000  Uiso   1.00
C345   C     0.87025   0.49629   0.09383   0.00000  Uiso   1.00
C346   C     0.79635   0.50493   0.45273   0.00000  Uiso   1.00
C347   C     0.87032   0.49507   0.04726   0.00000  Uiso   1.00
C348   C     0.83362   0.50011   0.47651   0.00000  Uiso   1.00
C349   C     0.83305   0.49989   0.02349   0.00000  Uiso   1.00
C350   C     0.87140   0.49605   0.45342   0.00000  Uiso   1.00
C351   C     0.79527   0.50395   0.04658   0.00000  Uiso   1.00
C352   C     0.75977   0.51199   0.47592   0.00000  Uiso   1.00
C353   C     0.75901   0.51303   0.02191   0.00000  Uiso   1.00
C354   C     0.90689   0.48801   0.02408   0.00000  Uiso   1.00
C355   C     0.75854   0.50904   0.38111   0.00000  Uiso   1.00
C356   C     0.90812   0.49096   0.11889   0.00000  Uiso   1.00
C357   C     0.72130   0.52951   0.04140   0.00000  Uiso   1.00
C358   C     0.94537   0.47049   0.45860   0.00000  Uiso   1.00
C359   C     0.71025   0.42915   0.29861   0.00000  Uiso   1.00
C360   C     0.95641   0.57085   0.20139   0.00000  Uiso   1.00
C361   C     0.95801   0.42983   0.29973   0.00000  Uiso   1.00
C362   C     0.70866   0.57017   0.20027   0.00000  Uiso   1.00
C363   C     0.90766   0.48697   0.47809   0.00000  Uiso   1.00
C364   C     0.68837   0.46482   0.27329   0.00000  Uiso   1.00
C365   C     0.97830   0.53518   0.22671   0.00000  Uiso   1.00
C366   C     0.97899   0.46486   0.27346   0.00000  Uiso   1.00
C367   C     0.68768   0.53514   0.22654   0.00000  Uiso   1.00
C368   C     0.95720   0.49992   0.25003   0.00000  Uiso   1.00
Cu369  Cu    0.83333   0.54689   0.25000   0.00000  Uiso   1.00
Cu370  Cu    0.83333   0.45311   0.25000   0.00000  Uiso   1.00
H371   H     0.73128   0.51831   0.45823   0.00000  Uiso   1.00
H372   H     0.93538   0.48169   0.04177   0.00000  Uiso   1.00
H373   H     0.80177   0.37682   0.18854   0.00000  Uiso   1.00
H374   H     0.86489   0.62318   0.31146   0.00000  Uiso   1.00
H375   H     0.86411   0.37644   0.31184   0.00000  Uiso   1.00
H376   H     0.80256   0.62356   0.18816   0.00000  Uiso   1.00
I377   I     0.92393   0.52434   0.37062   0.00000  Uiso   1.00
I378   I     0.74274   0.47566   0.12937   0.00000  Uiso   1.00
N379   N     0.83333   0.61736   0.25000   0.00000  Uiso   1.00
N380   N     0.72494   0.59814   0.17908   0.00000  Uiso   1.00
N381   N     0.83333   0.38264   0.25000   0.00000  Uiso   1.00
N382   N     0.72829   0.51382   0.36147   0.00000  Uiso   1.00
N383   N     0.93838   0.48618   0.13853   0.00000  Uiso   1.00
N384   N     0.69093   0.54304   0.05640   0.00000  Uiso   1.00
N385   N     0.97573   0.45696   0.44360   0.00000  Uiso   1.00
N386   N     0.72759   0.40077   0.31877   0.00000  Uiso   1.00
N387   N     0.93908   0.59923   0.18123   0.00000  Uiso   1.00
N388   N     0.94173   0.40187   0.32092   0.00000  Uiso   1.00
O389   O     0.77321   0.53958   0.24999   0.00000  Uiso   1.00
O390   O     0.89345   0.46042   0.25000   0.00000  Uiso   1.00
O391   O     0.89345   0.53958   0.25000   0.00000  Uiso   1.00
O392   O     0.77321   0.46042   0.24999   0.00000  Uiso   1.00
O393   O     0.83332   0.53960   0.18513   0.00000  Uiso   1.00
O394   O     0.83334   0.46040   0.31487   0.00000  Uiso   1.00
O395   O     0.83334   0.53960   0.31487   0.00000  Uiso   1.00
O396   O     0.83332   0.46040   0.18513   0.00000  Uiso   1.00
C397   C     0.08747   0.83340   0.25001   0.00000  Uiso   1.00
C398   C     0.04280   0.83342   0.24997   0.00000  Uiso   1.00
C399   C     0.14925   0.69154   0.21586   0.00000  Uiso   1.00
C400   C     0.18408   0.97513   0.28414   0.00000  Uiso   1.00
C401   C     0.18390   0.69133   0.28422   0.00000  Uiso   1.00
C402   C     0.14943   0.97533   0.21578   0.00000  Uiso   1.00
C403   C     0.16630   0.83321   0.16456   0.00000  Uiso   1.00
C404   C     0.16704   0.83345   0.33544   0.00000  Uiso   1.00
C405   C     0.20448   0.83461   0.40677   0.00000  Uiso   1.00
C406   C     0.12885   0.83206   0.09323   0.00000  Uiso   1.00
C407   C     0.16706   0.83406   0.38366   0.00000  Uiso   1.00
C408   C     0.24586   0.83326   0.24999   0.00000  Uiso   1.00
C409   C     0.16627   0.83261   0.11634   0.00000  Uiso   1.00
C410   C     0.12975   0.83704   0.40617   0.00000  Uiso   1.00
C411   C     0.20358   0.82963   0.09383   0.00000  Uiso   1.00
C412   C     0.12968   0.83826   0.45273   0.00000  Uiso   1.00
C413   C     0.20365   0.82841   0.04726   0.00000  Uiso   1.00
C414   C     0.16695   0.83345   0.47651   0.00000  Uiso   1.00
C415   C     0.16638   0.83322   0.02349   0.00000  Uiso   1.00
C416   C     0.20473   0.82939   0.45342   0.00000  Uiso   1.00
C417   C     0.12860   0.83728   0.04658   0.00000  Uiso   1.00
C418   C     0.09311   0.84533   0.47592   0.00000  Uiso   1.00
C419   C     0.09234   0.84637   0.02191   0.00000  Uiso   1.00
C420   C     0.24023   0.82134   0.02408   0.00000  Uiso   1.00
C421   C     0.09188   0.84238   0.38111   0.00000  Uiso   1.00
C422   C     0.24145   0.82429   0.11889   0.00000  Uiso   1.00
C423   C     0.05463   0.86284   0.04140   0.00000  Uiso   1.00
C424   C     0.27870   0.80383   0.45860   0.00000  Uiso   1.00
C425   C     0.04359   0.76248   0.29861   0.00000  Uiso   1.00
C426   C     0.28975   0.90418   0.20139   0.00000  Uiso   1.00
C427   C     0.29134   0.76316   0.29973   0.00000  Uiso   1.00
C428   C     0.04199   0.90351   0.20027   0.00000  Uiso   1.00
C429   C     0.24099   0.82030   0.47809   0.00000  Uiso   1.00
C430   C     0.02170   0.79815   0.27329   0.00000  Uiso   1.00
C431   C     0.31163   0.86851   0.22671   0.00000  Uiso   1.00
C432   C     0.31232   0.79819   0.27346   0.00000  Uiso   1.00
C433   C     0.02101   0.86848   0.22654   0.00000  Uiso   1.00
C434   C     0.29054   0.83325   0.25003   0.00000  Uiso   1.00
Cu435  Cu    0.16667   0.88022   0.25000   0.00000  Uiso   1.00
Cu436  Cu    0.16667   0.78645   0.25000   0.00000  Uiso   1.00
H437   H     0.06462   0.85164   0.45823   0.00000  Uiso   1.00
H438   H     0.26872   0.81502   0.04177   0.00000  Uiso   1.00
H439   H     0.13511   0.71015   0.18854   0.00000  Uiso   1.00
H440   H     0.19823   0.95651   0.31146   0.00000  Uiso   1.00
H441   H     0.19744   0.70977   0.31184   0.00000  Uiso   1.00
H442   H     0.13589   0.95689   0.18816   0.00000  Uiso   1.00
I443   I     0.25726   0.85767   0.37062   0.00000  Uiso   1.00
I444   I     0.07607   0.80899   0.12937   0.00000  Uiso   1.00
N445   N     0.16667   0.95069   0.25000   0.00000  Uiso   1.00
N446   N     0.05827   0.93147   0.17908   0.00000  Uiso   1.00
N447   N     0.16667   0.71598   0.25000   0.00000  Uiso   1.00
N448   N     0.06162   0.84716   0.36147   0.00000  Uiso   1.00
N449   N     0.27171   0.81951   0.13853   0.00000  Uiso   1.00
N450   N     0.02427   0.87637   0.05640   0.00000  Uiso   1.00
N451   N     0.30906   0.79029   0.44360   0.00000  Uiso   1.00
N452   N     0.06092   0.73410   0.31877   0.00000  Uiso   1.00
N453   N     0.27241   0.93256   0.18123   0.00000  Uiso   1.00
N454   N     0.27506   0.73520   0.32092   0.00000  Uiso   1.00
O455   O     0.10655   0.87291   0.24999   0.00000  Uiso   1.00
O456   O     0.22679   0.79375   0.25000   0.00000  Uiso   1.00
O457   O     0.22679   0.87291   0.25000   0.00000  Uiso   1.00
O458   O     0.10655   0.79375   0.24999   0.00000  Uiso   1.00
O459   O     0.16666   0.87293   0.18513   0.00000  Uiso   1.00
O460   O     0.16668   0.79373   0.31487   0.00000  Uiso   1.00
O461   O     0.16668   0.87293   0.31487   0.00000  Uiso   1.00
O462   O     0.16666   0.79373   0.18513   0.00000  Uiso   1.00
C463   C     0.42080   0.83340   0.25001   0.00000  Uiso   1.00
C464   C     0.37613   0.83342   0.24997   0.00000  Uiso   1.00
C465   C     0.48258   0.69154   0.21586   0.00000  Uiso   1.00
C466   C     0.51742   0.97513   0.28414   0.00000  Uiso   1.00
C467   C     0.51724   0.69133   0.28422   0.00000  Uiso   1.00
C468   C     0.48276   0.97533   0.21578   0.00000  Uiso   1.00
C469   C     0.49963   0.83321   0.16456   0.00000  Uiso   1.00
C470   C     0.50037   0.83345   0.33544   0.00000  Uiso   1.00
C471   C     0.53782   0.83461   0.40677   0.00000  Uiso   1.00
C472   C     0.46218   0.83206   0.09323   0.00000  Uiso   1.00
C473   C     0.50039   0.83406   0.38366   0.00000  Uiso   1.00
C474   C     0.57920   0.83326   0.24999   0.00000  Uiso   1.00
C475   C     0.49961   0.83261   0.11634   0.00000  Uiso   1.00
C476   C     0.46308   0.83704   0.40617   0.00000  Uiso   1.00
C477   C     0.53692   0.82963   0.09383   0.00000  Uiso   1.00
C478   C     0.46302   0.83826   0.45273   0.00000  Uiso   1.00
C479   C     0.53698   0.82841   0.04726   0.00000  Uiso   1.00
C480   C     0.50028   0.83345   0.47651   0.00000  Uiso   1.00
C481   C     0.49971   0.83322   0.02349   0.00000  Uiso   1.00
C482   C     0.53807   0.82939   0.45342   0.00000  Uiso   1.00
C483   C     0.46193   0.83728   0.04658   0.00000  Uiso   1.00
C484   C     0.42644   0.84533   0.47592   0.00000  Uiso   1.00
C485   C     0.42567   0.84637   0.02191   0.00000  Uiso   1.00
C486   C     0.57356   0.82134   0.02408   0.00000  Uiso   1.00
C487   C     0.42521   0.84238   0.38111   0.00000  Uiso   1.00
C488   C     0.57479   0.82429   0.11889   0.00000  Uiso   1.00
C489   C     0.38796   0.86284   0.04140   0.00000  Uiso   1.00
C490   C     0.61204   0.80383   0.45860   0.00000  Uiso   1.00
C491   C     0.37692   0.76248   0.29861   0.00000  Uiso   1.00
C492   C     0.62308   0.90418   0.20139   0.00000  Uiso   1.00
C493   C     0.62468   0.76316   0.29973   0.00000  Uiso   1.00
C494   C     0.37532   0.90351   0.20027   0.00000  Uiso   1.00
C495   C     0.57433   0.82030   0.47809   0.00000  Uiso   1.00
C496   C     0.35504   0.79815   0.27329   0.00000  Uiso   1.00
C497   C     0.64496   0.86851   0.22671   0.00000  Uiso   1.00
C498   C     0.64565   0.79819   0.27346   0.00000  Uiso   1.00
C499   C     0.35435   0.86848   0.22654   0.00000  Uiso   1.00
C500   C     0.62387   0.83325   0.25003   0.00000  Uiso   1.00
Cu501  Cu    0.50000   0.88022   0.25000   0.00000  Uiso   1.00
Cu502  Cu    0.50000   0.78645   0.25000   0.00000  Uiso   1.00
H503   H     0.39795   0.85164   0.45823   0.00000  Uiso   1.00
H504   H     0.60205   0.81502   0.04177   0.00000  Uiso   1.00
H505   H     0.46844   0.71015   0.18854   0.00000  Uiso   1.00
H506   H     0.53156   0.95651   0.31146   0.00000  Uiso   1.00
H507   H     0.53078   0.70977   0.31184   0.00000  Uiso   1.00
H508   H     0.46922   0.95689   0.18816   0.00000  Uiso   1.00
I509   I     0.59059   0.85767   0.37062   0.00000  Uiso   1.00
I510   I     0.40941   0.80899   0.12937   0.00000  Uiso   1.00
N511   N     0.50000   0.95069   0.25000   0.00000  Uiso   1.00
N512   N     0.39160   0.93147   0.17908   0.00000  Uiso   1.00
N513   N     0.50000   0.71598   0.25000   0.00000  Uiso   1.00
N514   N     0.39495   0.84716   0.36147   0.00000  Uiso   1.00
N515   N     0.60505   0.81951   0.13853   0.00000  Uiso   1.00
N516   N     0.35760   0.87637   0.05640   0.00000  Uiso   1.00
N517   N     0.64240   0.79029   0.44360   0.00000  Uiso   1.00
N518   N     0.39425   0.73410   0.31877   0.00000  Uiso   1.00
N519   N     0.60574   0.93256   0.18123   0.00000  Uiso   1.00
N520   N     0.60840   0.73520   0.32092   0.00000  Uiso   1.00
O521   O     0.43988   0.87291   0.24999   0.00000  Uiso   1.00
O522   O     0.56012   0.79375   0.25000   0.00000  Uiso   1.00
O523   O     0.56012   0.87291   0.25000   0.00000  Uiso   1.00
O524   O     0.43988   0.79375   0.24999   0.00000  Uiso   1.00
O525   O     0.49999   0.87293   0.18513   0.00000  Uiso   1.00
O526   O     0.50001   0.79373   0.31487   0.00000  Uiso   1.00
O527   O     0.50001   0.87293   0.31487   0.00000  Uiso   1.00
O528   O     0.49999   0.79373   0.18513   0.00000  Uiso   1.00
C529   C     0.75414   0.83340   0.25001   0.00000  Uiso   1.00
C530   C     0.70946   0.83342   0.24997   0.00000  Uiso   1.00
C531   C     0.81592   0.69154   0.21586   0.00000  Uiso   1.00
C532   C     0.85075   0.97513   0.28414   0.00000  Uiso   1.00
C533   C     0.85057   0.69133   0.28422   0.00000  Uiso   1.00
C534   C     0.81610   0.97533   0.21578   0.00000  Uiso   1.00
C535   C     0.83296   0.83321   0.16456   0.00000  Uiso   1.00
C536   C     0.83370   0.83345   0.33544   0.00000  Uiso   1.00
C537   C     0.87115   0.83461   0.40677   0.00000  Uiso   1.00
C538   C     0.79552   0.83206   0.09323   0.00000  Uiso   1.00
C539   C     0.83373   0.83406   0.38366   0.00000  Uiso   1.00
C540   C     0.91253   0.83326   0.24999   0.00000  Uiso   1.00
C541   C     0.83294   0.83261   0.11634   0.00000  Uiso   1.00
C542   C     0.79641   0.83704   0.40617   0.00000  Uiso   1.00
C543   C     0.87025   0.82963   0.09383   0.00000  Uiso   1.00
C544   C     0.79635   0.83826   0.45273   0.00000  Uiso   1.00
C545   C     0.87032   0.82841   0.04726   0.00000  Uiso   1.00
C546   C     0.83362   0.83345   0.47651   0.00000  Uiso   1.00
C547   C     0.83305   0.83322   0.02349   0.00000  Uiso   1.00
C548   C     0.87140   0.82939   0.45342   0.00000  Uiso   1.00
C549   C     0.79527   0.83728   0.04658   0.00000  Uiso   1.00
C550   C     0.75977   0.84533   0.47592   0.00000  Uiso   1.00
C551   C     0.75901   0.84637   0.02191   0.00000  Uiso   1.00
C552   C     0.90689   0.82134   0.02408   0.00000  Uiso   1.00
C553   C     0.75854   0.84238   0.38111   0.00000  Uiso   1.00
C554   C     0.90812   0.82429   0.11889   0.00000  Uiso   1.00
C555   C     0.72130   0.86284   0.04140   0.00000  Uiso   1.00
C556   C     0.94537   0.80383   0.45860   0.00000  Uiso   1.00
C557   C     0.71025   0.76248   0.29861   0.00000  Uiso   1.00
C558   C     0.95641   0.90418   0.20139   0.00000  Uiso   1.00
C559   C     0.95801   0.76316   0.29973   0.00000  Uiso   1.00
C560   C     0.70866   0.90351   0.20027   0.00000  Uiso   1.00
C561   C     0.90766   0.82030   0.47809   0.00000  Uiso   1.00
C562   C     0.68837   0.79815   0.27329   0.00000  Uiso   1.00
C563   C     0.97830   0.86851   0.22671   0.00000  Uiso   1.00
C564   C     0.97899   0.79819   0.27346   0.00000  Uiso   1.00
C565   C     0.68768   0.86848   0.22654   0.00000  Uiso   1.00
C566   C     0.95720   0.83325   0.25003   0.00000  Uiso   1.00
Cu567  Cu    0.83333   0.88022   0.25000   0.00000  Uiso   1.00
Cu568  Cu    0.83333   0.78645   0.25000   0.00000  Uiso   1.00
H569   H     0.73128   0.85164   0.45823   0.00000  Uiso   1.00
H570   H     0.93538   0.81502   0.04177   0.00000  Uiso   1.00
H571   H     0.80177   0.71015   0.18854   0.00000  Uiso   1.00
H572   H     0.86489   0.95651   0.31146   0.00000  Uiso   1.00
H573   H     0.86411   0.70977   0.31184   0.00000  Uiso   1.00
H574   H     0.80256   0.95689   0.18816   0.00000  Uiso   1.00
I575   I     0.92393   0.85767   0.37062   0.00000  Uiso   1.00
I576   I     0.74274   0.80899   0.12937   0.00000  Uiso   1.00
N577   N     0.83333   0.95069   0.25000   0.00000  Uiso   1.00
N578   N     0.72494   0.93147   0.17908   0.00000  Uiso   1.00
N579   N     0.83333   0.71598   0.25000   0.00000  Uiso   1.00
N580   N     0.72829   0.84716   0.36147   0.00000  Uiso   1.00
N581   N     0.93838   0.81951   0.13853   0.00000  Uiso   1.00
N582   N     0.69093   0.87637   0.05640   0.00000  Uiso   1.00
N583   N     0.97573   0.79029   0.44360   0.00000  Uiso   1.00
N584   N     0.72759   0.73410   0.31877   0.00000  Uiso   1.00
N585   N     0.93908   0.93256   0.18123   0.00000  Uiso   1.00
N586   N     0.94173   0.73520   0.32092   0.00000  Uiso   1.00
O587   O     0.77321   0.87291   0.24999   0.00000  Uiso   1.00
O588   O     0.89345   0.79375   0.25000   0.00000  Uiso   1.00
O589   O     0.89345   0.87291   0.25000   0.00000  Uiso   1.00
O590   O     0.77321   0.79375   0.24999   0.00000  Uiso   1.00
O591   O     0.83332   0.87293   0.18513   0.00000  Uiso   1.00
O592   O     0.83334   0.79373   0.31487   0.00000  Uiso   1.00
O593   O     0.83334   0.87293   0.31487   0.00000  Uiso   1.00
O594   O     0.83332   0.79373   0.18513   0.00000  Uiso   1.00
C595   C     0.08747   0.16674   0.75001   0.00000  Uiso   1.00
C596   C     0.04280   0.16675   0.74997   0.00000  Uiso   1.00
C597   C     0.14925   0.02487   0.71586   0.00000  Uiso   1.00
C598   C     0.18408   0.30846   0.78414   0.00000  Uiso   1.00
C599   C     0.18390   0.02467   0.78422   0.00000  Uiso   1.00
C600   C     0.14943   0.30867   0.71578   0.00000  Uiso   1.00
C601   C     0.16630   0.16655   0.66456   0.00000  Uiso   1.00
C602   C     0.16704   0.16679   0.83544   0.00000  Uiso   1.00
C603   C     0.20448   0.16794   0.90677   0.00000  Uiso   1.00
C604   C     0.12885   0.16539   0.59323   0.00000  Uiso   1.00
C605   C     0.16706   0.16739   0.88366   0.00000  Uiso   1.00
C606   C     0.24586   0.16660   0.74999   0.00000  Uiso   1.00
C607   C     0.16627   0.16594   0.61634   0.00000  Uiso   1.00
C608   C     0.12975   0.17037   0.90617   0.00000  Uiso   1.00
C609   C     0.20358   0.16296   0.59383   0.00000  Uiso   1.00
C610   C     0.12968   0.17159   0.95273   0.00000  Uiso   1.00
C611   C     0.20365   0.16174   0.54726   0.00000  Uiso   1.00
C612   C     0.16695   0.16678   0.97651   0.00000  Uiso   1.00
C613   C     0.16638   0.16655   0.52349   0.00000  Uiso   1.00
C614   C     0.20473   0.16272   0.95342   0.00000  Uiso   1.00
C615   C     0.12860   0.17061   0.54658   0.00000  Uiso   1.00
C616   C     0.09311   0.17866   0.97592   0.00000  Uiso   1.00
C617   C     0.09234   0.17970   0.52191   0.00000  Uiso   1.00
C618   C     0.24023   0.15467   0.52408   0.00000  Uiso   1.00
C619   C     0.09188   0.17571   0.88111   0.00000  Uiso   1.00
C620   C     0.24145   0.15762   0.61889   0.00000  Uiso   1.00
C621   C     0.05463   0.19617   0.54140   0.00000  Uiso   1.00
C622   C     0.27870   0.13716   0.95860   0.00000  Uiso   1.00
C623   C     0.04359   0.09582   0.79861   0.00000  Uiso   1.00
C624   C     0.28975   0.23752   0.70139   0.00000  Uiso   1.00
C625   C     0.29134   0.09649   0.79973   0.00000  Uiso   1.00
C626   C     0.04199   0.23684   0.70027   0.00000  Uiso   1.00
C627   C     0.24099   0.15363   0.97809   0.00000  Uiso   1.00
C628   C     0.02170   0.13149   0.77329   0.00000  Uiso   1.00
C629   C     0.31163   0.20185   0.72671   0.00000  Uiso   1.00
C630   C     0.31232   0.13152   0.77346   0.00000  Uiso   1.00
C631   C     0.02101   0.20181   0.72654   0.00000  Uiso   1.00
C632   C     0.29054   0.16658   0.75003   0.00000  Uiso   1.00
Cu633  Cu    0.16667   0.21355   0.75000   0.00000  Uiso   1.00
Cu634  Cu    0.16667   0.11978   0.75000   0.00000  Uiso   1.00
H635   H     0.06462   0.18498   0.95823   0.00000  Uiso   1.00
H636   H     0.26872   0.14836   0.54177   0.00000  Uiso   1.00
H637   H     0.13511   0.04349   0.68854   0.00000  Uiso   1.00
H638   H     0.19823   0.28985   0.81146   0.00000  Uiso   1.00
H639   H     0.19744   0.04311   0.81184   0.00000  Uiso   1.00
H640   H     0.13589   0.29023   0.68816   0.00000  Uiso   1.00
I641   I     0.25726   0.19101   0.87062   0.00000  Uiso   1.00
I642   I     0.07607   0.14233   0.62937   0.00000  Uiso   1.00
N643   N     0.16667   0.28402   0.75000   0.00000  Uiso   1.00
N644   N     0.05827   0.26480   0.67908   0.00000  Uiso   1.00
N645   N     0.16667   0.04931   0.75000   0.00000  Uiso   1.00
N646   N     0.06162   0.18049   0.86147   0.00000  Uiso   1.00
N647   N     0.27171   0.15284   0.63853   0.00000  Uiso   1.00
N648   N     0.02427   0.20971   0.55640   0.00000  Uiso   1.00
N649   N     0.30906   0.12363   0.94360   0.00000  Uiso   1.00
N650   N     0.06092   0.06744   0.81877   0.00000  Uiso   1.00
N651   N     0.27241   0.26590   0.68123   0.00000  Uiso   1.00
N652   N     0.27506   0.06853   0.82092   0.00000  Uiso   1.00
O653   O     0.10655   0.20625   0.74999   0.00000  Uiso   1.00
O654   O     0.22679   0.12709   0.75000   0.00000  Uiso   1.00
O655   O     0.22679   0.20625   0.75000   0.00000  Uiso   1.00
O656   O     0.10655   0.12709   0.74999   0.00000  Uiso   1.00
O657   O     0.16666   0.20627   0.68513   0.00000  Uiso   1.00
O658   O     0.16668   0.12707   0.81487   0.00000  Uiso   1.00
O659   O     0.16668   0.20627   0.81487   0.00000  Uiso   1.00
O660   O     0.16666   0.12707   0.68513   0.00000  Uiso   1.00
C661   C     0.42080   0.16674   0.75001   0.00000  Uiso   1.00
C662   C     0.37613   0.16675   0.74997   0.00000  Uiso   1.00
C663   C     0.48258   0.02487   0.71586   0.00000  Uiso   1.00
C664   C     0.51742   0.30846   0.78414   0.00000  Uiso   1.00
C665   C     0.51724   0.02467   0.78422   0.00000  Uiso   1.00
C666   C     0.48276   0.30867   0.71578   0.00000  Uiso   1.00
C667   C     0.49963   0.16655   0.66456   0.00000  Uiso   1.00
C668   C     0.50037   0.16679   0.83544   0.00000  Uiso   1.00
C669   C     0.53782   0.16794   0.90677   0.00000  Uiso   1.00
C670   C     0.46218   0.16539   0.59323   0.00000  Uiso   1.00
C671   C     0.50039   0.16739   0.88366   0.00000  Uiso   1.00
C672   C     0.57920   0.16660   0.74999   0.00000  Uiso   1.00
C673   C     0.49961   0.16594   0.61634   0.00000  Uiso   1.00
C674   C     0.46308   0.17037   0.90617   0.00000  Uiso   1.00
C675   C     0.53692   0.16296   0.59383   0.00000  Uiso   1.00
C676   C     0.46302   0.17159   0.95273   0.00000  Uiso   1.00
C677   C     0.53698   0.16174   0.54726   0.00000  Uiso   1.00
C678   C     0.50028   0.16678   0.97651   0.00000  Uiso   1.00
C679   C     0.49971   0.16655   0.52349   0.00000  Uiso   1.00
C680   C     0.53807   0.16272   0.95342   0.00000  Uiso   1.00
C681   C     0.46193   0.17061   0.54658   0.00000  Uiso   1.00
C682   C     0.42644   0.17866   0.97592   0.00000  Uiso   1.00
C683   C     0.42567   0.17970   0.52191   0.00000  Uiso   1.00
C684   C     0.57356   0.15467   0.52408   0.00000  Uiso   1.00
C685   C     0.42521   0.17571   0.88111   0.00000  Uiso   1.00
C686   C     0.57479   0.15762   0.61889   0.00000  Uiso   1.00
C687   C     0.38796   0.19617   0.54140   0.00000  Uiso   1.00
C688   C     0.61204   0.13716   0.95860   0.00000  Uiso   1.00
C689   C     0.37692   0.09582   0.79861   0.00000  Uiso   1.00
C690   C     0.62308   0.23752   0.70139   0.00000  Uiso   1.00
C691   C     0.62468   0.09649   0.79973   0.00000  Uiso   1.00
C692   C     0.37532   0.23684   0.70027   0.00000  Uiso   1.00
C693   C     0.57433   0.15363   0.97809   0.00000  Uiso   1.00
C694   C     0.35504   0.13149   0.77329   0.00000  Uiso   1.00
C695   C     0.64496   0.20185   0.72671   0.00000  Uiso   1.00
C696   C     0.64565   0.13152   0.77346   0.00000  Uiso   1.00
C697   C     0.35435   0.20181   0.72654   0.00000  Uiso   1.00
C698   C     0.62387   0.16658   0.75003   0.00000  Uiso   1.00
Cu699  Cu    0.50000   0.21355   0.75000   0.00000  Uiso   1.00
Cu700  Cu    0.50000   0.11978   0.75000   0.00000  Uiso   1.00
H701   H     0.39795   0.18498   0.95823   0.00000  Uiso   1.00
H702   H     0.60205   0.14836   0.54177   0.00000  Uiso   1.00
H703   H     0.46844   0.04349   0.68854   0.00000  Uiso   1.00
H704   H     0.53156   0.28985   0.81146   0.00000  Uiso   1.00
H705   H     0.53078   0.04311   0.81184   0.00000  Uiso   1.00
H706   H     0.46922   0.29023   0.68816   0.00000  Uiso   1.00
I707   I     0.59059   0.19101   0.87062   0.00000  Uiso   1.00
I708   I     0.40941   0.14233   0.62937   0.00000  Uiso   1.00
N709   N     0.50000   0.28402   0.75000   0.00000  Uiso   1.00
N710   N     0.39160   0.26480   0.67908   0.00000  Uiso   1.00
N711   N     0.50000   0.04931   0.75000   0.00000  Uiso   1.00
N712   N     0.39495   0.18049   0.86147   0.00000  Uiso   1.00
N713   N     0.60505   0.15284   0.63853   0.00000  Uiso   1.00
N714   N     0.35760   0.20971   0.55640   0.00000  Uiso   1.00
N715   N     0.64240   0.12363   0.94360   0.00000  Uiso   1.00
N716   N     0.39425   0.06744   0.81877   0.00000  Uiso   1.00
N717   N     0.60574   0.26590   0.68123   0.00000  Uiso   1.00
N718   N     0.60840   0.06853   0.82092   0.00000  Uiso   1.00
O719   O     0.43988   0.20625   0.74999   0.00000  Uiso   1.00
O720   O     0.56012   0.12709   0.75000   0.00000  Uiso   1.00
O721   O     0.56012   0.20625   0.75000   0.00000  Uiso   1.00
O722   O     0.43988   0.12709   0.74999   0.00000  Uiso   1.00
O723   O     0.49999   0.20627   0.68513   0.00000  Uiso   1.00
O724   O     0.50001   0.12707   0.81487   0.00000  Uiso   1.00
O725   O     0.50001   0.20627   0.81487   0.00000  Uiso   1.00
O726   O     0.49999   0.12707   0.68513   0.00000  Uiso   1.00
C727   C     0.75414   0.16674   0.75001   0.00000  Uiso   1.00
C728   C     0.70946   0.16675   0.74997   0.00000  Uiso   1.00
C729   C     0.81592   0.02487   0.71586   0.00000  Uiso   1.00
C730   C     0.85075   0.30846   0.78414   0.00000  Uiso   1.00
C731   C     0.85057   0.02467   0.78422   0.00000  Uiso   1.00
C732   C     0.81610   0.30867   0.71578   0.00000  Uiso   1.00
C733   C     0.83296   0.16655   0.66456   0.00000  Uiso   1.00
C734   C     0.83370   0.16679   0.83544   0.00000  Uiso   1.00
C735   C     0.87115   0.16794   0.90677   0.00000  Uiso   1.00
C736   C     0.79552   0.16539   0.59323   0.00000  Uiso   1.00
C737   C     0.83373   0.16739   0.88366   0.00000  Uiso   1.00
C738   C     0.91253   0.16660   0.74999   0.00000  Uiso   1.00
C739   C     0.83294   0.16594   0.61634   0.00000  Uiso   1.00
C740   C     0.79641   0.17037   0.90617   0.00000  Uiso   1.00
C741   C     0.87025   0.16296   0.59383   0.00000  Uiso   1.00
C742   C     0.79635   0.17159   0.95273   0.00000  Uiso   1.00
C743   C     0.87032   0.16174   0.54726   0.00000  Uiso   1.00
C744   C     0.83362   0.16678   0.97651   0.00000  Uiso   1.00
C745   C     0.83305   0.16655   0.52349   0.00000  Uiso   1.00
C746   C     0.87140   0.16272   0.95342   0.00000  Uiso   1.00
C747   C     0.79527   0.17061   0.54658   0.00000  Uiso   1.00
C748   C     0.75977   0.17866   0.97592   0.00000  Uiso   1.00
C749   C     0.75901   0.17970   0.52191   0.00000  Uiso   1.00
C750   C     0.90689   0.15467   0.52408   0.00000  Uiso   1.00
C751   C     0.75854   0.17571   0.88111   0.00000  Uiso   1.00
C752   C     0.90812   0.15762   0.61889   0.00000  Uiso   1.00
C753   C     0.72130   0.19617   0.54140   0.00000  Uiso   1.00
C754   C     0.94537   0.13716   0.95860   0.00000  Uiso   1.00
C755   C     0.71025   0.09582   0.79861   0.00000  Uiso   1.00
C756   C     0.95641   0.23752   0.70139   0.00000  Uiso   1.00
C757   C     0.95801   0.09649   0.79973   0.00000  Uiso   1.00
C758   C     0.70866   0.23684   0.70027   0.00000  Uiso   1.00
C759   C     0.90766   0.15363   0.97809   0.00000  Uiso   1.00
C760   C     0.68837   0.13149   0.77329   0.00000  Uiso   1.00
C761   C     0.97830   0.20185   0.72671   0.00000  Uiso   1.00
C762   C     0.97899   0.13152   0.77346   0.00000  Uiso   1.00
C763   C     0.68768   0.20181   0.72654   0.00000  Uiso   1.00
C764   C     0.95720   0.16658   0.75003   0.00000  Uiso   1.00
Cu765  Cu    0.83333   0.21355   0.75000   0.00000  Uiso   1.00
Cu766  Cu    0.83333   0.11978   0.75000   0.00000  Uiso   1.00
H767   H     0.73128   0.18498   0.95823   0.00000  Uiso   1.00
H768   H     0.93538   0.14836   0.54177   0.00000  Uiso   1.00
H769   H     0.80177   0.04349   0.68854   0.00000  Uiso   1.00
H770   H     0.86489   0.28985   0.81146   0.00000  Uiso   1.00
H771   H     0.86411   0.04311   0.81184   0.00000  Uiso   1.00
H772   H     0.80256   0.29023   0.68816   0.00000  Uiso   1.00
I773   I     0.92393   0.19101   0.87062   0.00000  Uiso   1.00
I774   I     0.74274   0.14233   0.62937   0.00000  Uiso   1.00
N775   N     0.83333   0.28402   0.75000   0.00000  Uiso   1.00
N776   N     0.72494   0.26480   0.67908   0.00000  Uiso   1.00
N777   N     0.83333   0.04931   0.75000   0.00000  Uiso   1.00
N778   N     0.72829   0.18049   0.86147   0.00000  Uiso   1.00
N779   N     0.93838   0.15284   0.63853   0.00000  Uiso   1.00
N780   N     0.69093   0.20971   0.55640   0.00000  Uiso   1.00
N781   N     0.97573   0.12363   0.94360   0.00000  Uiso   1.00
N782   N     0.72759   0.06744   0.81877   0.00000  Uiso   1.00
N783   N     0.93908   0.26590   0.68123   0.00000  Uiso   1.00
N784   N     0.94173   0.06853   0.82092   0.00000  Uiso   1.00
O785   O     0.77321   0.20625   0.74999   0.00000  Uiso   1.00
O786   O     0.89345   0.12709   0.75000   0.00000  Uiso   1.00
O787   O     0.89345   0.20625   0.75000   0.00000  Uiso   1.00
O788   O     0.77321   0.12709   0.74999   0.00000  Uiso   1.00
O789   O     0.83332   0.20627   0.68513   0.00000  Uiso   1.00
O790   O     0.83334   0.12707   0.81487   0.00000  Uiso   1.00
O791   O     0.83334   0.20627   0.81487   0.00000  Uiso   1.00
O792   O     0.83332   0.12707   0.68513   0.00000  Uiso   1.00
C793   C     0.08747   0.50007   0.75001   0.00000  Uiso   1.00
C794   C     0.04280   0.50008   0.74997   0.00000  Uiso   1.00
C795   C     0.14925   0.35821   0.71586   0.00000  Uiso   1.00
C796   C     0.18408   0.64179   0.78414   0.00000  Uiso   1.00
C797   C     0.18390   0.35800   0.78422   0.00000  Uiso   1.00
C798   C     0.14943   0.64200   0.71578   0.00000  Uiso   1.00
C799   C     0.16630   0.49988   0.66456   0.00000  Uiso   1.00
C800   C     0.16704   0.50012   0.83544   0.00000  Uiso   1.00
C801   C     0.20448   0.50128   0.90677   0.00000  Uiso   1.00
C802   C     0.12885   0.49872   0.59323   0.00000  Uiso   1.00
C803   C     0.16706   0.50072   0.88366   0.00000  Uiso   1.00
C804   C     0.24586   0.49993   0.74999   0.00000  Uiso   1.00
C805   C     0.16627   0.49928   0.61634   0.00000  Uiso   1.00
C806   C     0.12975   0.50371   0.90617   0.00000  Uiso   1.00
C807   C     0.20358   0.49629   0.59383   0.00000  Uiso   1.00
C808   C     0.12968   0.50493   0.95273   0.00000  Uiso   1.00
C809   C     0.20365   0.49507   0.54726   0.00000  Uiso   1.00
C810   C     0.16695   0.50011   0.97651   0.00000  Uiso   1.00
C811   C     0.16638   0.49989   0.52349   0.00000  Uiso   1.00
C812   C     0.20473   0.49605   0.95342   0.00000  Uiso   1.00
C813   C     0.12860   0.50395   0.54658   0.00000  Uiso   1.00
C814   C     0.09311   0.51199   0.97592   0.00000  Uiso   1.00
C815   C     0.09234   0.51303   0.52191   0.00000  Uiso   1.00
C816   C     0.24023   0.48801   0.52408   0.00000  Uiso   1.00
C817   C     0.09188   0.50904   0.88111   0.00000  Uiso   1.00
C818   C     0.24145   0.49096   0.61889   0.00000  Uiso   1.00
C819   C     0.05463   0.52951   0.54140   0.00000  Uiso   1.00
C820   C     0.27870   0.47049   0.95860   0.00000  Uiso   1.00
C821   C     0.04359   0.42915   0.79861   0.00000  Uiso   1.00
C822   C     0.28975   0.57085   0.70139   0.00000  Uiso   1.00
C823   C     0.29134   0.42983   0.79973   0.00000  Uiso   1.00
C824   C     0.04199   0.57017   0.70027   0.00000  Uiso   1.00
C825   C     0.24099   0.48697   0.97809   0.00000  Uiso   1.00
C826   C     0.02170   0.46482   0.77329   0.00000  Uiso   1.00
C827   C     0.31163   0.53518   0.72671   0.00000  Uiso   1.00
C828   C     0.31232   0.46486   0.77346   0.00000  Uiso   1.00
C829   C     0.02101   0.53514   0.72654   0.00000  Uiso   1.00
C830   C     0.29054   0.49992   0.75003   0.00000  Uiso   1.00
Cu831  Cu    0.16667   0.54689   0.75000   0.00000  Uiso   1.00
Cu832  Cu    0.16667   0.45311   0.75000   0.00000  Uiso   1.00
H833   H     0.06462   0.51831   0.95823   0.00000  Uiso   1.00
H834   H     0.26872   0.48169   0.54177   0.00000  Uiso   1.00
H835   H     0.13511   0.37682   0.68854   0.00000  Uiso   1.00
H836   H     0.19823   0.62318   0.81146   0.00000  Uiso   1.00
H837   H     0.19744   0.37644   0.81184   0.00000  Uiso   1.00
H838   H     0.13589   0.62356   0.68816   0.00000  Uiso   1.00
I839   I     0.25726   0.52434   0.87062   0.00000  Uiso   1.00
I840   I     0.07607   0.47566   0.62937   0.00000  Uiso   1.00
N841   N     0.16667   0.61736   0.75000   0.00000  Uiso   1.00
N842   N     0.05827   0.59814   0.67908   0.00000  Uiso   1.00
N843   N     0.16667   0.38264   0.75000   0.00000  Uiso   1.00
N844   N     0.06162   0.51382   0.86147   0.00000  Uiso   1.00
N845   N     0.27171   0.48618   0.63853   0.00000  Uiso   1.00
N846   N     0.02427   0.54304   0.55640   0.00000  Uiso   1.00
N847   N     0.30906   0.45696   0.94360   0.00000  Uiso   1.00
N848   N     0.06092   0.40077   0.81877   0.00000  Uiso   1.00
N849   N     0.27241   0.59923   0.68123   0.00000  Uiso   1.00
N850   N     0.27506   0.40187   0.82092   0.00000  Uiso   1.00
O851   O     0.10655   0.53958   0.74999   0.00000  Uiso   1.00
O852   O     0.22679   0.46042   0.75000   0.00000  Uiso   1.00
O853   O     0.22679   0.53958   0.75000   0.00000  Uiso   1.00
O854   O     0.10655   0.46042   0.74999   0.00000  Uiso   1.00
O855   O     0.16666   0.53960   0.68513   0.00000  Uiso   1.00
O856   O     0.16668   0.46040   0.81487   0.00000  Uiso   1.00
O857   O     0.16668   0.53960   0.81487   0.00000  Uiso   1.00
O858   O     0.16666   0.46040   0.68513   0.00000  Uiso   1.00
C859   C     0.42080   0.50007   0.75001   0.00000  Uiso   1.00
C860   C     0.37613   0.50008   0.74997   0.00000  Uiso   1.00
C861   C     0.48258   0.35821   0.71586   0.00000  Uiso   1.00
C862   C     0.51742   0.64179   0.78414   0.00000  Uiso   1.00
C863   C     0.51724   0.35800   0.78422   0.00000  Uiso   1.00
C864   C     0.48276   0.64200   0.71578   0.00000  Uiso   1.00
C865   C     0.49963   0.49988   0.66456   0.00000  Uiso   1.00
C866   C     0.50037   0.50012   0.83544   0.00000  Uiso   1.00
C867   C     0.53782   0.50128   0.90677   0.00000  Uiso   1.00
C868   C     0.46218   0.49872   0.59323   0.00000  Uiso   1.00
C869   C     0.50039   0.50072   0.88366   0.00000  Uiso   1.00
C870   C     0.57920   0.49993   0.74999   0.00000  Uiso   1.00
C871   C     0.49961   0.49928   0.61634   0.00000  Uiso   1.00
C872   C     0.46308   0.50371   0.90617   0.00000  Uiso   1.00
C873   C     0.53692   0.49629   0.59383   0.00000  Uiso   1.00
C874   C     0.46302   0.50493   0.95273   0.00000  Uiso   1.00
C875   C     0.53698   0.49507   0.54726   0.00000  Uiso   1.00
C876   C     0.50028   0.50011   0.97651   0.00000  Uiso   1.00
C877   C     0.49971   0.49989   0.52349   0.00000  Uiso   1.00
C878   C     0.53807   0.49605   0.95342   0.00000  Uiso   1.00
C879   C     0.46193   0.50395   0.54658   0.00000  Uiso   1.00
C880   C     0.42644   0.51199   0.97592   0.00000  Uiso   1.00
C881   C     0.42567   0.51303   0.52191   0.00000  Uiso   1.00
C882   C     0.57356   0.48801   0.52408   0.00000  Uiso   1.00
C883   C     0.42521   0.50904   0.88111   0.00000  Uiso   1.00
C884   C     0.57479   0.49096   0.61889   0.00000  Uiso   1.00
C885   C     0.38796   0.52951   0.54140   0.00000  Uiso   1.00
C886   C     0.61204   0.47049   0.95860   0.00000  Uiso   1.00
C887   C     0.37692   0.42915   0.79861   0.00000  Uiso   1.00
C888   C     0.62308   0.57085   0.70139   0.00000  Uiso   1.00
C889   C     0.62468   0.42983   0.79973   0.00000  Uiso   1.00
C890   C     0.37532   0.57017   0.70027   0.00000  Uiso   1.00
C891   C     0.57433   0.48697   0.97809   0.00000  Uiso   1.00
C892   C     0.35504   0.46482   0.77329   0.00000  Uiso   1.00
C893   C     0.64496   0.53518   0.72671   0.00000  Uiso   1.00
C894   C     0.64565   0.46486   0.77346   0.00000  Uiso   1.00
C895   C     0.35435   0.53514   0.72654   0.00000  Uiso   1.00
C896   C     0.62387   0.49992   0.75003   0.00000  Uiso   1.00
Cu897  Cu    0.50000   0.54689   0.75000   0.00000  Uiso   1.00
Cu898  Cu    0.50000   0.45311   0.75000   0.00000  Uiso   1.00
H899   H     0.39795   0.51831   0.95823   0.00000  Uiso   1.00
H900   H     0.60205   0.48169   0.54177   0.00000  Uiso   1.00
H901   H     0.46844   0.37682   0.68854   0.00000  Uiso   1.00
H902   H     0.53156   0.62318   0.81146   0.00000  Uiso   1.00
H903   H     0.53078   0.37644   0.81184   0.00000  Uiso   1.00
H904   H     0.46922   0.62356   0.68816   0.00000  Uiso   1.00
I905   I     0.59059   0.52434   0.87062   0.00000  Uiso   1.00
I906   I     0.40941   0.47566   0.62937   0.00000  Uiso   1.00
N907   N     0.50000   0.61736   0.75000   0.00000  Uiso   1.00
N908   N     0.39160   0.59814   0.67908   0.00000  Uiso   1.00
N909   N     0.50000   0.38264   0.75000   0.00000  Uiso   1.00
N910   N     0.39495   0.51382   0.86147   0.00000  Uiso   1.00
N911   N     0.60505   0.48618   0.63853   0.00000  Uiso   1.00
N912   N     0.35760   0.54304   0.55640   0.00000  Uiso   1.00
N913   N     0.64240   0.45696   0.94360   0.00000  Uiso   1.00
N914   N     0.39425   0.40077   0.81877   0.00000  Uiso   1.00
N915   N     0.60574   0.59923   0.68123   0.00000  Uiso   1.00
N916   N     0.60840   0.40187   0.82092   0.00000  Uiso   1.00
O917   O     0.43988   0.53958   0.74999   0.00000  Uiso   1.00
O918   O     0.56012   0.46042   0.75000   0.00000  Uiso   1.00
O919   O     0.56012   0.53958   0.75000   0.00000  Uiso   1.00
O920   O     0.43988   0.46042   0.74999   0.00000  Uiso   1.00
O921   O     0.49999   0.53960   0.68513   0.00000  Uiso   1.00
O922   O     0.50001   0.46040   0.81487   0.00000  Uiso   1.00
O923   O     0.50001   0.53960   0.81487   0.00000  Uiso   1.00
O924   O     0.49999   0.46040   0.68513   0.00000  Uiso   1.00
C925   C     0.75414   0.50007   0.75001   0.00000  Uiso   1.00
C926   C     0.70946   0.50008   0.74997   0.00000  Uiso   1.00
C927   C     0.81592   0.35821   0.71586   0.00000  Uiso   1.00
C928   C     0.85075   0.64179   0.78414   0.00000  Uiso   1.00
C929   C     0.85057   0.35800   0.78422   0.00000  Uiso   1.00
C930   C     0.81610   0.64200   0.71578   0.00000  Uiso   1.00
C931   C     0.83296   0.49988   0.66456   0.00000  Uiso   1.00
C932   C     0.83370   0.50012   0.83544   0.00000  Uiso   1.00
C933   C     0.87115   0.50128   0.90677   0.00000  Uiso   1.00
C934   C     0.79552   0.49872   0.59323   0.00000  Uiso   1.00
C935   C     0.83373   0.50072   0.88366   0.00000  Uiso   1.00
C936   C     0.91253   0.49993   0.74999   0.00000  Uiso   1.00
C937   C     0.83294   0.49928   0.61634   0.00000  Uiso   1.00
C938   C     0.79641   0.50371   0.90617   0.00000  Uiso   1.00
C939   C     0.87025   0.49629   0.59383   0.00000  Uiso   1.00
C940   C     0.79635   0.50493   0.95273   0.00000  Uiso   1.00
C941   C     0.87032   0.49507   0.54726   0.00000  Uiso   1.00
C942   C     0.83362   0.50011   0.97651   0.00000  Uiso   1.00
C943   C     0.83305   0.49989   0.52349   0.00000  Uiso   1.00
C944   C     0.87140   0.49605   0.95342   0.00000  Uiso   1.00
C945   C     0.79527   0.50395   0.54658   0.00000  Uiso   1.00
C946   C     0.75977   0.51199   0.97592   0.00000  Uiso   1.00
C947   C     0.75901   0.51303   0.52191   0.00000  Uiso   1.00
C948   C     0.90689   0.48801   0.52408   0.00000  Uiso   1.00
C949   C     0.75854   0.50904   0.88111   0.00000  Uiso   1.00
C950   C     0.90812   0.49096   0.61889   0.00000  Uiso   1.00
C951   C     0.72130   0.52951   0.54140   0.00000  Uiso   1.00
C952   C     0.94537   0.47049   0.95860   0.00000  Uiso   1.00
C953   C     0.71025   0.42915   0.79861   0.00000  Uiso   1.00
C954   C     0.95641   0.57085   0.70139   0.00000  Uiso   1.00
C955   C     0.95801   0.42983   0.79973   0.00000  Uiso   1.00
C956   C     0.70866   0.57017   0.70027   0.00000  Uiso   1.00
C957   C     0.90766   0.48697   0.97809   0.00000  Uiso   1.00
C958   C     0.68837   0.46482   0.77329   0.00000  Uiso   1.00
C959   C     0.97830   0.53518   0.72671   0.00000  Uiso   1.00
C960   C     0.97899   0.46486   0.77346   0.00000  Uiso   1.00
C961   C     0.68768   0.53514   0.72654   0.00000  Uiso   1.00
C962   C     0.95720   0.49992   0.75003   0.00000  Uiso   1.00
Cu963  Cu    0.83333   0.54689   0.75000   0.00000  Uiso   1.00
Cu964  Cu    0.83333   0.45311   0.75000   0.00000  Uiso   1.00
H965   H     0.73128   0.51831   0.95823   0.00000  Uiso   1.00
H966   H     0.93538   0.48169   0.54177   0.00000  Uiso   1.00
H967   H     0.80177   0.37682   0.68854   0.00000  Uiso   1.00
H968   H     0.86489   0.62318   0.81146   0.00000  Uiso   1.00
H969   H     0.86411   0.37644   0.81184   0.00000  Uiso   1.00
H970   H     0.80256   0.62356   0.68816   0.00000  Uiso   1.00
I971   I     0.92393   0.52434   0.87062   0.00000  Uiso   1.00
I972   I     0.74274   0.47566   0.62937   0.00000  Uiso   1.00
N973   N     0.83333   0.61736   0.75000   0.00000  Uiso   1.00
N974   N     0.72494   0.59814   0.67908   0.00000  Uiso   1.00
N975   N     0.83333   0.38264   0.75000   0.00000  Uiso   1.00
N976   N     0.72829   0.51382   0.86147   0.00000  Uiso   1.00
N977   N     0.93838   0.48618   0.63853   0.00000  Uiso   1.00
N978   N     0.69093   0.54304   0.55640   0.00000  Uiso   1.00
N979   N     0.97573   0.45696   0.94360   0.00000  Uiso   1.00
N980   N     0.72759   0.40077   0.81877   0.00000  Uiso   1.00
N981   N     0.93908   0.59923   0.68123   0.00000  Uiso   1.00
N982   N     0.94173   0.40187   0.82092   0.00000  Uiso   1.00
O983   O     0.77321   0.53958   0.74999   0.00000  Uiso   1.00
O984   O     0.89345   0.46042   0.75000   0.00000  Uiso   1.00
O985   O     0.89345   0.53958   0.75000   0.00000  Uiso   1.00
O986   O     0.77321   0.46042   0.74999   0.00000  Uiso   1.00
O987   O     0.83332   0.53960   0.68513   0.00000  Uiso   1.00
O988   O     0.83334   0.46040   0.81487   0.00000  Uiso   1.00
O989   O     0.83334   0.53960   0.81487   0.00000  Uiso   1.00
O990   O     0.83332   0.46040   0.68513   0.00000  Uiso   1.00
C991   C     0.08747   0.83340   0.75001   0.00000  Uiso   1.00
C992   C     0.04280   0.83342   0.74997   0.00000  Uiso   1.00
C993   C     0.14925   0.69154   0.71586   0.00000  Uiso   1.00
C994   C     0.18408   0.97513   0.78414   0.00000  Uiso   1.00
C995   C     0.18390   0.69133   0.78422   0.00000  Uiso   1.00
C996   C     0.14943   0.97533   0.71578   0.00000  Uiso   1.00
C997   C     0.16630   0.83321   0.66456   0.00000  Uiso   1.00
C998   C     0.16704   0.83345   0.83544   0.00000  Uiso   1.00
C999   C     0.20448   0.83461   0.90677   0.00000  Uiso   1.00
C1000  C     0.12885   0.83206   0.59323   0.00000  Uiso   1.00
C1001  C     0.16706   0.83406   0.88366   0.00000  Uiso   1.00
C1002  C     0.24586   0.83326   0.74999   0.00000  Uiso   1.00
C1003  C     0.16627   0.83261   0.61634   0.00000  Uiso   1.00
C1004  C     0.12975   0.83704   0.90617   0.00000  Uiso   1.00
C1005  C     0.20358   0.82963   0.59383   0.00000  Uiso   1.00
C1006  C     0.12968   0.83826   0.95273   0.00000  Uiso   1.00
C1007  C     0.20365   0.82841   0.54726   0.00000  Uiso   1.00
C1008  C     0.16695   0.83345   0.97651   0.00000  Uiso   1.00
C1009  C     0.16638   0.83322   0.52349   0.00000  Uiso   1.00
C1010  C     0.20473   0.82939   0.95342   0.00000  Uiso   1.00
C1011  C     0.12860   0.83728   0.54658   0.00000  Uiso   1.00
C1012  C     0.09311   0.84533   0.97592   0.00000  Uiso   1.00
C1013  C     0.09234   0.84637   0.52191   0.00000  Uiso   1.00
C1014  C     0.24023   0.82134   0.52408   0.00000  Uiso   1.00
C1015  C     0.09188   0.84238   0.88111   0.00000  Uiso   1.00
C1016  C     0.24145   0.82429   0.61889   0.00000  Uiso   1.00
C1017  C     0.05463   0.86284   0.54140   0.00000  Uiso   1.00
C1018  C     0.27870   0.80383   0.95860   0.00000  Uiso   1.00
C1019  C     0.04359   0.76248   0.79861   0.00000  Uiso   1.00
C1020  C     0.28975   0.90418   0.70139   0.00000  Uiso   1.00
C1021  C     0.29134   0.76316   0.79973   0.00000  Uiso   1.00
C1022  C     0.04199   0.90351   0.70027   0.00000  Uiso   1.00
C1023  C     0.24099   0.82030   0.97809   0.00000  Uiso   1.00
C1024  C     0.02170   0.79815   0.77329   0.00000  Uiso   1.00
C1025  C     0.31163   0.86851   0.72671   0.00000  Uiso   1.00
C1026  C     0.31232   0.79819   0.77346   0.00000  Uiso   1.00
C1027  C     0.02101   0.86848   0.72654   0.00000  Uiso   1.00
C1028  C     0.29054   0.83325   0.75003   0.00000  Uiso   1.00
Cu1029 Cu    0.16667   0.88022   0.75000   0.00000  Uiso   1.00
Cu1030 Cu    0.16667   0.78645   0.75000   0.00000  Uiso   1.00
H1031  H     0.06462   0.85164   0.95823   0.00000  Uiso   1.00
H1032  H     0.26872   0.81502   0.54177   0.00000  Uiso   1.00
H1033  H     0.13511   0.71015   0.68854   0.00000  Uiso   1.00
H1034  H     0.19823   0.95651   0.81146   0.00000  Uiso   1.00
H1035  H     0.19744   0.70977   0.81184   0.00000  Uiso   1.00
H1036  H     0.13589   0.95689   0.68816   0.00000  Uiso   1.00
I1037  I     0.25726   0.85767   0.87062   0.00000  Uiso   1.00
I1038  I     0.07607   0.80899   0.62937   0.00000  Uiso   1.00
N1039  N     0.16667   0.95069   0.75000   0.00000  Uiso   1.00
N1040  N     0.05827   0.93147   0.67908   0.00000  Uiso   1.00
N1041  N     0.16667   0.71598   0.75000   0.00000  Uiso   1.00
N1042  N     0.06162   0.84716   0.86147   0.00000  Uiso   1.00
N1043  N     0.27171   0.81951   0.63853   0.00000  Uiso   1.00
N1044  N     0.02427   0.87637   0.55640   0.00000  Uiso   1.00
N1045  N     0.30906   0.79029   0.94360   0.00000  Uiso   1.00
N1046  N     0.06092   0.73410   0.81877   0.00000  Uiso   1.00
N1047  N     0.27241   0.93256   0.68123   0.00000  Uiso   1.00
N1048  N     0.27506   0.73520   0.82092   0.00000  Uiso   1.00
O1049  O     0.10655   0.87291   0.74999   0.00000  Uiso   1.00
O1050  O     0.22679   0.79375   0.75000   0.00000  Uiso   1.00
O1051  O     0.22679   0.87291   0.75000   0.00000  Uiso   1.00
O1052  O     0.10655   0.79375   0.74999   0.00000  Uiso   1.00
O1053  O     0.16666   0.87293   0.68513   0.00000  Uiso   1.00
O1054  O     0.16668   0.79373   0.81487   0.00000  Uiso   1.00
O1055  O     0.16668   0.87293   0.81487   0.00000  Uiso   1.00
O1056  O     0.16666   0.79373   0.68513   0.00000  Uiso   1.00
C1057  C     0.42080   0.83340   0.75001   0.00000  Uiso   1.00
C1058  C     0.37613   0.83342   0.74997   0.00000  Uiso   1.00
C1059  C     0.48258   0.69154   0.71586   0.00000  Uiso   1.00
C1060  C     0.51742   0.97513   0.78414   0.00000  Uiso   1.00
C1061  C     0.51724   0.69133   0.78422   0.00000  Uiso   1.00
C1062  C     0.48276   0.97533   0.71578   0.00000  Uiso   1.00
C1063  C     0.49963   0.83321   0.66456   0.00000  Uiso   1.00
C1064  C     0.50037   0.83345   0.83544   0.00000  Uiso   1.00
C1065  C     0.53782   0.83461   0.90677   0.00000  Uiso   1.00
C1066  C     0.46218   0.83206   0.59323   0.00000  Uiso   1.00
C1067  C     0.50039   0.83406   0.88366   0.00000  Uiso   1.00
C1068  C     0.57920   0.83326   0.74999   0.00000  Uiso   1.00
C1069  C     0.49961   0.83261   0.61634   0.00000  Uiso   1.00
C1070  C     0.46308   0.83704   0.90617   0.00000  Uiso   1.00
C1071  C     0.53692   0.82963   0.59383   0.00000  Uiso   1.00
C1072  C     0.46302   0.83826   0.95273   0.00000  Uiso   1.00
C1073  C     0.53698   0.82841   0.54726   0.00000  Uiso   1.00
C1074  C     0.50028   0.83345   0.97651   0.00000  Uiso   1.00
C1075  C     0.49971   0.83322   0.52349   0.00000  Uiso   1.00
C1076  C     0.53807   0.82939   0.95342   0.00000  Uiso   1.00
C1077  C     0.46193   0.83728   0.54658   0.00000  Uiso   1.00
C1078  C     0.42644   0.84533   0.97592   0.00000  Uiso   1.00
C1079  C     0.42567   0.84637   0.52191   0.00000  Uiso   1.00
C1080  C     0.57356   0.82134   0.52408   0.00000  Uiso   1.00
C1081  C     0.42521   0.84238   0.88111   0.00000  Uiso   1.00
C1082  C     0.57479   0.82429   0.61889   0.00000  Uiso   1.00
C1083  C     0.38796   0.86284   0.54140   0.00000  Uiso   1.00
C1084  C     0.61204   0.80383   0.95860   0.00000  Uiso   1.00
C1085  C     0.37692   0.76248   0.79861   0.00000  Uiso   1.00
C1086  C     0.62308   0.90418   0.70139   0.00000  Uiso   1.00
C1087  C     0.62468   0.76316   0.79973   0.00000  Uiso   1.00
C1088  C     0.37532   0.90351   0.70027   0.00000  Uiso   1.00
C1089  C     0.57433   0.82030   0.97809   0.00000  Uiso   1.00
C1090  C     0.35504   0.79815   0.77329   0.00000  Uiso   1.00
C1091  C     0.64496   0.86851   0.72671   0.00000  Uiso   1.00
C1092  C     0.64565   0.79819   0.77346   0.00000  Uiso   1.00
C1093  C     0.35435   0.86848   0.72654   0.00000  Uiso   1.00
C1094  C     0.62387   0.83325   0.75003   0.00000  Uiso   1.00
Cu1095 Cu    0.50000   0.88022   0.75000   0.00000  Uiso   1.00
Cu1096 Cu    0.50000   0.78645   0.75000   0.00000  Uiso   1.00
H1097  H     0.39795   0.85164   0.95823   0.00000  Uiso   1.00
H1098  H     0.60205   0.81502   0.54177   0.00000  Uiso   1.00
H1099  H     0.46844   0.71015   0.68854   0.00000  Uiso   1.00
H1100  H     0.53156   0.95651   0.81146   0.00000  Uiso   1.00
H1101  H     0.53078   0.70977   0.81184   0.00000  Uiso   1.00
H1102  H     0.46922   0.95689   0.68816   0.00000  Uiso   1.00
I1103  I     0.59059   0.85767   0.87062   0.00000  Uiso   1.00
I1104  I     0.40941   0.80899   0.62937   0.00000  Uiso   1.00
N1105  N     0.50000   0.95069   0.75000   0.00000  Uiso   1.00
N1106  N     0.39160   0.93147   0.67908   0.00000  Uiso   1.00
N1107  N     0.50000   0.71598   0.75000   0.00000  Uiso   1.00
N1108  N     0.39495   0.84716   0.86147   0.00000  Uiso   1.00
N1109  N     0.60505   0.81951   0.63853   0.00000  Uiso   1.00
N1110  N     0.35760   0.87637   0.55640   0.00000  Uiso   1.00
N1111  N     0.64240   0.79029   0.94360   0.00000  Uiso   1.00
N1112  N     0.39425   0.73410   0.81877   0.00000  Uiso   1.00
N1113  N     0.60574   0.93256   0.68123   0.00000  Uiso   1.00
N1114  N     0.60840   0.73520   0.82092   0.00000  Uiso   1.00
O1115  O     0.43988   0.87291   0.74999   0.00000  Uiso   1.00
O1116  O     0.56012   0.79375   0.75000   0.00000  Uiso   1.00
O1117  O     0.56012   0.87291   0.75000   0.00000  Uiso   1.00
O1118  O     0.43988   0.79375   0.74999   0.00000  Uiso   1.00
O1119  O     0.49999   0.87293   0.68513   0.00000  Uiso   1.00
O1120  O     0.50001   0.79373   0.81487   0.00000  Uiso   1.00
O1121  O     0.50001   0.87293   0.81487   0.00000  Uiso   1.00
O1122  O     0.49999   0.79373   0.68513   0.00000  Uiso   1.00
C1123  C     0.75414   0.83340   0.75001   0.00000  Uiso   1.00
C1124  C     0.70946   0.83342   0.74997   0.00000  Uiso   1.00
C1125  C     0.81592   0.69154   0.71586   0.00000  Uiso   1.00
C1126  C     0.85075   0.97513   0.78414   0.00000  Uiso   1.00
C1127  C     0.85057   0.69133   0.78422   0.00000  Uiso   1.00
C1128  C     0.81610   0.97533   0.71578   0.00000  Uiso   1.00
C1129  C     0.83296   0.83321   0.66456   0.00000  Uiso   1.00
C1130  C     0.83370   0.83345   0.83544   0.00000  Uiso   1.00
C1131  C     0.87115   0.83461   0.90677   0.00000  Uiso   1.00
C1132  C     0.79552   0.83206   0.59323   0.00000  Uiso   1.00
C1133  C     0.83373   0.83406   0.88366   0.00000  Uiso   1.00
C1134  C     0.91253   0.83326   0.74999   0.00000  Uiso   1.00
C1135  C     0.83294   0.83261   0.61634   0.00000  Uiso   1.00
C1136  C     0.79641   0.83704   0.90617   0.00000  Uiso   1.00
C1137  C     0.87025   0.82963   0.59383   0.00000  Uiso   1.00
C1138  C     0.79635   0.83826   0.95273   0.00000  Uiso   1.00
C1139  C     0.87032   0.82841   0.54726   0.00000  Uiso   1.00
C1140  C     0.83362   0.83345   0.97651   0.00000  Uiso   1.00
C1141  C     0.83305   0.83322   0.52349   0.00000  Uiso   1.00
C1142  C     0.87140   0.82939   0.95342   0.00000  Uiso   1.00
C1143  C     0.79527   0.83728   0.54658   0.00000  Uiso   1.00
C1144  C     0.75977   0.84533   0.97592   0.00000  Uiso   1.00
C1145  C     0.75901   0.84637   0.52191   0.00000  Uiso   1.00
C1146  C     0.90689   0.82134   0.52408   0.00000  Uiso   1.00
C1147  C     0.75854   0.84238   0.88111   0.00000  Uiso   1.00
C1148  C     0.90812   0.82429   0.61889   0.00000  Uiso   1.00
C1149  C     0.72130   0.86284   0.54140   0.00000  Uiso   1.00
C1150  C     0.94537   0.80383   0.95860   0.00000  Uiso   1.00
C1151  C     0.71025   0.76248   0.79861   0.00000  Uiso   1.00
C1152  C     0.95641   0.90418   0.70139   0.00000  Uiso   1.00
C1153  C     0.95801   0.76316   0.79973   0.00000  Uiso   1.00
C1154  C     0.70866   0.90351   0.70027   0.00000  Uiso   1.00
C1155  C     0.90766   0.82030   0.97809   0.00000  Uiso   1.00
C1156  C     0.68837   0.79815   0.77329   0.00000  Uiso   1.00
C1157  C     0.97830   0.86851   0.72671   0.00000  Uiso   1.00
C1158  C     0.97899   0.79819   0.77346   0.00000  Uiso   1.00
C1159  C     0.68768   0.86848   0.72654   0.00000  Uiso   1.00
C1160  C     0.95720   0.83325   0.75003   0.00000  Uiso   1.00
Cu1161 Cu    0.83333   0.88022   0.75000   0.00000  Uiso   1.00
Cu1162 Cu    0.83333   0.78645   0.75000   0.00000  Uiso   1.00
H1163  H     0.73128   0.85164   0.95823   0.00000  Uiso   1.00
H1164  H     0.93538   0.81502   0.54177   0.00000  Uiso   1.00
H1165  H     0.80177   0.71015   0.68854   0.00000  Uiso   1.00
H1166  H     0.86489   0.95651   0.81146   0.00000  Uiso   1.00
H1167  H     0.86411   0.70977   0.81184   0.00000  Uiso   1.00
H1168  H     0.80256   0.95689   0.68816   0.00000  Uiso   1.00
I1169  I     0.92393   0.85767   0.87062   0.00000  Uiso   1.00
I1170  I     0.74274   0.80899   0.62937   0.00000  Uiso   1.00
N1171  N     0.83333   0.95069   0.75000   0.00000  Uiso   1.00
N1172  N     0.72494   0.93147   0.67908   0.00000  Uiso   1.00
N1173  N     0.83333   0.71598   0.75000   0.00000  Uiso   1.00
N1174  N     0.72829   0.84716   0.86147   0.00000  Uiso   1.00
N1175  N     0.93838   0.81951   0.63853   0.00000  Uiso   1.00
N1176  N     0.69093   0.87637   0.55640   0.00000  Uiso   1.00
N1177  N     0.97573   0.79029   0.94360   0.00000  Uiso   1.00
N1178  N     0.72759   0.73410   0.81877   0.00000  Uiso   1.00
N1179  N     0.93908   0.93256   0.68123   0.00000  Uiso   1.00
N1180  N     0.94173   0.73520   0.82092   0.00000  Uiso   1.00
O1181  O     0.77321   0.87291   0.74999   0.00000  Uiso   1.00
O1182  O     0.89345   0.79375   0.75000   0.00000  Uiso   1.00
O1183  O     0.89345   0.87291   0.75000   0.00000  Uiso   1.00
O1184  O     0.77321   0.79375   0.74999   0.00000  Uiso   1.00
O1185  O     0.83332   0.87293   0.68513   0.00000  Uiso   1.00
O1186  O     0.83334   0.79373   0.81487   0.00000  Uiso   1.00
O1187  O     0.83334   0.87293   0.81487   0.00000  Uiso   1.00
O1188  O     0.83332   0.79373   0.68513   0.00000  Uiso   1.00
loop_
_geom_bond_atom_site_label_1
_geom_bond_atom_site_label_2
_geom_bond_distance
_geom_bond_site_symmetry_2
_ccdc_geom_bond_type
C1     C2      1.459   .     S
C1     O62     1.291   .     A
C1     O59     1.292   .     A
C2     C34     1.414   .     A
C2     C37     1.413   .     A
C3     H43     1.081   .     S
C3     N51     1.367   .     A
C3     C402    1.416   1_545 S
C4     N49     1.367   .     A
C4     H44     1.081   .     S
C4     C203    1.416   .     S
C5     N51     1.367   .     A
C5     H45     1.080   .     S
C5     C400    1.416   1_545 S
C6     H46     1.080   .     S
C6     N49     1.367   .     A
C6     C201    1.416   .     S
C7     O66     1.288   .     A
C7     O63     1.294   .     A
C7     C13     1.456   .     S
C8     O65     1.288   .     A
C8     O64     1.294   .     A
C8     C11     1.456   .     S
C9     C20     1.416   .     A
C9     C11     1.404   .     A
C9     I47     2.152   .     S
C10    C21     1.416   .     A
C10    I48     2.152   .     S
C10    C13     1.404   .     A
C11    C14     1.402   .     A
C12    C38     1.459   .     S
C12    O61     1.291   .     A
C12    O60     1.292   .     A
C13    C15     1.402   .     A
C14    C16     1.406   .     A
C14    C25     1.453   .     S
C15    C17     1.406   .     A
C15    C26     1.453   .     S
C16    C18     1.415   .     A
C16    C22     1.403   .     A
C17    C24     1.403   .     A
C17    C19     1.415   .     A
C18    C20     1.426   .     A
C18    C613    1.418   .     S
C19    C21     1.426   .     A
C19    C612    1.418   1_554 S
C20    C33     1.418   .     A
C21    C23     1.418   .     A
C22    H41     1.084   .     S
C22    C617    1.389   .     S
C23    C27     1.446   .     S
C23    C616    1.389   1_554 S
C24    H42     1.084   .     S
C24    C627    1.389   1_554 S
C25    N52     1.157   .     T
C26    N53     1.157   .     T
C27    N54     1.158   .     T
C28    C33     1.446   .     S
C28    N55     1.158   .     T
C29    N56     1.158   .     T
C29    C34     1.456   .     S
C30    C35     1.456   .     S
C30    N57     1.158   .     T
C31    N58     1.157   .     T
C31    C36     1.454   .     S
C32    C37     1.454   .     S
C32    N50     1.157   .     T
C33    C618    1.389   .     S
C34    C168    1.396   1_455 S
C35    C38     1.414   .     A
C35    C103    1.396   .     S
C36    C38     1.413   .     A
C36    C100    1.396   .     S
C37    C167    1.396   1_455 S
Cu39   O59     1.976   .     S
Cu39   O65     1.969   .     S
Cu39   N49     2.014   .     S
Cu39   O61     1.974   .     S
Cu39   O63     1.969   .     S
Cu39   Cu40    2.680   .     S
Cu40   O60     1.976   .     S
Cu40   N51     2.014   .     S
Cu40   O64     1.969   .     S
Cu40   O62     1.974   .     S
Cu40   O66     1.969   .     S
C67    C68     1.459   .     S
C67    O128    1.291   .     A
C67    O125    1.292   .     A
C68    C100    1.414   .     A
C68    C103    1.413   .     A
C69    H109    1.081   .     S
C69    N117    1.367   .     A
C69    C468    1.416   1_545 S
C70    N115    1.367   .     A
C70    H110    1.081   .     S
C70    C269    1.416   .     S
C71    N117    1.367   .     A
C71    H111    1.080   .     S
C71    C466    1.416   1_545 S
C72    H112    1.080   .     S
C72    N115    1.367   .     A
C72    C267    1.416   .     S
C73    O132    1.288   .     A
C73    O129    1.294   .     A
C73    C79     1.456   .     S
C74    O131    1.288   .     A
C74    O130    1.294   .     A
C74    C77     1.456   .     S
C75    C86     1.416   .     A
C75    C77     1.404   .     A
C75    I113    2.152   .     S
C76    C87     1.416   .     A
C76    I114    2.152   .     S
C76    C79     1.404   .     A
C77    C80     1.402   .     A
C78    C104    1.459   .     S
C78    O127    1.291   .     A
C78    O126    1.292   .     A
C79    C81     1.402   .     A
C80    C82     1.406   .     A
C80    C91     1.453   .     S
C81    C83     1.406   .     A
C81    C92     1.453   .     S
C82    C84     1.415   .     A
C82    C88     1.403   .     A
C83    C90     1.403   .     A
C83    C85     1.415   .     A
C84    C86     1.426   .     A
C84    C679    1.418   .     S
C85    C87     1.426   .     A
C85    C678    1.418   1_554 S
C86    C99     1.418   .     A
C87    C89     1.418   .     A
C88    H107    1.084   .     S
C88    C683    1.389   .     S
C89    C93     1.446   .     S
C89    C682    1.389   1_554 S
C90    H108    1.084   .     S
C90    C693    1.389   1_554 S
C91    N118    1.157   .     T
C92    N119    1.157   .     T
C93    N120    1.158   .     T
C94    C99     1.446   .     S
C94    N121    1.158   .     T
C95    N122    1.158   .     T
C95    C100    1.456   .     S
C96    C101    1.456   .     S
C96    N123    1.158   .     T
C97    N124    1.157   .     T
C97    C102    1.454   .     S
C98    C103    1.454   .     S
C98    N116    1.157   .     T
C99    C684    1.389   .     S
C101   C104    1.414   .     A
C101   C169    1.396   .     S
C102   C104    1.413   .     A
C102   C166    1.396   .     S
Cu105  O125    1.976   .     S
Cu105  O131    1.969   .     S
Cu105  N115    2.014   .     S
Cu105  O127    1.974   .     S
Cu105  O129    1.969   .     S
Cu105  Cu106   2.680   .     S
Cu106  O126    1.976   .     S
Cu106  N117    2.014   .     S
Cu106  O130    1.969   .     S
Cu106  O128    1.974   .     S
Cu106  O132    1.969   .     S
C133   C134    1.459   .     S
C133   O194    1.291   .     A
C133   O191    1.292   .     A
C134   C166    1.414   .     A
C134   C169    1.413   .     A
C135   H175    1.081   .     S
C135   N183    1.367   .     A
C135   C534    1.416   1_545 S
C136   N181    1.367   .     A
C136   H176    1.081   .     S
C136   C335    1.416   .     S
C137   N183    1.367   .     A
C137   H177    1.080   .     S
C137   C532    1.416   1_545 S
C138   H178    1.080   .     S
C138   N181    1.367   .     A
C138   C333    1.416   .     S
C139   O198    1.288   .     A
C139   O195    1.294   .     A
C139   C145    1.456   .     S
C140   O197    1.288   .     A
C140   O196    1.294   .     A
C140   C143    1.456   .     S
C141   C152    1.416   .     A
C141   C143    1.404   .     A
C141   I179    2.152   .     S
C142   C153    1.416   .     A
C142   I180    2.152   .     S
C142   C145    1.404   .     A
C143   C146    1.402   .     A
C144   C170    1.459   .     S
C144   O193    1.291   .     A
C144   O192    1.292   .     A
C145   C147    1.402   .     A
C146   C148    1.406   .     A
C146   C157    1.453   .     S
C147   C149    1.406   .     A
C147   C158    1.453   .     S
C148   C150    1.415   .     A
C148   C154    1.403   .     A
C149   C156    1.403   .     A
C149   C151    1.415   .     A
C150   C152    1.426   .     A
C150   C745    1.418   .     S
C151   C153    1.426   .     A
C151   C744    1.418   1_554 S
C152   C165    1.418   .     A
C153   C155    1.418   .     A
C154   H173    1.084   .     S
C154   C749    1.389   .     S
C155   C159    1.446   .     S
C155   C748    1.389   1_554 S
C156   H174    1.084   .     S
C156   C759    1.389   1_554 S
C157   N184    1.157   .     T
C158   N185    1.157   .     T
C159   N186    1.158   .     T
C160   C165    1.446   .     S
C160   N187    1.158   .     T
C161   N188    1.158   .     T
C161   C166    1.456   .     S
C162   C167    1.456   .     S
C162   N189    1.158   .     T
C163   N190    1.157   .     T
C163   C168    1.454   .     S
C164   C169    1.454   .     S
C164   N182    1.157   .     T
C165   C750    1.389   .     S
C167   C170    1.414   .     A
C167   C37     1.396   1_655 S
C168   C170    1.413   .     A
C168   C34     1.396   1_655 S
Cu171  O191    1.976   .     S
Cu171  O197    1.969   .     S
Cu171  N181    2.014   .     S
Cu171  O193    1.974   .     S
Cu171  O195    1.969   .     S
Cu171  Cu172   2.680   .     S
Cu172  O192    1.976   .     S
Cu172  N183    2.014   .     S
Cu172  O196    1.969   .     S
Cu172  O194    1.974   .     S
Cu172  O198    1.969   .     S
C199   C200    1.459   .     S
C199   O260    1.291   .     A
C199   O257    1.292   .     A
C200   C232    1.414   .     A
C200   C235    1.413   .     A
C201   H241    1.081   .     S
C201   N249    1.367   .     A
C202   N247    1.367   .     A
C202   H242    1.081   .     S
C202   C401    1.416   .     S
C203   N249    1.367   .     A
C203   H243    1.080   .     S
C204   H244    1.080   .     S
C204   N247    1.367   .     A
C204   C399    1.416   .     S
C205   O264    1.288   .     A
C205   O261    1.294   .     A
C205   C211    1.456   .     S
C206   O263    1.288   .     A
C206   O262    1.294   .     A
C206   C209    1.456   .     S
C207   C218    1.416   .     A
C207   C209    1.404   .     A
C207   I245    2.152   .     S
C208   C219    1.416   .     A
C208   I246    2.152   .     S
C208   C211    1.404   .     A
C209   C212    1.402   .     A
C210   C236    1.459   .     S
C210   O259    1.291   .     A
C210   O258    1.292   .     A
C211   C213    1.402   .     A
C212   C214    1.406   .     A
C212   C223    1.453   .     S
C213   C215    1.406   .     A
C213   C224    1.453   .     S
C214   C216    1.415   .     A
C214   C220    1.403   .     A
C215   C222    1.403   .     A
C215   C217    1.415   .     A
C216   C218    1.426   .     A
C216   C811    1.418   .     S
C217   C219    1.426   .     A
C217   C810    1.418   1_554 S
C218   C231    1.418   .     A
C219   C221    1.418   .     A
C220   H239    1.084   .     S
C220   C815    1.389   .     S
C221   C225    1.446   .     S
C221   C814    1.389   1_554 S
C222   H240    1.084   .     S
C222   C825    1.389   1_554 S
C223   N250    1.157   .     T
C224   N251    1.157   .     T
C225   N252    1.158   .     T
C226   C231    1.446   .     S
C226   N253    1.158   .     T
C227   N254    1.158   .     T
C227   C232    1.456   .     S
C228   C233    1.456   .     S
C228   N255    1.158   .     T
C229   N256    1.157   .     T
C229   C234    1.454   .     S
C230   C235    1.454   .     S
C230   N248    1.157   .     T
C231   C816    1.389   .     S
C232   C366    1.396   1_455 S
C233   C236    1.414   .     A
C233   C301    1.396   .     S
C234   C236    1.413   .     A
C234   C298    1.396   .     S
C235   C365    1.396   1_455 S
Cu237  O257    1.976   .     S
Cu237  O263    1.969   .     S
Cu237  N247    2.014   .     S
Cu237  O259    1.974   .     S
Cu237  O261    1.969   .     S
Cu237  Cu238   2.680   .     S
Cu238  O258    1.976   .     S
Cu238  N249    2.014   .     S
Cu238  O262    1.969   .     S
Cu238  O260    1.974   .     S
Cu238  O264    1.969   .     S
C265   C266    1.459   .     S
C265   O326    1.291   .     A
C265   O323    1.292   .     A
C266   C298    1.414   .     A
C266   C301    1.413   .     A
C267   H307    1.081   .     S
C267   N315    1.367   .     A
C268   N313    1.367   .     A
C268   H308    1.081   .     S
C268   C467    1.416   .     S
C269   N315    1.367   .     A
C269   H309    1.080   .     S
C270   H310    1.080   .     S
C270   N313    1.367   .     A
C270   C465    1.416   .     S
C271   O330    1.288   .     A
C271   O327    1.294   .     A
C271   C277    1.456   .     S
C272   O329    1.288   .     A
C272   O328    1.294   .     A
C272   C275    1.456   .     S
C273   C284    1.416   .     A
C273   C275    1.404   .     A
C273   I311    2.152   .     S
C274   C285    1.416   .     A
C274   I312    2.152   .     S
C274   C277    1.404   .     A
C275   C278    1.402   .     A
C276   C302    1.459   .     S
C276   O325    1.291   .     A
C276   O324    1.292   .     A
C277   C279    1.402   .     A
C278   C280    1.406   .     A
C278   C289    1.453   .     S
C279   C281    1.406   .     A
C279   C290    1.453   .     S
C280   C282    1.415   .     A
C280   C286    1.403   .     A
C281   C288    1.403   .     A
C281   C283    1.415   .     A
C282   C284    1.426   .     A
C282   C877    1.418   .     S
C283   C285    1.426   .     A
C283   C876    1.418   1_554 S
C284   C297    1.418   .     A
C285   C287    1.418   .     A
C286   H305    1.084   .     S
C286   C881    1.389   .     S
C287   C291    1.446   .     S
C287   C880    1.389   1_554 S
C288   H306    1.084   .     S
C288   C891    1.389   1_554 S
C289   N316    1.157   .     T
C290   N317    1.157   .     T
C291   N318    1.158   .     T
C292   C297    1.446   .     S
C292   N319    1.158   .     T
C293   N320    1.158   .     T
C293   C298    1.456   .     S
C294   C299    1.456   .     S
C294   N321    1.158   .     T
C295   N322    1.157   .     T
C295   C300    1.454   .     S
C296   C301    1.454   .     S
C296   N314    1.157   .     T
C297   C882    1.389   .     S
C299   C302    1.414   .     A
C299   C367    1.396   .     S
C300   C302    1.413   .     A
C300   C364    1.396   .     S
Cu303  O323    1.976   .     S
Cu303  O329    1.969   .     S
Cu303  N313    2.014   .     S
Cu303  O325    1.974   .     S
Cu303  O327    1.969   .     S
Cu303  Cu304   2.680   .     S
Cu304  O324    1.976   .     S
Cu304  N315    2.014   .     S
Cu304  O328    1.969   .     S
Cu304  O326    1.974   .     S
Cu304  O330    1.969   .     S
C331   C332    1.459   .     S
C331   O392    1.291   .     A
C331   O389    1.292   .     A
C332   C364    1.414   .     A
C332   C367    1.413   .     A
C333   H373    1.081   .     S
C333   N381    1.367   .     A
C334   N379    1.367   .     A
C334   H374    1.081   .     S
C334   C533    1.416   .     S
C335   N381    1.367   .     A
C335   H375    1.080   .     S
C336   H376    1.080   .     S
C336   N379    1.367   .     A
C336   C531    1.416   .     S
C337   O396    1.288   .     A
C337   O393    1.294   .     A
C337   C343    1.456   .     S
C338   O395    1.288   .     A
C338   O394    1.294   .     A
C338   C341    1.456   .     S
C339   C350    1.416   .     A
C339   C341    1.404   .     A
C339   I377    2.152   .     S
C340   C351    1.416   .     A
C340   I378    2.152   .     S
C340   C343    1.404   .     A
C341   C344    1.402   .     A
C342   C368    1.459   .     S
C342   O391    1.291   .     A
C342   O390    1.292   .     A
C343   C345    1.402   .     A
C344   C346    1.406   .     A
C344   C355    1.453   .     S
C345   C347    1.406   .     A
C345   C356    1.453   .     S
C346   C348    1.415   .     A
C346   C352    1.403   .     A
C347   C354    1.403   .     A
C347   C349    1.415   .     A
C348   C350    1.426   .     A
C348   C943    1.418   .     S
C349   C351    1.426   .     A
C349   C942    1.418   1_554 S
C350   C363    1.418   .     A
C351   C353    1.418   .     A
C352   H371    1.084   .     S
C352   C947    1.389   .     S
C353   C357    1.446   .     S
C353   C946    1.389   1_554 S
C354   H372    1.084   .     S
C354   C957    1.389   1_554 S
C355   N382    1.157   .     T
C356   N383    1.157   .     T
C357   N384    1.158   .     T
C358   C363    1.446   .     S
C358   N385    1.158   .     T
C359   N386    1.158   .     T
C359   C364    1.456   .     S
C360   C365    1.456   .     S
C360   N387    1.158   .     T
C361   N388    1.157   .     T
C361   C366    1.454   .     S
C362   C367    1.454   .     S
C362   N380    1.157   .     T
C363   C948    1.389   .     S
C365   C368    1.414   .     A
C365   C235    1.396   1_655 S
C366   C368    1.413   .     A
C366   C232    1.396   1_655 S
Cu369  O389    1.976   .     S
Cu369  O395    1.969   .     S
Cu369  N379    2.014   .     S
Cu369  O391    1.974   .     S
Cu369  O393    1.969   .     S
Cu369  Cu370   2.680   .     S
Cu370  O390    1.976   .     S
Cu370  N381    2.014   .     S
Cu370  O394    1.969   .     S
Cu370  O392    1.974   .     S
Cu370  O396    1.969   .     S
C397   C398    1.459   .     S
C397   O458    1.291   .     A
C397   O455    1.292   .     A
C398   C430    1.414   .     A
C398   C433    1.413   .     A
C399   H439    1.081   .     S
C399   N447    1.367   .     A
C400   N445    1.367   .     A
C400   H440    1.081   .     S
C400   C5      1.416   1_565 S
C401   N447    1.367   .     A
C401   H441    1.080   .     S
C402   H442    1.080   .     S
C402   N445    1.367   .     A
C402   C3      1.416   1_565 S
C403   O462    1.288   .     A
C403   O459    1.294   .     A
C403   C409    1.456   .     S
C404   O461    1.288   .     A
C404   O460    1.294   .     A
C404   C407    1.456   .     S
C405   C416    1.416   .     A
C405   C407    1.404   .     A
C405   I443    2.152   .     S
C406   C417    1.416   .     A
C406   I444    2.152   .     S
C406   C409    1.404   .     A
C407   C410    1.402   .     A
C408   C434    1.459   .     S
C408   O457    1.291   .     A
C408   O456    1.292   .     A
C409   C411    1.402   .     A
C410   C412    1.406   .     A
C410   C421    1.453   .     S
C411   C413    1.406   .     A
C411   C422    1.453   .     S
C412   C414    1.415   .     A
C412   C418    1.403   .     A
C413   C420    1.403   .     A
C413   C415    1.415   .     A
C414   C416    1.426   .     A
C414   C1009   1.418   .     S
C415   C417    1.426   .     A
C415   C1008   1.418   1_554 S
C416   C429    1.418   .     A
C417   C419    1.418   .     A
C418   H437    1.084   .     S
C418   C1013   1.389   .     S
C419   C423    1.446   .     S
C419   C1012   1.389   1_554 S
C420   H438    1.084   .     S
C420   C1023   1.389   1_554 S
C421   N448    1.157   .     T
C422   N449    1.157   .     T
C423   N450    1.158   .     T
C424   C429    1.446   .     S
C424   N451    1.158   .     T
C425   N452    1.158   .     T
C425   C430    1.456   .     S
C426   C431    1.456   .     S
C426   N453    1.158   .     T
C427   N454    1.157   .     T
C427   C432    1.454   .     S
C428   C433    1.454   .     S
C428   N446    1.157   .     T
C429   C1014   1.389   .     S
C430   C564    1.396   1_455 S
C431   C434    1.414   .     A
C431   C499    1.396   .     S
C432   C434    1.413   .     A
C432   C496    1.396   .     S
C433   C563    1.396   1_455 S
Cu435  O455    1.976   .     S
Cu435  O461    1.969   .     S
Cu435  N445    2.014   .     S
Cu435  O457    1.974   .     S
Cu435  O459    1.969   .     S
Cu435  Cu436   2.680   .     S
Cu436  O456    1.976   .     S
Cu436  N447    2.014   .     S
Cu436  O460    1.969   .     S
Cu436  O458    1.974   .     S
Cu436  O462    1.969   .     S
C463   C464    1.459   .     S
C463   O524    1.291   .     A
C463   O521    1.292   .     A
C464   C496    1.414   .     A
C464   C499    1.413   .     A
C465   H505    1.081   .     S
C465   N513    1.367   .     A
C466   N511    1.367   .     A
C466   H506    1.081   .     S
C466   C71     1.416   1_565 S
C467   N513    1.367   .     A
C467   H507    1.080   .     S
C468   H508    1.080   .     S
C468   N511    1.367   .     A
C468   C69     1.416   1_565 S
C469   O528    1.288   .     A
C469   O525    1.294   .     A
C469   C475    1.456   .     S
C470   O527    1.288   .     A
C470   O526    1.294   .     A
C470   C473    1.456   .     S
C471   C482    1.416   .     A
C471   C473    1.404   .     A
C471   I509    2.152   .     S
C472   C483    1.416   .     A
C472   I510    2.152   .     S
C472   C475    1.404   .     A
C473   C476    1.402   .     A
C474   C500    1.459   .     S
C474   O523    1.291   .     A
C474   O522    1.292   .     A
C475   C477    1.402   .     A
C476   C478    1.406   .     A
C476   C487    1.453   .     S
C477   C479    1.406   .     A
C477   C488    1.453   .     S
C478   C480    1.415   .     A
C478   C484    1.403   .     A
C479   C486    1.403   .     A
C479   C481    1.415   .     A
C480   C482    1.426   .     A
C480   C1075   1.418   .     S
C481   C483    1.426   .     A
C481   C1074   1.418   1_554 S
C482   C495    1.418   .     A
C483   C485    1.418   .     A
C484   H503    1.084   .     S
C484   C1079   1.389   .     S
C485   C489    1.446   .     S
C485   C1078   1.389   1_554 S
C486   H504    1.084   .     S
C486   C1089   1.389   1_554 S
C487   N514    1.157   .     T
C488   N515    1.157   .     T
C489   N516    1.158   .     T
C490   C495    1.446   .     S
C490   N517    1.158   .     T
C491   N518    1.158   .     T
C491   C496    1.456   .     S
C492   C497    1.456   .     S
C492   N519    1.158   .     T
C493   N520    1.157   .     T
C493   C498    1.454   .     S
C494   C499    1.454   .     S
C494   N512    1.157   .     T
C495   C1080   1.389   .     S
C497   C500    1.414   .     A
C497   C565    1.396   .     S
C498   C500    1.413   .     A
C498   C562    1.396   .     S
Cu501  O521    1.976   .     S
Cu501  O527    1.969   .     S
Cu501  N511    2.014   .     S
Cu501  O523    1.974   .     S
Cu501  O525    1.969   .     S
Cu501  Cu502   2.680   .     S
Cu502  O522    1.976   .     S
Cu502  N513    2.014   .     S
Cu502  O526    1.969   .     S
Cu502  O524    1.974   .     S
Cu502  O528    1.969   .     S
C529   C530    1.459   .     S
C529   O590    1.291   .     A
C529   O587    1.292   .     A
C530   C562    1.414   .     A
C530   C565    1.413   .     A
C531   H571    1.081   .     S
C531   N579    1.367   .     A
C532   N577    1.367   .     A
C532   H572    1.081   .     S
C532   C137    1.416   1_565 S
C533   N579    1.367   .     A
C533   H573    1.080   .     S
C534   H574    1.080   .     S
C534   N577    1.367   .     A
C534   C135    1.416   1_565 S
C535   O594    1.288   .     A
C535   O591    1.294   .     A
C535   C541    1.456   .     S
C536   O593    1.288   .     A
C536   O592    1.294   .     A
C536   C539    1.456   .     S
C537   C548    1.416   .     A
C537   C539    1.404   .     A
C537   I575    2.152   .     S
C538   C549    1.416   .     A
C538   I576    2.152   .     S
C538   C541    1.404   .     A
C539   C542    1.402   .     A
C540   C566    1.459   .     S
C540   O589    1.291   .     A
C540   O588    1.292   .     A
C541   C543    1.402   .     A
C542   C544    1.406   .     A
C542   C553    1.453   .     S
C543   C545    1.406   .     A
C543   C554    1.453   .     S
C544   C546    1.415   .     A
C544   C550    1.403   .     A
C545   C552    1.403   .     A
C545   C547    1.415   .     A
C546   C548    1.426   .     A
C546   C1141   1.418   .     S
C547   C549    1.426   .     A
C547   C1140   1.418   1_554 S
C548   C561    1.418   .     A
C549   C551    1.418   .     A
C550   H569    1.084   .     S
C550   C1145   1.389   .     S
C551   C555    1.446   .     S
C551   C1144   1.389   1_554 S
C552   H570    1.084   .     S
C552   C1155   1.389   1_554 S
C553   N580    1.157   .     T
C554   N581    1.157   .     T
C555   N582    1.158   .     T
C556   C561    1.446   .     S
C556   N583    1.158   .     T
C557   N584    1.158   .     T
C557   C562    1.456   .     S
C558   C563    1.456   .     S
C558   N585    1.158   .     T
C559   N586    1.157   .     T
C559   C564    1.454   .     S
C560   C565    1.454   .     S
C560   N578    1.157   .     T
C561   C1146   1.389   .     S
C563   C566    1.414   .     A
C563   C433    1.396   1_655 S
C564   C566    1.413   .     A
C564   C430    1.396   1_655 S
Cu567  O587    1.976   .     S
Cu567  O593    1.969   .     S
Cu567  N577    2.014   .     S
Cu567  O589    1.974   .     S
Cu567  O591    1.969   .     S
Cu567  Cu568   2.680   .     S
Cu568  O588    1.976   .     S
Cu568  N579    2.014   .     S
Cu568  O592    1.969   .     S
Cu568  O590    1.974   .     S
Cu568  O594    1.969   .     S
C595   C596    1.459   .     S
C595   O656    1.291   .     A
C595   O653    1.292   .     A
C596   C628    1.414   .     A
C596   C631    1.413   .     A
C597   H637    1.081   .     S
C597   N645    1.367   .     A
C597   C996    1.416   1_545 S
C598   N643    1.367   .     A
C598   H638    1.081   .     S
C598   C797    1.416   .     S
C599   N645    1.367   .     A
C599   H639    1.080   .     S
C599   C994    1.416   1_545 S
C600   H640    1.080   .     S
C600   N643    1.367   .     A
C600   C795    1.416   .     S
C601   O660    1.288   .     A
C601   O657    1.294   .     A
C601   C607    1.456   .     S
C602   O659    1.288   .     A
C602   O658    1.294   .     A
C602   C605    1.456   .     S
C603   C614    1.416   .     A
C603   C605    1.404   .     A
C603   I641    2.152   .     S
C604   C615    1.416   .     A
C604   I642    2.152   .     S
C604   C607    1.404   .     A
C605   C608    1.402   .     A
C606   C632    1.459   .     S
C606   O655    1.291   .     A
C606   O654    1.292   .     A
C607   C609    1.402   .     A
C608   C610    1.406   .     A
C608   C619    1.453   .     S
C609   C611    1.406   .     A
C609   C620    1.453   .     S
C610   C612    1.415   .     A
C610   C616    1.403   .     A
C611   C618    1.403   .     A
C611   C613    1.415   .     A
C612   C614    1.426   .     A
C612   C19     1.418   1_556 S
C613   C615    1.426   .     A
C614   C627    1.418   .     A
C615   C617    1.418   .     A
C616   H635    1.084   .     S
C616   C23     1.389   1_556 S
C617   C621    1.446   .     S
C618   H636    1.084   .     S
C619   N646    1.157   .     T
C620   N647    1.157   .     T
C621   N648    1.158   .     T
C622   C627    1.446   .     S
C622   N649    1.158   .     T
C623   N650    1.158   .     T
C623   C628    1.456   .     S
C624   C629    1.456   .     S
C624   N651    1.158   .     T
C625   N652    1.157   .     T
C625   C630    1.454   .     S
C626   C631    1.454   .     S
C626   N644    1.157   .     T
C627   C24     1.389   1_556 S
C628   C762    1.396   1_455 S
C629   C632    1.414   .     A
C629   C697    1.396   .     S
C630   C632    1.413   .     A
C630   C694    1.396   .     S
C631   C761    1.396   1_455 S
Cu633  O653    1.976   .     S
Cu633  O659    1.969   .     S
Cu633  N643    2.014   .     S
Cu633  O655    1.974   .     S
Cu633  O657    1.969   .     S
Cu633  Cu634   2.680   .     S
Cu634  O654    1.976   .     S
Cu634  N645    2.014   .     S
Cu634  O658    1.969   .     S
Cu634  O656    1.974   .     S
Cu634  O660    1.969   .     S
C661   C662    1.459   .     S
C661   O722    1.291   .     A
C661   O719    1.292   .     A
C662   C694    1.414   .     A
C662   C697    1.413   .     A
C663   H703    1.081   .     S
C663   N711    1.367   .     A
C663   C1062   1.416   1_545 S
C664   N709    1.367   .     A
C664   H704    1.081   .     S
C664   C863    1.416   .     S
C665   N711    1.367   .     A
C665   H705    1.080   .     S
C665   C1060   1.416   1_545 S
C666   H706    1.080   .     S
C666   N709    1.367   .     A
C666   C861    1.416   .     S
C667   O726    1.288   .     A
C667   O723    1.294   .     A
C667   C673    1.456   .     S
C668   O725    1.288   .     A
C668   O724    1.294   .     A
C668   C671    1.456   .     S
C669   C680    1.416   .     A
C669   C671    1.404   .     A
C669   I707    2.152   .     S
C670   C681    1.416   .     A
C670   I708    2.152   .     S
C670   C673    1.404   .     A
C671   C674    1.402   .     A
C672   C698    1.459   .     S
C672   O721    1.291   .     A
C672   O720    1.292   .     A
C673   C675    1.402   .     A
C674   C676    1.406   .     A
C674   C685    1.453   .     S
C675   C677    1.406   .     A
C675   C686    1.453   .     S
C676   C678    1.415   .     A
C676   C682    1.403   .     A
C677   C684    1.403   .     A
C677   C679    1.415   .     A
C678   C680    1.426   .     A
C678   C85     1.418   1_556 S
C679   C681    1.426   .     A
C680   C693    1.418   .     A
C681   C683    1.418   .     A
C682   H701    1.084   .     S
C682   C89     1.389   1_556 S
C683   C687    1.446   .     S
C684   H702    1.084   .     S
C685   N712    1.157   .     T
C686   N713    1.157   .     T
C687   N714    1.158   .     T
C688   C693    1.446   .     S
C688   N715    1.158   .     T
C689   N716    1.158   .     T
C689   C694    1.456   .     S
C690   C695    1.456   .     S
C690   N717    1.158   .     T
C691   N718    1.157   .     T
C691   C696    1.454   .     S
C692   C697    1.454   .     S
C692   N710    1.157   .     T
C693   C90     1.389   1_556 S
C695   C698    1.414   .     A
C695   C763    1.396   .     S
C696   C698    1.413   .     A
C696   C760    1.396   .     S
Cu699  O719    1.976   .     S
Cu699  O725    1.969   .     S
Cu699  N709    2.014   .     S
Cu699  O721    1.974   .     S
Cu699  O723    1.969   .     S
Cu699  Cu700   2.680   .     S
Cu700  O720    1.976   .     S
Cu700  N711    2.014   .     S
Cu700  O724    1.969   .     S
Cu700  O722    1.974   .     S
Cu700  O726    1.969   .     S
C727   C728    1.459   .     S
C727   O788    1.291   .     A
C727   O785    1.292   .     A
C728   C760    1.414   .     A
C728   C763    1.413   .     A
C729   H769    1.081   .     S
C729   N777    1.367   .     A
C729   C1128   1.416   1_545 S
C730   N775    1.367   .     A
C730   H770    1.081   .     S
C730   C929    1.416   .     S
C731   N777    1.367   .     A
C731   H771    1.080   .     S
C731   C1126   1.416   1_545 S
C732   H772    1.080   .     S
C732   N775    1.367   .     A
C732   C927    1.416   .     S
C733   O792    1.288   .     A
C733   O789    1.294   .     A
C733   C739    1.456   .     S
C734   O791    1.288   .     A
C734   O790    1.294   .     A
C734   C737    1.456   .     S
C735   C746    1.416   .     A
C735   C737    1.404   .     A
C735   I773    2.152   .     S
C736   C747    1.416   .     A
C736   I774    2.152   .     S
C736   C739    1.404   .     A
C737   C740    1.402   .     A
C738   C764    1.459   .     S
C738   O787    1.291   .     A
C738   O786    1.292   .     A
C739   C741    1.402   .     A
C740   C742    1.406   .     A
C740   C751    1.453   .     S
C741   C743    1.406   .     A
C741   C752    1.453   .     S
C742   C744    1.415   .     A
C742   C748    1.403   .     A
C743   C750    1.403   .     A
C743   C745    1.415   .     A
C744   C746    1.426   .     A
C744   C151    1.418   1_556 S
C745   C747    1.426   .     A
C746   C759    1.418   .     A
C747   C749    1.418   .     A
C748   H767    1.084   .     S
C748   C155    1.389   1_556 S
C749   C753    1.446   .     S
C750   H768    1.084   .     S
C751   N778    1.157   .     T
C752   N779    1.157   .     T
C753   N780    1.158   .     T
C754   C759    1.446   .     S
C754   N781    1.158   .     T
C755   N782    1.158   .     T
C755   C760    1.456   .     S
C756   C761    1.456   .     S
C756   N783    1.158   .     T
C757   N784    1.157   .     T
C757   C762    1.454   .     S
C758   C763    1.454   .     S
C758   N776    1.157   .     T
C759   C156    1.389   1_556 S
C761   C764    1.414   .     A
C761   C631    1.396   1_655 S
C762   C764    1.413   .     A
C762   C628    1.396   1_655 S
Cu765  O785    1.976   .     S
Cu765  O791    1.969   .     S
Cu765  N775    2.014   .     S
Cu765  O787    1.974   .     S
Cu765  O789    1.969   .     S
Cu765  Cu766   2.680   .     S
Cu766  O786    1.976   .     S
Cu766  N777    2.014   .     S
Cu766  O790    1.969   .     S
Cu766  O788    1.974   .     S
Cu766  O792    1.969   .     S
C793   C794    1.459   .     S
C793   O854    1.291   .     A
C793   O851    1.292   .     A
C794   C826    1.414   .     A
C794   C829    1.413   .     A
C795   H835    1.081   .     S
C795   N843    1.367   .     A
C796   N841    1.367   .     A
C796   H836    1.081   .     S
C796   C995    1.416   .     S
C797   N843    1.367   .     A
C797   H837    1.080   .     S
C798   H838    1.080   .     S
C798   N841    1.367   .     A
C798   C993    1.416   .     S
C799   O858    1.288   .     A
C799   O855    1.294   .     A
C799   C805    1.456   .     S
C800   O857    1.288   .     A
C800   O856    1.294   .     A
C800   C803    1.456   .     S
C801   C812    1.416   .     A
C801   C803    1.404   .     A
C801   I839    2.152   .     S
C802   C813    1.416   .     A
C802   I840    2.152   .     S
C802   C805    1.404   .     A
C803   C806    1.402   .     A
C804   C830    1.459   .     S
C804   O853    1.291   .     A
C804   O852    1.292   .     A
C805   C807    1.402   .     A
C806   C808    1.406   .     A
C806   C817    1.453   .     S
C807   C809    1.406   .     A
C807   C818    1.453   .     S
C808   C810    1.415   .     A
C808   C814    1.403   .     A
C809   C816    1.403   .     A
C809   C811    1.415   .     A
C810   C812    1.426   .     A
C810   C217    1.418   1_556 S
C811   C813    1.426   .     A
C812   C825    1.418   .     A
C813   C815    1.418   .     A
C814   H833    1.084   .     S
C814   C221    1.389   1_556 S
C815   C819    1.446   .     S
C816   H834    1.084   .     S
C817   N844    1.157   .     T
C818   N845    1.157   .     T
C819   N846    1.158   .     T
C820   C825    1.446   .     S
C820   N847    1.158   .     T
C821   N848    1.158   .     T
C821   C826    1.456   .     S
C822   C827    1.456   .     S
C822   N849    1.158   .     T
C823   N850    1.157   .     T
C823   C828    1.454   .     S
C824   C829    1.454   .     S
C824   N842    1.157   .     T
C825   C222    1.389   1_556 S
C826   C960    1.396   1_455 S
C827   C830    1.414   .     A
C827   C895    1.396   .     S
C828   C830    1.413   .     A
C828   C892    1.396   .     S
C829   C959    1.396   1_455 S
Cu831  O851    1.976   .     S
Cu831  O857    1.969   .     S
Cu831  N841    2.014   .     S
Cu831  O853    1.974   .     S
Cu831  O855    1.969   .     S
Cu831  Cu832   2.680   .     S
Cu832  O852    1.976   .     S
Cu832  N843    2.014   .     S
Cu832  O856    1.969   .     S
Cu832  O854    1.974   .     S
Cu832  O858    1.969   .     S
C859   C860    1.459   .     S
C859   O920    1.291   .     A
C859   O917    1.292   .     A
C860   C892    1.414   .     A
C860   C895    1.413   .     A
C861   H901    1.081   .     S
C861   N909    1.367   .     A
C862   N907    1.367   .     A
C862   H902    1.081   .     S
C862   C1061   1.416   .     S
C863   N909    1.367   .     A
C863   H903    1.080   .     S
C864   H904    1.080   .     S
C864   N907    1.367   .     A
C864   C1059   1.416   .     S
C865   O924    1.288   .     A
C865   O921    1.294   .     A
C865   C871    1.456   .     S
C866   O923    1.288   .     A
C866   O922    1.294   .     A
C866   C869    1.456   .     S
C867   C878    1.416   .     A
C867   C869    1.404   .     A
C867   I905    2.152   .     S
C868   C879    1.416   .     A
C868   I906    2.152   .     S
C868   C871    1.404   .     A
C869   C872    1.402   .     A
C870   C896    1.459   .     S
C870   O919    1.291   .     A
C870   O918    1.292   .     A
C871   C873    1.402   .     A
C872   C874    1.406   .     A
C872   C883    1.453   .     S
C873   C875    1.406   .     A
C873   C884    1.453   .     S
C874   C876    1.415   .     A
C874   C880    1.403   .     A
C875   C882    1.403   .     A
C875   C877    1.415   .     A
C876   C878    1.426   .     A
C876   C283    1.418   1_556 S
C877   C879    1.426   .     A
C878   C891    1.418   .     A
C879   C881    1.418   .     A
C880   H899    1.084   .     S
C880   C287    1.389   1_556 S
C881   C885    1.446   .     S
C882   H900    1.084   .     S
C883   N910    1.157   .     T
C884   N911    1.157   .     T
C885   N912    1.158   .     T
C886   C891    1.446   .     S
C886   N913    1.158   .     T
C887   N914    1.158   .     T
C887   C892    1.456   .     S
C888   C893    1.456   .     S
C888   N915    1.158   .     T
C889   N916    1.157   .     T
C889   C894    1.454   .     S
C890   C895    1.454   .     S
C890   N908    1.157   .     T
C891   C288    1.389   1_556 S
C893   C896    1.414   .     A
C893   C961    1.396   .     S
C894   C896    1.413   .     A
C894   C958    1.396   .     S
Cu897  O917    1.976   .     S
Cu897  O923    1.969   .     S
Cu897  N907    2.014   .     S
Cu897  O919    1.974   .     S
Cu897  O921    1.969   .     S
Cu897  Cu898   2.680   .     S
Cu898  O918    1.976   .     S
Cu898  N909    2.014   .     S
Cu898  O922    1.969   .     S
Cu898  O920    1.974   .     S
Cu898  O924    1.969   .     S
C925   C926    1.459   .     S
C925   O986    1.291   .     A
C925   O983    1.292   .     A
C926   C958    1.414   .     A
C926   C961    1.413   .     A
C927   H967    1.081   .     S
C927   N975    1.367   .     A
C928   N973    1.367   .     A
C928   H968    1.081   .     S
C928   C1127   1.416   .     S
C929   N975    1.367   .     A
C929   H969    1.080   .     S
C930   H970    1.080   .     S
C930   N973    1.367   .     A
C930   C1125   1.416   .     S
C931   O990    1.288   .     A
C931   O987    1.294   .     A
C931   C937    1.456   .     S
C932   O989    1.288   .     A
C932   O988    1.294   .     A
C932   C935    1.456   .     S
C933   C944    1.416   .     A
C933   C935    1.404   .     A
C933   I971    2.152   .     S
C934   C945    1.416   .     A
C934   I972    2.152   .     S
C934   C937    1.404   .     A
C935   C938    1.402   .     A
C936   C962    1.459   .     S
C936   O985    1.291   .     A
C936   O984    1.292   .     A
C937   C939    1.402   .     A
C938   C940    1.406   .     A
C938   C949    1.453   .     S
C939   C941    1.406   .     A
C939   C950    1.453   .     S
C940   C942    1.415   .     A
C940   C946    1.403   .     A
C941   C948    1.403   .     A
C941   C943    1.415   .     A
C942   C944    1.426   .     A
C942   C349    1.418   1_556 S
C943   C945    1.426   .     A
C944   C957    1.418   .     A
C945   C947    1.418   .     A
C946   H965    1.084   .     S
C946   C353    1.389   1_556 S
C947   C951    1.446   .     S
C948   H966    1.084   .     S
C949   N976    1.157   .     T
C950   N977    1.157   .     T
C951   N978    1.158   .     T
C952   C957    1.446   .     S
C952   N979    1.158   .     T
C953   N980    1.158   .     T
C953   C958    1.456   .     S
C954   C959    1.456   .     S
C954   N981    1.158   .     T
C955   N982    1.157   .     T
C955   C960    1.454   .     S
C956   C961    1.454   .     S
C956   N974    1.157   .     T
C957   C354    1.389   1_556 S
C959   C962    1.414   .     A
C959   C829    1.396   1_655 S
C960   C962    1.413   .     A
C960   C826    1.396   1_655 S
Cu963  O983    1.976   .     S
Cu963  O989    1.969   .     S
Cu963  N973    2.014   .     S
Cu963  O985    1.974   .     S
Cu963  O987    1.969   .     S
Cu963  Cu964   2.680   .     S
Cu964  O984    1.976   .     S
Cu964  N975    2.014   .     S
Cu964  O988    1.969   .     S
Cu964  O986    1.974   .     S
Cu964  O990    1.969   .     S
C991   C992    1.459   .     S
C991   O1052   1.291   .     A
C991   O1049   1.292   .     A
C992   C1024   1.414   .     A
C992   C1027   1.413   .     A
C993   H1033   1.081   .     S
C993   N1041   1.367   .     A
C994   N1039   1.367   .     A
C994   H1034   1.081   .     S
C994   C599    1.416   1_565 S
C995   N1041   1.367   .     A
C995   H1035   1.080   .     S
C996   H1036   1.080   .     S
C996   N1039   1.367   .     A
C996   C597    1.416   1_565 S
C997   O1056   1.288   .     A
C997   O1053   1.294   .     A
C997   C1003   1.456   .     S
C998   O1055   1.288   .     A
C998   O1054   1.294   .     A
C998   C1001   1.456   .     S
C999   C1010   1.416   .     A
C999   C1001   1.404   .     A
C999   I1037   2.152   .     S
C1000  C1011   1.416   .     A
C1000  I1038   2.152   .     S
C1000  C1003   1.404   .     A
C1001  C1004   1.402   .     A
C1002  C1028   1.459   .     S
C1002  O1051   1.291   .     A
C1002  O1050   1.292   .     A
C1003  C1005   1.402   .     A
C1004  C1006   1.406   .     A
C1004  C1015   1.453   .     S
C1005  C1007   1.406   .     A
C1005  C1016   1.453   .     S
C1006  C1008   1.415   .     A
C1006  C1012   1.403   .     A
C1007  C1014   1.403   .     A
C1007  C1009   1.415   .     A
C1008  C1010   1.426   .     A
C1008  C415    1.418   1_556 S
C1009  C1011   1.426   .     A
C1010  C1023   1.418   .     A
C1011  C1013   1.418   .     A
C1012  H1031   1.084   .     S
C1012  C419    1.389   1_556 S
C1013  C1017   1.446   .     S
C1014  H1032   1.084   .     S
C1015  N1042   1.157   .     T
C1016  N1043   1.157   .     T
C1017  N1044   1.158   .     T
C1018  C1023   1.446   .     S
C1018  N1045   1.158   .     T
C1019  N1046   1.158   .     T
C1019  C1024   1.456   .     S
C1020  C1025   1.456   .     S
C1020  N1047   1.158   .     T
C1021  N1048   1.157   .     T
C1021  C1026   1.454   .     S
C1022  C1027   1.454   .     S
C1022  N1040   1.157   .     T
C1023  C420    1.389   1_556 S
C1024  C1158   1.396   1_455 S
C1025  C1028   1.414   .     A
C1025  C1093   1.396   .     S
C1026  C1028   1.413   .     A
C1026  C1090   1.396   .     S
C1027  C1157   1.396   1_455 S
Cu1029 O1049   1.976   .     S
Cu1029 O1055   1.969   .     S
Cu1029 N1039   2.014   .     S
Cu1029 O1051   1.974   .     S
Cu1029 O1053   1.969   .     S
Cu1029 Cu1030  2.680   .     S
Cu1030 O1050   1.976   .     S
Cu1030 N1041   2.014   .     S
Cu1030 O1054   1.969   .     S
Cu1030 O1052   1.974   .     S
Cu1030 O1056   1.969   .     S
C1057  C1058   1.459   .     S
C1057  O1118   1.291   .     A
C1057  O1115   1.292   .     A
C1058  C1090   1.414   .     A
C1058  C1093   1.413   .     A
C1059  H1099   1.081   .     S
C1059  N1107   1.367   .     A
C1060  N1105   1.367   .     A
C1060  H1100   1.081   .     S
C1060  C665    1.416   1_565 S
C1061  N1107   1.367   .     A
C1061  H1101   1.080   .     S
C1062  H1102   1.080   .     S
C1062  N1105   1.367   .     A
C1062  C663    1.416   1_565 S
C1063  O1122   1.288   .     A
C1063  O1119   1.294   .     A
C1063  C1069   1.456   .     S
C1064  O1121   1.288   .     A
C1064  O1120   1.294   .     A
C1064  C1067   1.456   .     S
C1065  C1076   1.416   .     A
C1065  C1067   1.404   .     A
C1065  I1103   2.152   .     S
C1066  C1077   1.416   .     A
C1066  I1104   2.152   .     S
C1066  C1069   1.404   .     A
C1067  C1070   1.402   .     A
C1068  C1094   1.459   .     S
C1068  O1117   1.291   .     A
C1068  O1116   1.292   .     A
C1069  C1071   1.402   .     A
C1070  C1072   1.406   .     A
C1070  C1081   1.453   .     S
C1071  C1073   1.406   .     A
C1071  C1082   1.453   .     S
C1072  C1074   1.415   .     A
C1072  C1078   1.403   .     A
C1073  C1080   1.403   .     A
C1073  C1075   1.415   .     A
C1074  C1076   1.426   .     A
C1074  C481    1.418   1_556 S
C1075  C1077   1.426   .     A
C1076  C1089   1.418   .     A
C1077  C1079   1.418   .     A
C1078  H1097   1.084   .     S
C1078  C485    1.389   1_556 S
C1079  C1083   1.446   .     S
C1080  H1098   1.084   .     S
C1081  N1108   1.157   .     T
C1082  N1109   1.157   .     T
C1083  N1110   1.158   .     T
C1084  C1089   1.446   .     S
C1084  N1111   1.158   .     T
C1085  N1112   1.158   .     T
C1085  C1090   1.456   .     S
C1086  C1091   1.456   .     S
C1086  N1113   1.158   .     T
C1087  N1114   1.157   .     T
C1087  C1092   1.454   .     S
C1088  C1093   1.454   .     S
C1088  N1106   1.157   .     T
C1089  C486    1.389   1_556 S
C1091  C1094   1.414   .     A
C1091  C1159   1.396   .     S
C1092  C1094   1.413   .     A
C1092  C1156   1.396   .     S
Cu1095 O1115   1.976   .     S
Cu1095 O1121   1.969   .     S
Cu1095 N1105   2.014   .     S
Cu1095 O1117   1.974   .     S
Cu1095 O1119   1.969   .     S
Cu1095 Cu1096  2.680   .     S
Cu1096 O1116   1.976   .     S
Cu1096 N1107   2.014   .     S
Cu1096 O1120   1.969   .     S
Cu1096 O1118   1.974   .     S
Cu1096 O1122   1.969   .     S
C1123  C1124   1.459   .     S
C1123  O1184   1.291   .     A
C1123  O1181   1.292   .     A
C1124  C1156   1.414   .     A
C1124  C1159   1.413   .     A
C1125  H1165   1.081   .     S
C1125  N1173   1.367   .     A
C1126  N1171   1.367   .     A
C1126  H1166   1.081   .     S
C1126  C731    1.416   1_565 S
C1127  N1173   1.367   .     A
C1127  H1167   1.080   .     S
C1128  H1168   1.080   .     S
C1128  N1171   1.367   .     A
C1128  C729    1.416   1_565 S
C1129  O1188   1.288   .     A
C1129  O1185   1.294   .     A
C1129  C1135   1.456   .     S
C1130  O1187   1.288   .     A
C1130  O1186   1.294   .     A
C1130  C1133   1.456   .     S
C1131  C1142   1.416   .     A
C1131  C1133   1.404   .     A
C1131  I1169   2.152   .     S
C1132  C1143   1.416   .     A
C1132  I1170   2.152   .     S
C1132  C1135   1.404   .     A
C1133  C1136   1.402   .     A
C1134  C1160   1.459   .     S
C1134  O1183   1.291   .     A
C1134  O1182   1.292   .     A
C1135  C1137   1.402   .     A
C1136  C1138   1.406   .     A
C1136  C1147   1.453   .     S
C1137  C1139   1.406   .     A
C1137  C1148   1.453   .     S
C1138  C1140   1.415   .     A
C1138  C1144   1.403   .     A
C1139  C1146   1.403   .     A
C1139  C1141   1.415   .     A
C1140  C1142   1.426   .     A
C1140  C547    1.418   1_556 S
C1141  C1143   1.426   .     A
C1142  C1155   1.418   .     A
C1143  C1145   1.418   .     A
C1144  H1163   1.084   .     S
C1144  C551    1.389   1_556 S
C1145  C1149   1.446   .     S
C1146  H1164   1.084   .     S
C1147  N1174   1.157   .     T
C1148  N1175   1.157   .     T
C1149  N1176   1.158   .     T
C1150  C1155   1.446   .     S
C1150  N1177   1.158   .     T
C1151  N1178   1.158   .     T
C1151  C1156   1.456   .     S
C1152  C1157   1.456   .     S
C1152  N1179   1.158   .     T
C1153  N1180   1.157   .     T
C1153  C1158   1.454   .     S
C1154  C1159   1.454   .     S
C1154  N1172   1.157   .     T
C1155  C552    1.389   1_556 S
C1157  C1160   1.414   .     A
C1157  C1027   1.396   1_655 S
C1158  C1160   1.413   .     A
C1158  C1024   1.396   1_655 S
Cu1161 O1181   1.976   .     S
Cu1161 O1187   1.969   .     S
Cu1161 N1171   2.014   .     S
Cu1161 O1183   1.974   .     S
Cu1161 O1185   1.969   .     S
Cu1161 Cu1162  2.680   .     S
Cu1162 O1182   1.976   .     S
Cu1162 N1173   2.014   .     S
Cu1162 O1186   1.969   .     S
Cu1162 O1184   1.974   .     S
Cu1162 O1188   1.969   .     S
