data_str_m2_o1_o10_pcu_sym.162
_audit_creation_date              2020-01-03
_audit_creation_method            'Materials Studio'
_symmetry_space_group_name_H-M    'P1'
_symmetry_Int_Tables_number       1
_symmetry_cell_setting            triclinic
loop_
_symmetry_equiv_pos_as_xyz
  x,y,z
_cell_length_a                    26.2032
_cell_length_b                    32.4953
_cell_length_c                    28.5706
_cell_angle_alpha                 89.6852
_cell_angle_beta                  97.9257
_cell_angle_gamma                 90.2098
loop_
_atom_site_label
_atom_site_type_symbol
_atom_site_fract_x
_atom_site_fract_y
_atom_site_fract_z
_atom_site_U_iso_or_equiv
_atom_site_adp_type
_atom_site_occupancy
C1     C     0.16754   0.08741   0.16694   0.00000  Uiso   1.00
C2     C     0.16599   0.24593   0.16642   0.00000  Uiso   1.00
C3     C     0.06792   0.16665   0.15458   0.00000  Uiso   1.00
C4     C     0.26542   0.16667   0.17876   0.00000  Uiso   1.00
C5     C     0.01264   0.16668   0.14792   0.00000  Uiso   1.00
C6     C     0.32069   0.16662   0.18542   0.00000  Uiso   1.00
C7     C     0.14584   0.02214   0.12675   0.00000  Uiso   1.00
C8     C     0.18831   0.31114   0.20669   0.00000  Uiso   1.00
C9     C     0.14435   0.31278   0.12578   0.00000  Uiso   1.00
C10    C     0.19007   0.02062   0.20772   0.00000  Uiso   1.00
C11    C     0.16589   0.29055   0.16606   0.00000  Uiso   1.00
C12    C     0.16817   0.04279   0.16737   0.00000  Uiso   1.00
C13    C     0.13364   0.14188   0.02076   0.00000  Uiso   1.00
C14    C     0.19968   0.19146   0.31257   0.00000  Uiso   1.00
C15    C     0.13366   0.14188   0.30450   0.00000  Uiso   1.00
C16    C     0.19967   0.19146   0.02883   0.00000  Uiso   1.00
Cu17   Cu    0.16667   0.16667   0.21355   0.00000  Uiso   1.00
Cu18   Cu    0.16667   0.16666   0.11978   0.00000  Uiso   1.00
H19    H     0.12856   0.03916   0.09587   0.00000  Uiso   1.00
H20    H     0.20549   0.29381   0.23737   0.00000  Uiso   1.00
H21    H     0.10725   0.12199   0.28259   0.00000  Uiso   1.00
H22    H     0.22606   0.21136   0.05074   0.00000  Uiso   1.00
N23    N     0.16668   0.16668   0.28403   0.00000  Uiso   1.00
N24    N     0.16665   0.16666   0.04931   0.00000  Uiso   1.00
O25    O     0.16666   0.10655   0.20625   0.00000  Uiso   1.00
O26    O     0.16667   0.22678   0.12709   0.00000  Uiso   1.00
O27    O     0.16666   0.10654   0.12706   0.00000  Uiso   1.00
O28    O     0.16667   0.22679   0.20628   0.00000  Uiso   1.00
O29    O     0.09161   0.16667   0.19712   0.00000  Uiso   1.00
O30    O     0.24172   0.16666   0.13621   0.00000  Uiso   1.00
O31    O     0.09161   0.16666   0.11793   0.00000  Uiso   1.00
O32    O     0.24172   0.16667   0.21540   0.00000  Uiso   1.00
H33    H     0.32600   0.16677   0.11194   0.00000  Uiso   1.00
H34    H     0.00733   0.16653   0.22140   0.00000  Uiso   1.00
N35    N     0.11970   0.29226   0.08439   0.00000  Uiso   1.00
H36    H     0.13828   0.30118   0.05581   0.00000  Uiso   1.00
H37    H     0.08155   0.30239   0.07770   0.00000  Uiso   1.00
N38    N     0.21503   0.04151   0.24896   0.00000  Uiso   1.00
H39    H     0.24886   0.05476   0.24009   0.00000  Uiso   1.00
H40    H     0.22620   0.02060   0.27639   0.00000  Uiso   1.00
H41    H     0.10724   0.12197   0.03622   0.00000  Uiso   1.00
H42    H     0.22609   0.21137   0.29711   0.00000  Uiso   1.00
C43    C     0.50087   0.08741   0.16694   0.00000  Uiso   1.00
C44    C     0.49933   0.24593   0.16642   0.00000  Uiso   1.00
C45    C     0.40125   0.16665   0.15458   0.00000  Uiso   1.00
C46    C     0.59875   0.16667   0.17876   0.00000  Uiso   1.00
C47    C     0.34597   0.16668   0.14792   0.00000  Uiso   1.00
C48    C     0.65402   0.16662   0.18542   0.00000  Uiso   1.00
C49    C     0.47917   0.02214   0.12675   0.00000  Uiso   1.00
C50    C     0.52164   0.31114   0.20669   0.00000  Uiso   1.00
C51    C     0.47768   0.31278   0.12578   0.00000  Uiso   1.00
C52    C     0.52341   0.02062   0.20772   0.00000  Uiso   1.00
C53    C     0.49922   0.29055   0.16606   0.00000  Uiso   1.00
C54    C     0.50150   0.04279   0.16737   0.00000  Uiso   1.00
C55    C     0.46698   0.14188   0.02076   0.00000  Uiso   1.00
C56    C     0.53302   0.19146   0.31257   0.00000  Uiso   1.00
C57    C     0.46699   0.14188   0.30450   0.00000  Uiso   1.00
C58    C     0.53300   0.19146   0.02883   0.00000  Uiso   1.00
Cu59   Cu    0.50000   0.16667   0.21355   0.00000  Uiso   1.00
Cu60   Cu    0.50000   0.16666   0.11978   0.00000  Uiso   1.00
H61    H     0.46189   0.03916   0.09587   0.00000  Uiso   1.00
H62    H     0.53882   0.29381   0.23737   0.00000  Uiso   1.00
H63    H     0.44059   0.12199   0.28259   0.00000  Uiso   1.00
H64    H     0.55939   0.21136   0.05074   0.00000  Uiso   1.00
N65    N     0.50001   0.16668   0.28403   0.00000  Uiso   1.00
N66    N     0.49999   0.16666   0.04931   0.00000  Uiso   1.00
O67    O     0.50000   0.10655   0.20625   0.00000  Uiso   1.00
O68    O     0.50000   0.22678   0.12709   0.00000  Uiso   1.00
O69    O     0.50000   0.10654   0.12706   0.00000  Uiso   1.00
O70    O     0.50000   0.22679   0.20628   0.00000  Uiso   1.00
O71    O     0.42495   0.16667   0.19712   0.00000  Uiso   1.00
O72    O     0.57505   0.16666   0.13621   0.00000  Uiso   1.00
O73    O     0.42494   0.16666   0.11793   0.00000  Uiso   1.00
O74    O     0.57506   0.16667   0.21540   0.00000  Uiso   1.00
H75    H     0.65934   0.16677   0.11194   0.00000  Uiso   1.00
H76    H     0.34066   0.16653   0.22140   0.00000  Uiso   1.00
N77    N     0.45303   0.29226   0.08439   0.00000  Uiso   1.00
H78    H     0.47161   0.30118   0.05581   0.00000  Uiso   1.00
H79    H     0.41488   0.30239   0.07770   0.00000  Uiso   1.00
N80    N     0.54836   0.04151   0.24896   0.00000  Uiso   1.00
H81    H     0.58219   0.05476   0.24009   0.00000  Uiso   1.00
H82    H     0.55953   0.02060   0.27639   0.00000  Uiso   1.00
H83    H     0.44057   0.12197   0.03622   0.00000  Uiso   1.00
H84    H     0.55942   0.21137   0.29711   0.00000  Uiso   1.00
C85    C     0.83421   0.08741   0.16694   0.00000  Uiso   1.00
C86    C     0.83266   0.24593   0.16642   0.00000  Uiso   1.00
C87    C     0.73458   0.16665   0.15458   0.00000  Uiso   1.00
C88    C     0.93208   0.16667   0.17876   0.00000  Uiso   1.00
C89    C     0.67931   0.16668   0.14792   0.00000  Uiso   1.00
C90    C     0.98736   0.16662   0.18542   0.00000  Uiso   1.00
C91    C     0.81250   0.02214   0.12675   0.00000  Uiso   1.00
C92    C     0.85498   0.31114   0.20669   0.00000  Uiso   1.00
C93    C     0.81102   0.31278   0.12578   0.00000  Uiso   1.00
C94    C     0.85674   0.02062   0.20772   0.00000  Uiso   1.00
C95    C     0.83256   0.29055   0.16606   0.00000  Uiso   1.00
C96    C     0.83483   0.04279   0.16737   0.00000  Uiso   1.00
C97    C     0.80031   0.14188   0.02076   0.00000  Uiso   1.00
C98    C     0.86635   0.19146   0.31257   0.00000  Uiso   1.00
C99    C     0.80033   0.14188   0.30450   0.00000  Uiso   1.00
C100   C     0.86633   0.19146   0.02883   0.00000  Uiso   1.00
Cu101  Cu    0.83333   0.16667   0.21355   0.00000  Uiso   1.00
Cu102  Cu    0.83333   0.16666   0.11978   0.00000  Uiso   1.00
H103   H     0.79522   0.03916   0.09587   0.00000  Uiso   1.00
H104   H     0.87216   0.29381   0.23737   0.00000  Uiso   1.00
H105   H     0.77392   0.12199   0.28259   0.00000  Uiso   1.00
H106   H     0.89273   0.21136   0.05074   0.00000  Uiso   1.00
N107   N     0.83335   0.16668   0.28403   0.00000  Uiso   1.00
N108   N     0.83332   0.16666   0.04931   0.00000  Uiso   1.00
O109   O     0.83333   0.10655   0.20625   0.00000  Uiso   1.00
O110   O     0.83334   0.22678   0.12709   0.00000  Uiso   1.00
O111   O     0.83333   0.10654   0.12706   0.00000  Uiso   1.00
O112   O     0.83334   0.22679   0.20628   0.00000  Uiso   1.00
O113   O     0.75828   0.16667   0.19712   0.00000  Uiso   1.00
O114   O     0.90839   0.16666   0.13621   0.00000  Uiso   1.00
O115   O     0.75828   0.16666   0.11793   0.00000  Uiso   1.00
O116   O     0.90839   0.16667   0.21540   0.00000  Uiso   1.00
H117   H     0.99267   0.16677   0.11194   0.00000  Uiso   1.00
H118   H     0.67399   0.16653   0.22140   0.00000  Uiso   1.00
N119   N     0.78636   0.29226   0.08439   0.00000  Uiso   1.00
H120   H     0.80495   0.30118   0.05581   0.00000  Uiso   1.00
H121   H     0.74821   0.30239   0.07770   0.00000  Uiso   1.00
N122   N     0.88170   0.04151   0.24896   0.00000  Uiso   1.00
H123   H     0.91552   0.05476   0.24009   0.00000  Uiso   1.00
H124   H     0.89287   0.02060   0.27639   0.00000  Uiso   1.00
H125   H     0.77390   0.12197   0.03622   0.00000  Uiso   1.00
H126   H     0.89276   0.21137   0.29711   0.00000  Uiso   1.00
C127   C     0.16754   0.42074   0.16694   0.00000  Uiso   1.00
C128   C     0.16599   0.57926   0.16642   0.00000  Uiso   1.00
C129   C     0.06792   0.49999   0.15458   0.00000  Uiso   1.00
C130   C     0.26542   0.50000   0.17876   0.00000  Uiso   1.00
C131   C     0.01264   0.50001   0.14792   0.00000  Uiso   1.00
C132   C     0.32069   0.49995   0.18542   0.00000  Uiso   1.00
C133   C     0.14584   0.35548   0.12675   0.00000  Uiso   1.00
C134   C     0.18831   0.64447   0.20669   0.00000  Uiso   1.00
C135   C     0.14435   0.64611   0.12578   0.00000  Uiso   1.00
C136   C     0.19007   0.35395   0.20772   0.00000  Uiso   1.00
C137   C     0.16589   0.62388   0.16606   0.00000  Uiso   1.00
C138   C     0.16817   0.37612   0.16737   0.00000  Uiso   1.00
C139   C     0.13364   0.47521   0.02076   0.00000  Uiso   1.00
C140   C     0.19968   0.52480   0.31257   0.00000  Uiso   1.00
C141   C     0.13366   0.47522   0.30450   0.00000  Uiso   1.00
C142   C     0.19967   0.52479   0.02883   0.00000  Uiso   1.00
Cu143  Cu    0.16667   0.50001   0.21355   0.00000  Uiso   1.00
Cu144  Cu    0.16667   0.49999   0.11978   0.00000  Uiso   1.00
H145   H     0.12856   0.37250   0.09587   0.00000  Uiso   1.00
H146   H     0.20549   0.62715   0.23737   0.00000  Uiso   1.00
H147   H     0.10725   0.45532   0.28259   0.00000  Uiso   1.00
H148   H     0.22606   0.54469   0.05074   0.00000  Uiso   1.00
N149   N     0.16668   0.50001   0.28403   0.00000  Uiso   1.00
N150   N     0.16665   0.49999   0.04931   0.00000  Uiso   1.00
O151   O     0.16666   0.43989   0.20625   0.00000  Uiso   1.00
O152   O     0.16667   0.56011   0.12709   0.00000  Uiso   1.00
O153   O     0.16666   0.43988   0.12706   0.00000  Uiso   1.00
O154   O     0.16667   0.56012   0.20628   0.00000  Uiso   1.00
O155   O     0.09161   0.50000   0.19712   0.00000  Uiso   1.00
O156   O     0.24172   0.50000   0.13621   0.00000  Uiso   1.00
O157   O     0.09161   0.49999   0.11793   0.00000  Uiso   1.00
O158   O     0.24172   0.50001   0.21540   0.00000  Uiso   1.00
H159   H     0.32600   0.50010   0.11194   0.00000  Uiso   1.00
H160   H     0.00733   0.49986   0.22140   0.00000  Uiso   1.00
N161   N     0.11970   0.62559   0.08439   0.00000  Uiso   1.00
H162   H     0.13828   0.63451   0.05581   0.00000  Uiso   1.00
H163   H     0.08155   0.63573   0.07770   0.00000  Uiso   1.00
N164   N     0.21503   0.37484   0.24896   0.00000  Uiso   1.00
H165   H     0.24886   0.38810   0.24009   0.00000  Uiso   1.00
H166   H     0.22620   0.35393   0.27639   0.00000  Uiso   1.00
H167   H     0.10724   0.45530   0.03622   0.00000  Uiso   1.00
H168   H     0.22609   0.54471   0.29711   0.00000  Uiso   1.00
C169   C     0.50087   0.42074   0.16694   0.00000  Uiso   1.00
C170   C     0.49933   0.57926   0.16642   0.00000  Uiso   1.00
C171   C     0.40125   0.49999   0.15458   0.00000  Uiso   1.00
C172   C     0.59875   0.50000   0.17876   0.00000  Uiso   1.00
C173   C     0.34597   0.50001   0.14792   0.00000  Uiso   1.00
C174   C     0.65402   0.49995   0.18542   0.00000  Uiso   1.00
C175   C     0.47917   0.35548   0.12675   0.00000  Uiso   1.00
C176   C     0.52164   0.64447   0.20669   0.00000  Uiso   1.00
C177   C     0.47768   0.64611   0.12578   0.00000  Uiso   1.00
C178   C     0.52341   0.35395   0.20772   0.00000  Uiso   1.00
C179   C     0.49922   0.62388   0.16606   0.00000  Uiso   1.00
C180   C     0.50150   0.37612   0.16737   0.00000  Uiso   1.00
C181   C     0.46698   0.47521   0.02076   0.00000  Uiso   1.00
C182   C     0.53302   0.52480   0.31257   0.00000  Uiso   1.00
C183   C     0.46699   0.47522   0.30450   0.00000  Uiso   1.00
C184   C     0.53300   0.52479   0.02883   0.00000  Uiso   1.00
Cu185  Cu    0.50000   0.50001   0.21355   0.00000  Uiso   1.00
Cu186  Cu    0.50000   0.49999   0.11978   0.00000  Uiso   1.00
H187   H     0.46189   0.37250   0.09587   0.00000  Uiso   1.00
H188   H     0.53882   0.62715   0.23737   0.00000  Uiso   1.00
H189   H     0.44059   0.45532   0.28259   0.00000  Uiso   1.00
H190   H     0.55939   0.54469   0.05074   0.00000  Uiso   1.00
N191   N     0.50001   0.50001   0.28403   0.00000  Uiso   1.00
N192   N     0.49999   0.49999   0.04931   0.00000  Uiso   1.00
O193   O     0.50000   0.43989   0.20625   0.00000  Uiso   1.00
O194   O     0.50000   0.56011   0.12709   0.00000  Uiso   1.00
O195   O     0.50000   0.43988   0.12706   0.00000  Uiso   1.00
O196   O     0.50000   0.56012   0.20628   0.00000  Uiso   1.00
O197   O     0.42495   0.50000   0.19712   0.00000  Uiso   1.00
O198   O     0.57505   0.50000   0.13621   0.00000  Uiso   1.00
O199   O     0.42494   0.49999   0.11793   0.00000  Uiso   1.00
O200   O     0.57506   0.50001   0.21540   0.00000  Uiso   1.00
H201   H     0.65934   0.50010   0.11194   0.00000  Uiso   1.00
H202   H     0.34066   0.49986   0.22140   0.00000  Uiso   1.00
N203   N     0.45303   0.62559   0.08439   0.00000  Uiso   1.00
H204   H     0.47161   0.63451   0.05581   0.00000  Uiso   1.00
H205   H     0.41488   0.63573   0.07770   0.00000  Uiso   1.00
N206   N     0.54836   0.37484   0.24896   0.00000  Uiso   1.00
H207   H     0.58219   0.38810   0.24009   0.00000  Uiso   1.00
H208   H     0.55953   0.35393   0.27639   0.00000  Uiso   1.00
H209   H     0.44057   0.45530   0.03622   0.00000  Uiso   1.00
H210   H     0.55942   0.54471   0.29711   0.00000  Uiso   1.00
C211   C     0.83421   0.42074   0.16694   0.00000  Uiso   1.00
C212   C     0.83266   0.57926   0.16642   0.00000  Uiso   1.00
C213   C     0.73458   0.49999   0.15458   0.00000  Uiso   1.00
C214   C     0.93208   0.50000   0.17876   0.00000  Uiso   1.00
C215   C     0.67931   0.50001   0.14792   0.00000  Uiso   1.00
C216   C     0.98736   0.49995   0.18542   0.00000  Uiso   1.00
C217   C     0.81250   0.35548   0.12675   0.00000  Uiso   1.00
C218   C     0.85498   0.64447   0.20669   0.00000  Uiso   1.00
C219   C     0.81102   0.64611   0.12578   0.00000  Uiso   1.00
C220   C     0.85674   0.35395   0.20772   0.00000  Uiso   1.00
C221   C     0.83256   0.62388   0.16606   0.00000  Uiso   1.00
C222   C     0.83483   0.37612   0.16737   0.00000  Uiso   1.00
C223   C     0.80031   0.47521   0.02076   0.00000  Uiso   1.00
C224   C     0.86635   0.52480   0.31257   0.00000  Uiso   1.00
C225   C     0.80033   0.47522   0.30450   0.00000  Uiso   1.00
C226   C     0.86633   0.52479   0.02883   0.00000  Uiso   1.00
Cu227  Cu    0.83333   0.50001   0.21355   0.00000  Uiso   1.00
Cu228  Cu    0.83333   0.49999   0.11978   0.00000  Uiso   1.00
H229   H     0.79522   0.37250   0.09587   0.00000  Uiso   1.00
H230   H     0.87216   0.62715   0.23737   0.00000  Uiso   1.00
H231   H     0.77392   0.45532   0.28259   0.00000  Uiso   1.00
H232   H     0.89273   0.54469   0.05074   0.00000  Uiso   1.00
N233   N     0.83335   0.50001   0.28403   0.00000  Uiso   1.00
N234   N     0.83332   0.49999   0.04931   0.00000  Uiso   1.00
O235   O     0.83333   0.43989   0.20625   0.00000  Uiso   1.00
O236   O     0.83334   0.56011   0.12709   0.00000  Uiso   1.00
O237   O     0.83333   0.43988   0.12706   0.00000  Uiso   1.00
O238   O     0.83334   0.56012   0.20628   0.00000  Uiso   1.00
O239   O     0.75828   0.50000   0.19712   0.00000  Uiso   1.00
O240   O     0.90839   0.50000   0.13621   0.00000  Uiso   1.00
O241   O     0.75828   0.49999   0.11793   0.00000  Uiso   1.00
O242   O     0.90839   0.50001   0.21540   0.00000  Uiso   1.00
H243   H     0.99267   0.50010   0.11194   0.00000  Uiso   1.00
H244   H     0.67399   0.49986   0.22140   0.00000  Uiso   1.00
N245   N     0.78636   0.62559   0.08439   0.00000  Uiso   1.00
H246   H     0.80495   0.63451   0.05581   0.00000  Uiso   1.00
H247   H     0.74821   0.63573   0.07770   0.00000  Uiso   1.00
N248   N     0.88170   0.37484   0.24896   0.00000  Uiso   1.00
H249   H     0.91552   0.38810   0.24009   0.00000  Uiso   1.00
H250   H     0.89287   0.35393   0.27639   0.00000  Uiso   1.00
H251   H     0.77390   0.45530   0.03622   0.00000  Uiso   1.00
H252   H     0.89276   0.54471   0.29711   0.00000  Uiso   1.00
C253   C     0.16754   0.75408   0.16694   0.00000  Uiso   1.00
C254   C     0.16599   0.91259   0.16642   0.00000  Uiso   1.00
C255   C     0.06792   0.83332   0.15458   0.00000  Uiso   1.00
C256   C     0.26542   0.83333   0.17876   0.00000  Uiso   1.00
C257   C     0.01264   0.83335   0.14792   0.00000  Uiso   1.00
C258   C     0.32069   0.83329   0.18542   0.00000  Uiso   1.00
C259   C     0.14584   0.68881   0.12675   0.00000  Uiso   1.00
C260   C     0.18831   0.97781   0.20669   0.00000  Uiso   1.00
C261   C     0.14435   0.97945   0.12578   0.00000  Uiso   1.00
C262   C     0.19007   0.68728   0.20772   0.00000  Uiso   1.00
C263   C     0.16589   0.95721   0.16606   0.00000  Uiso   1.00
C264   C     0.16817   0.70945   0.16737   0.00000  Uiso   1.00
C265   C     0.13364   0.80854   0.02076   0.00000  Uiso   1.00
C266   C     0.19968   0.85813   0.31257   0.00000  Uiso   1.00
C267   C     0.13366   0.80855   0.30450   0.00000  Uiso   1.00
C268   C     0.19967   0.85812   0.02883   0.00000  Uiso   1.00
Cu269  Cu    0.16667   0.83334   0.21355   0.00000  Uiso   1.00
Cu270  Cu    0.16667   0.83333   0.11978   0.00000  Uiso   1.00
H271   H     0.12856   0.70583   0.09587   0.00000  Uiso   1.00
H272   H     0.20549   0.96048   0.23737   0.00000  Uiso   1.00
H273   H     0.10725   0.78866   0.28259   0.00000  Uiso   1.00
H274   H     0.22606   0.87802   0.05074   0.00000  Uiso   1.00
N275   N     0.16668   0.83334   0.28403   0.00000  Uiso   1.00
N276   N     0.16665   0.83332   0.04931   0.00000  Uiso   1.00
O277   O     0.16666   0.77322   0.20625   0.00000  Uiso   1.00
O278   O     0.16667   0.89345   0.12709   0.00000  Uiso   1.00
O279   O     0.16666   0.77321   0.12706   0.00000  Uiso   1.00
O280   O     0.16667   0.89346   0.20628   0.00000  Uiso   1.00
O281   O     0.09161   0.83334   0.19712   0.00000  Uiso   1.00
O282   O     0.24172   0.83333   0.13621   0.00000  Uiso   1.00
O283   O     0.09161   0.83333   0.11793   0.00000  Uiso   1.00
O284   O     0.24172   0.83334   0.21540   0.00000  Uiso   1.00
H285   H     0.32600   0.83344   0.11194   0.00000  Uiso   1.00
H286   H     0.00733   0.83320   0.22140   0.00000  Uiso   1.00
N287   N     0.11970   0.95892   0.08439   0.00000  Uiso   1.00
H288   H     0.13828   0.96785   0.05581   0.00000  Uiso   1.00
H289   H     0.08155   0.96906   0.07770   0.00000  Uiso   1.00
N290   N     0.21503   0.70817   0.24896   0.00000  Uiso   1.00
H291   H     0.24886   0.72143   0.24009   0.00000  Uiso   1.00
H292   H     0.22620   0.68726   0.27639   0.00000  Uiso   1.00
H293   H     0.10724   0.78863   0.03622   0.00000  Uiso   1.00
H294   H     0.22609   0.87804   0.29711   0.00000  Uiso   1.00
C295   C     0.50087   0.75408   0.16694   0.00000  Uiso   1.00
C296   C     0.49933   0.91259   0.16642   0.00000  Uiso   1.00
C297   C     0.40125   0.83332   0.15458   0.00000  Uiso   1.00
C298   C     0.59875   0.83333   0.17876   0.00000  Uiso   1.00
C299   C     0.34597   0.83335   0.14792   0.00000  Uiso   1.00
C300   C     0.65402   0.83329   0.18542   0.00000  Uiso   1.00
C301   C     0.47917   0.68881   0.12675   0.00000  Uiso   1.00
C302   C     0.52164   0.97781   0.20669   0.00000  Uiso   1.00
C303   C     0.47768   0.97945   0.12578   0.00000  Uiso   1.00
C304   C     0.52341   0.68728   0.20772   0.00000  Uiso   1.00
C305   C     0.49922   0.95721   0.16606   0.00000  Uiso   1.00
C306   C     0.50150   0.70945   0.16737   0.00000  Uiso   1.00
C307   C     0.46698   0.80854   0.02076   0.00000  Uiso   1.00
C308   C     0.53302   0.85813   0.31257   0.00000  Uiso   1.00
C309   C     0.46699   0.80855   0.30450   0.00000  Uiso   1.00
C310   C     0.53300   0.85812   0.02883   0.00000  Uiso   1.00
Cu311  Cu    0.50000   0.83334   0.21355   0.00000  Uiso   1.00
Cu312  Cu    0.50000   0.83333   0.11978   0.00000  Uiso   1.00
H313   H     0.46189   0.70583   0.09587   0.00000  Uiso   1.00
H314   H     0.53882   0.96048   0.23737   0.00000  Uiso   1.00
H315   H     0.44059   0.78866   0.28259   0.00000  Uiso   1.00
H316   H     0.55939   0.87802   0.05074   0.00000  Uiso   1.00
N317   N     0.50001   0.83334   0.28403   0.00000  Uiso   1.00
N318   N     0.49999   0.83332   0.04931   0.00000  Uiso   1.00
O319   O     0.50000   0.77322   0.20625   0.00000  Uiso   1.00
O320   O     0.50000   0.89345   0.12709   0.00000  Uiso   1.00
O321   O     0.50000   0.77321   0.12706   0.00000  Uiso   1.00
O322   O     0.50000   0.89346   0.20628   0.00000  Uiso   1.00
O323   O     0.42495   0.83334   0.19712   0.00000  Uiso   1.00
O324   O     0.57505   0.83333   0.13621   0.00000  Uiso   1.00
O325   O     0.42494   0.83333   0.11793   0.00000  Uiso   1.00
O326   O     0.57506   0.83334   0.21540   0.00000  Uiso   1.00
H327   H     0.65934   0.83344   0.11194   0.00000  Uiso   1.00
H328   H     0.34066   0.83320   0.22140   0.00000  Uiso   1.00
N329   N     0.45303   0.95892   0.08439   0.00000  Uiso   1.00
H330   H     0.47161   0.96785   0.05581   0.00000  Uiso   1.00
H331   H     0.41488   0.96906   0.07770   0.00000  Uiso   1.00
N332   N     0.54836   0.70817   0.24896   0.00000  Uiso   1.00
H333   H     0.58219   0.72143   0.24009   0.00000  Uiso   1.00
H334   H     0.55953   0.68726   0.27639   0.00000  Uiso   1.00
H335   H     0.44057   0.78863   0.03622   0.00000  Uiso   1.00
H336   H     0.55942   0.87804   0.29711   0.00000  Uiso   1.00
C337   C     0.83421   0.75408   0.16694   0.00000  Uiso   1.00
C338   C     0.83266   0.91259   0.16642   0.00000  Uiso   1.00
C339   C     0.73458   0.83332   0.15458   0.00000  Uiso   1.00
C340   C     0.93208   0.83333   0.17876   0.00000  Uiso   1.00
C341   C     0.67931   0.83335   0.14792   0.00000  Uiso   1.00
C342   C     0.98736   0.83329   0.18542   0.00000  Uiso   1.00
C343   C     0.81250   0.68881   0.12675   0.00000  Uiso   1.00
C344   C     0.85498   0.97781   0.20669   0.00000  Uiso   1.00
C345   C     0.81102   0.97945   0.12578   0.00000  Uiso   1.00
C346   C     0.85674   0.68728   0.20772   0.00000  Uiso   1.00
C347   C     0.83256   0.95721   0.16606   0.00000  Uiso   1.00
C348   C     0.83483   0.70945   0.16737   0.00000  Uiso   1.00
C349   C     0.80031   0.80854   0.02076   0.00000  Uiso   1.00
C350   C     0.86635   0.85813   0.31257   0.00000  Uiso   1.00
C351   C     0.80033   0.80855   0.30450   0.00000  Uiso   1.00
C352   C     0.86633   0.85812   0.02883   0.00000  Uiso   1.00
Cu353  Cu    0.83333   0.83334   0.21355   0.00000  Uiso   1.00
Cu354  Cu    0.83333   0.83333   0.11978   0.00000  Uiso   1.00
H355   H     0.79522   0.70583   0.09587   0.00000  Uiso   1.00
H356   H     0.87216   0.96048   0.23737   0.00000  Uiso   1.00
H357   H     0.77392   0.78866   0.28259   0.00000  Uiso   1.00
H358   H     0.89273   0.87802   0.05074   0.00000  Uiso   1.00
N359   N     0.83335   0.83334   0.28403   0.00000  Uiso   1.00
N360   N     0.83332   0.83332   0.04931   0.00000  Uiso   1.00
O361   O     0.83333   0.77322   0.20625   0.00000  Uiso   1.00
O362   O     0.83334   0.89345   0.12709   0.00000  Uiso   1.00
O363   O     0.83333   0.77321   0.12706   0.00000  Uiso   1.00
O364   O     0.83334   0.89346   0.20628   0.00000  Uiso   1.00
O365   O     0.75828   0.83334   0.19712   0.00000  Uiso   1.00
O366   O     0.90839   0.83333   0.13621   0.00000  Uiso   1.00
O367   O     0.75828   0.83333   0.11793   0.00000  Uiso   1.00
O368   O     0.90839   0.83334   0.21540   0.00000  Uiso   1.00
H369   H     0.99267   0.83344   0.11194   0.00000  Uiso   1.00
H370   H     0.67399   0.83320   0.22140   0.00000  Uiso   1.00
N371   N     0.78636   0.95892   0.08439   0.00000  Uiso   1.00
H372   H     0.80495   0.96785   0.05581   0.00000  Uiso   1.00
H373   H     0.74821   0.96906   0.07770   0.00000  Uiso   1.00
N374   N     0.88170   0.70817   0.24896   0.00000  Uiso   1.00
H375   H     0.91552   0.72143   0.24009   0.00000  Uiso   1.00
H376   H     0.89287   0.68726   0.27639   0.00000  Uiso   1.00
H377   H     0.77390   0.78863   0.03622   0.00000  Uiso   1.00
H378   H     0.89276   0.87804   0.29711   0.00000  Uiso   1.00
C379   C     0.16754   0.08741   0.50028   0.00000  Uiso   1.00
C380   C     0.16599   0.24593   0.49975   0.00000  Uiso   1.00
C381   C     0.06792   0.16665   0.48791   0.00000  Uiso   1.00
C382   C     0.26542   0.16667   0.51209   0.00000  Uiso   1.00
C383   C     0.01264   0.16668   0.48125   0.00000  Uiso   1.00
C384   C     0.32069   0.16662   0.51875   0.00000  Uiso   1.00
C385   C     0.14584   0.02214   0.46009   0.00000  Uiso   1.00
C386   C     0.18831   0.31114   0.54003   0.00000  Uiso   1.00
C387   C     0.14435   0.31278   0.45911   0.00000  Uiso   1.00
C388   C     0.19007   0.02062   0.54105   0.00000  Uiso   1.00
C389   C     0.16589   0.29055   0.49939   0.00000  Uiso   1.00
C390   C     0.16817   0.04279   0.50070   0.00000  Uiso   1.00
C391   C     0.13364   0.14188   0.35410   0.00000  Uiso   1.00
C392   C     0.19968   0.19146   0.64590   0.00000  Uiso   1.00
C393   C     0.13366   0.14188   0.63783   0.00000  Uiso   1.00
C394   C     0.19967   0.19146   0.36216   0.00000  Uiso   1.00
Cu395  Cu    0.16667   0.16667   0.54689   0.00000  Uiso   1.00
Cu396  Cu    0.16667   0.16666   0.45311   0.00000  Uiso   1.00
H397   H     0.12856   0.03916   0.42920   0.00000  Uiso   1.00
H398   H     0.20549   0.29381   0.57070   0.00000  Uiso   1.00
H399   H     0.10725   0.12199   0.61593   0.00000  Uiso   1.00
H400   H     0.22606   0.21136   0.38407   0.00000  Uiso   1.00
N401   N     0.16668   0.16668   0.61736   0.00000  Uiso   1.00
N402   N     0.16665   0.16666   0.38264   0.00000  Uiso   1.00
O403   O     0.16666   0.10655   0.53958   0.00000  Uiso   1.00
O404   O     0.16667   0.22678   0.46042   0.00000  Uiso   1.00
O405   O     0.16666   0.10654   0.46039   0.00000  Uiso   1.00
O406   O     0.16667   0.22679   0.53961   0.00000  Uiso   1.00
O407   O     0.09161   0.16667   0.53046   0.00000  Uiso   1.00
O408   O     0.24172   0.16666   0.46954   0.00000  Uiso   1.00
O409   O     0.09161   0.16666   0.45127   0.00000  Uiso   1.00
O410   O     0.24172   0.16667   0.54873   0.00000  Uiso   1.00
H411   H     0.32600   0.16677   0.44527   0.00000  Uiso   1.00
H412   H     0.00733   0.16653   0.55473   0.00000  Uiso   1.00
N413   N     0.11970   0.29226   0.41772   0.00000  Uiso   1.00
H414   H     0.13828   0.30118   0.38915   0.00000  Uiso   1.00
H415   H     0.08155   0.30239   0.41103   0.00000  Uiso   1.00
N416   N     0.21503   0.04151   0.58230   0.00000  Uiso   1.00
H417   H     0.24886   0.05476   0.57342   0.00000  Uiso   1.00
H418   H     0.22620   0.02060   0.60972   0.00000  Uiso   1.00
H419   H     0.10724   0.12197   0.36955   0.00000  Uiso   1.00
H420   H     0.22609   0.21137   0.63045   0.00000  Uiso   1.00
C421   C     0.50087   0.08741   0.50028   0.00000  Uiso   1.00
C422   C     0.49933   0.24593   0.49975   0.00000  Uiso   1.00
C423   C     0.40125   0.16665   0.48791   0.00000  Uiso   1.00
C424   C     0.59875   0.16667   0.51209   0.00000  Uiso   1.00
C425   C     0.34597   0.16668   0.48125   0.00000  Uiso   1.00
C426   C     0.65402   0.16662   0.51875   0.00000  Uiso   1.00
C427   C     0.47917   0.02214   0.46009   0.00000  Uiso   1.00
C428   C     0.52164   0.31114   0.54003   0.00000  Uiso   1.00
C429   C     0.47768   0.31278   0.45911   0.00000  Uiso   1.00
C430   C     0.52341   0.02062   0.54105   0.00000  Uiso   1.00
C431   C     0.49922   0.29055   0.49939   0.00000  Uiso   1.00
C432   C     0.50150   0.04279   0.50070   0.00000  Uiso   1.00
C433   C     0.46698   0.14188   0.35410   0.00000  Uiso   1.00
C434   C     0.53302   0.19146   0.64590   0.00000  Uiso   1.00
C435   C     0.46699   0.14188   0.63783   0.00000  Uiso   1.00
C436   C     0.53300   0.19146   0.36216   0.00000  Uiso   1.00
Cu437  Cu    0.50000   0.16667   0.54689   0.00000  Uiso   1.00
Cu438  Cu    0.50000   0.16666   0.45311   0.00000  Uiso   1.00
H439   H     0.46189   0.03916   0.42920   0.00000  Uiso   1.00
H440   H     0.53882   0.29381   0.57070   0.00000  Uiso   1.00
H441   H     0.44059   0.12199   0.61593   0.00000  Uiso   1.00
H442   H     0.55939   0.21136   0.38407   0.00000  Uiso   1.00
N443   N     0.50001   0.16668   0.61736   0.00000  Uiso   1.00
N444   N     0.49999   0.16666   0.38264   0.00000  Uiso   1.00
O445   O     0.50000   0.10655   0.53958   0.00000  Uiso   1.00
O446   O     0.50000   0.22678   0.46042   0.00000  Uiso   1.00
O447   O     0.50000   0.10654   0.46039   0.00000  Uiso   1.00
O448   O     0.50000   0.22679   0.53961   0.00000  Uiso   1.00
O449   O     0.42495   0.16667   0.53046   0.00000  Uiso   1.00
O450   O     0.57505   0.16666   0.46954   0.00000  Uiso   1.00
O451   O     0.42494   0.16666   0.45127   0.00000  Uiso   1.00
O452   O     0.57506   0.16667   0.54873   0.00000  Uiso   1.00
H453   H     0.65934   0.16677   0.44527   0.00000  Uiso   1.00
H454   H     0.34066   0.16653   0.55473   0.00000  Uiso   1.00
N455   N     0.45303   0.29226   0.41772   0.00000  Uiso   1.00
H456   H     0.47161   0.30118   0.38915   0.00000  Uiso   1.00
H457   H     0.41488   0.30239   0.41103   0.00000  Uiso   1.00
N458   N     0.54836   0.04151   0.58230   0.00000  Uiso   1.00
H459   H     0.58219   0.05476   0.57342   0.00000  Uiso   1.00
H460   H     0.55953   0.02060   0.60972   0.00000  Uiso   1.00
H461   H     0.44057   0.12197   0.36955   0.00000  Uiso   1.00
H462   H     0.55942   0.21137   0.63045   0.00000  Uiso   1.00
C463   C     0.83421   0.08741   0.50028   0.00000  Uiso   1.00
C464   C     0.83266   0.24593   0.49975   0.00000  Uiso   1.00
C465   C     0.73458   0.16665   0.48791   0.00000  Uiso   1.00
C466   C     0.93208   0.16667   0.51209   0.00000  Uiso   1.00
C467   C     0.67931   0.16668   0.48125   0.00000  Uiso   1.00
C468   C     0.98736   0.16662   0.51875   0.00000  Uiso   1.00
C469   C     0.81250   0.02214   0.46009   0.00000  Uiso   1.00
C470   C     0.85498   0.31114   0.54003   0.00000  Uiso   1.00
C471   C     0.81102   0.31278   0.45911   0.00000  Uiso   1.00
C472   C     0.85674   0.02062   0.54105   0.00000  Uiso   1.00
C473   C     0.83256   0.29055   0.49939   0.00000  Uiso   1.00
C474   C     0.83483   0.04279   0.50070   0.00000  Uiso   1.00
C475   C     0.80031   0.14188   0.35410   0.00000  Uiso   1.00
C476   C     0.86635   0.19146   0.64590   0.00000  Uiso   1.00
C477   C     0.80033   0.14188   0.63783   0.00000  Uiso   1.00
C478   C     0.86633   0.19146   0.36216   0.00000  Uiso   1.00
Cu479  Cu    0.83333   0.16667   0.54689   0.00000  Uiso   1.00
Cu480  Cu    0.83333   0.16666   0.45311   0.00000  Uiso   1.00
H481   H     0.79522   0.03916   0.42920   0.00000  Uiso   1.00
H482   H     0.87216   0.29381   0.57070   0.00000  Uiso   1.00
H483   H     0.77392   0.12199   0.61593   0.00000  Uiso   1.00
H484   H     0.89273   0.21136   0.38407   0.00000  Uiso   1.00
N485   N     0.83335   0.16668   0.61736   0.00000  Uiso   1.00
N486   N     0.83332   0.16666   0.38264   0.00000  Uiso   1.00
O487   O     0.83333   0.10655   0.53958   0.00000  Uiso   1.00
O488   O     0.83334   0.22678   0.46042   0.00000  Uiso   1.00
O489   O     0.83333   0.10654   0.46039   0.00000  Uiso   1.00
O490   O     0.83334   0.22679   0.53961   0.00000  Uiso   1.00
O491   O     0.75828   0.16667   0.53046   0.00000  Uiso   1.00
O492   O     0.90839   0.16666   0.46954   0.00000  Uiso   1.00
O493   O     0.75828   0.16666   0.45127   0.00000  Uiso   1.00
O494   O     0.90839   0.16667   0.54873   0.00000  Uiso   1.00
H495   H     0.99267   0.16677   0.44527   0.00000  Uiso   1.00
H496   H     0.67399   0.16653   0.55473   0.00000  Uiso   1.00
N497   N     0.78636   0.29226   0.41772   0.00000  Uiso   1.00
H498   H     0.80495   0.30118   0.38915   0.00000  Uiso   1.00
H499   H     0.74821   0.30239   0.41103   0.00000  Uiso   1.00
N500   N     0.88170   0.04151   0.58230   0.00000  Uiso   1.00
H501   H     0.91552   0.05476   0.57342   0.00000  Uiso   1.00
H502   H     0.89287   0.02060   0.60972   0.00000  Uiso   1.00
H503   H     0.77390   0.12197   0.36955   0.00000  Uiso   1.00
H504   H     0.89276   0.21137   0.63045   0.00000  Uiso   1.00
C505   C     0.16754   0.42074   0.50028   0.00000  Uiso   1.00
C506   C     0.16599   0.57926   0.49975   0.00000  Uiso   1.00
C507   C     0.06792   0.49999   0.48791   0.00000  Uiso   1.00
C508   C     0.26542   0.50000   0.51209   0.00000  Uiso   1.00
C509   C     0.01264   0.50001   0.48125   0.00000  Uiso   1.00
C510   C     0.32069   0.49995   0.51875   0.00000  Uiso   1.00
C511   C     0.14584   0.35548   0.46009   0.00000  Uiso   1.00
C512   C     0.18831   0.64447   0.54003   0.00000  Uiso   1.00
C513   C     0.14435   0.64611   0.45911   0.00000  Uiso   1.00
C514   C     0.19007   0.35395   0.54105   0.00000  Uiso   1.00
C515   C     0.16589   0.62388   0.49939   0.00000  Uiso   1.00
C516   C     0.16817   0.37612   0.50070   0.00000  Uiso   1.00
C517   C     0.13364   0.47521   0.35410   0.00000  Uiso   1.00
C518   C     0.19968   0.52480   0.64590   0.00000  Uiso   1.00
C519   C     0.13366   0.47522   0.63783   0.00000  Uiso   1.00
C520   C     0.19967   0.52479   0.36216   0.00000  Uiso   1.00
Cu521  Cu    0.16667   0.50001   0.54689   0.00000  Uiso   1.00
Cu522  Cu    0.16667   0.49999   0.45311   0.00000  Uiso   1.00
H523   H     0.12856   0.37250   0.42920   0.00000  Uiso   1.00
H524   H     0.20549   0.62715   0.57070   0.00000  Uiso   1.00
H525   H     0.10725   0.45532   0.61593   0.00000  Uiso   1.00
H526   H     0.22606   0.54469   0.38407   0.00000  Uiso   1.00
N527   N     0.16668   0.50001   0.61736   0.00000  Uiso   1.00
N528   N     0.16665   0.49999   0.38264   0.00000  Uiso   1.00
O529   O     0.16666   0.43989   0.53958   0.00000  Uiso   1.00
O530   O     0.16667   0.56011   0.46042   0.00000  Uiso   1.00
O531   O     0.16666   0.43988   0.46039   0.00000  Uiso   1.00
O532   O     0.16667   0.56012   0.53961   0.00000  Uiso   1.00
O533   O     0.09161   0.50000   0.53046   0.00000  Uiso   1.00
O534   O     0.24172   0.50000   0.46954   0.00000  Uiso   1.00
O535   O     0.09161   0.49999   0.45127   0.00000  Uiso   1.00
O536   O     0.24172   0.50001   0.54873   0.00000  Uiso   1.00
H537   H     0.32600   0.50010   0.44527   0.00000  Uiso   1.00
H538   H     0.00733   0.49986   0.55473   0.00000  Uiso   1.00
N539   N     0.11970   0.62559   0.41772   0.00000  Uiso   1.00
H540   H     0.13828   0.63451   0.38915   0.00000  Uiso   1.00
H541   H     0.08155   0.63573   0.41103   0.00000  Uiso   1.00
N542   N     0.21503   0.37484   0.58230   0.00000  Uiso   1.00
H543   H     0.24886   0.38810   0.57342   0.00000  Uiso   1.00
H544   H     0.22620   0.35393   0.60972   0.00000  Uiso   1.00
H545   H     0.10724   0.45530   0.36955   0.00000  Uiso   1.00
H546   H     0.22609   0.54471   0.63045   0.00000  Uiso   1.00
C547   C     0.50087   0.42074   0.50028   0.00000  Uiso   1.00
C548   C     0.49933   0.57926   0.49975   0.00000  Uiso   1.00
C549   C     0.40125   0.49999   0.48791   0.00000  Uiso   1.00
C550   C     0.59875   0.50000   0.51209   0.00000  Uiso   1.00
C551   C     0.34597   0.50001   0.48125   0.00000  Uiso   1.00
C552   C     0.65402   0.49995   0.51875   0.00000  Uiso   1.00
C553   C     0.47917   0.35548   0.46009   0.00000  Uiso   1.00
C554   C     0.52164   0.64447   0.54003   0.00000  Uiso   1.00
C555   C     0.47768   0.64611   0.45911   0.00000  Uiso   1.00
C556   C     0.52341   0.35395   0.54105   0.00000  Uiso   1.00
C557   C     0.49922   0.62388   0.49939   0.00000  Uiso   1.00
C558   C     0.50150   0.37612   0.50070   0.00000  Uiso   1.00
C559   C     0.46698   0.47521   0.35410   0.00000  Uiso   1.00
C560   C     0.53302   0.52480   0.64590   0.00000  Uiso   1.00
C561   C     0.46699   0.47522   0.63783   0.00000  Uiso   1.00
C562   C     0.53300   0.52479   0.36216   0.00000  Uiso   1.00
Cu563  Cu    0.50000   0.50001   0.54689   0.00000  Uiso   1.00
Cu564  Cu    0.50000   0.49999   0.45311   0.00000  Uiso   1.00
H565   H     0.46189   0.37250   0.42920   0.00000  Uiso   1.00
H566   H     0.53882   0.62715   0.57070   0.00000  Uiso   1.00
H567   H     0.44059   0.45532   0.61593   0.00000  Uiso   1.00
H568   H     0.55939   0.54469   0.38407   0.00000  Uiso   1.00
N569   N     0.50001   0.50001   0.61736   0.00000  Uiso   1.00
N570   N     0.49999   0.49999   0.38264   0.00000  Uiso   1.00
O571   O     0.50000   0.43989   0.53958   0.00000  Uiso   1.00
O572   O     0.50000   0.56011   0.46042   0.00000  Uiso   1.00
O573   O     0.50000   0.43988   0.46039   0.00000  Uiso   1.00
O574   O     0.50000   0.56012   0.53961   0.00000  Uiso   1.00
O575   O     0.42495   0.50000   0.53046   0.00000  Uiso   1.00
O576   O     0.57505   0.50000   0.46954   0.00000  Uiso   1.00
O577   O     0.42494   0.49999   0.45127   0.00000  Uiso   1.00
O578   O     0.57506   0.50001   0.54873   0.00000  Uiso   1.00
H579   H     0.65934   0.50010   0.44527   0.00000  Uiso   1.00
H580   H     0.34066   0.49986   0.55473   0.00000  Uiso   1.00
N581   N     0.45303   0.62559   0.41772   0.00000  Uiso   1.00
H582   H     0.47161   0.63451   0.38915   0.00000  Uiso   1.00
H583   H     0.41488   0.63573   0.41103   0.00000  Uiso   1.00
N584   N     0.54836   0.37484   0.58230   0.00000  Uiso   1.00
H585   H     0.58219   0.38810   0.57342   0.00000  Uiso   1.00
H586   H     0.55953   0.35393   0.60972   0.00000  Uiso   1.00
H587   H     0.44057   0.45530   0.36955   0.00000  Uiso   1.00
H588   H     0.55942   0.54471   0.63045   0.00000  Uiso   1.00
C589   C     0.83421   0.42074   0.50028   0.00000  Uiso   1.00
C590   C     0.83266   0.57926   0.49975   0.00000  Uiso   1.00
C591   C     0.73458   0.49999   0.48791   0.00000  Uiso   1.00
C592   C     0.93208   0.50000   0.51209   0.00000  Uiso   1.00
C593   C     0.67931   0.50001   0.48125   0.00000  Uiso   1.00
C594   C     0.98736   0.49995   0.51875   0.00000  Uiso   1.00
C595   C     0.81250   0.35548   0.46009   0.00000  Uiso   1.00
C596   C     0.85498   0.64447   0.54003   0.00000  Uiso   1.00
C597   C     0.81102   0.64611   0.45911   0.00000  Uiso   1.00
C598   C     0.85674   0.35395   0.54105   0.00000  Uiso   1.00
C599   C     0.83256   0.62388   0.49939   0.00000  Uiso   1.00
C600   C     0.83483   0.37612   0.50070   0.00000  Uiso   1.00
C601   C     0.80031   0.47521   0.35410   0.00000  Uiso   1.00
C602   C     0.86635   0.52480   0.64590   0.00000  Uiso   1.00
C603   C     0.80033   0.47522   0.63783   0.00000  Uiso   1.00
C604   C     0.86633   0.52479   0.36216   0.00000  Uiso   1.00
Cu605  Cu    0.83333   0.50001   0.54689   0.00000  Uiso   1.00
Cu606  Cu    0.83333   0.49999   0.45311   0.00000  Uiso   1.00
H607   H     0.79522   0.37250   0.42920   0.00000  Uiso   1.00
H608   H     0.87216   0.62715   0.57070   0.00000  Uiso   1.00
H609   H     0.77392   0.45532   0.61593   0.00000  Uiso   1.00
H610   H     0.89273   0.54469   0.38407   0.00000  Uiso   1.00
N611   N     0.83335   0.50001   0.61736   0.00000  Uiso   1.00
N612   N     0.83332   0.49999   0.38264   0.00000  Uiso   1.00
O613   O     0.83333   0.43989   0.53958   0.00000  Uiso   1.00
O614   O     0.83334   0.56011   0.46042   0.00000  Uiso   1.00
O615   O     0.83333   0.43988   0.46039   0.00000  Uiso   1.00
O616   O     0.83334   0.56012   0.53961   0.00000  Uiso   1.00
O617   O     0.75828   0.50000   0.53046   0.00000  Uiso   1.00
O618   O     0.90839   0.50000   0.46954   0.00000  Uiso   1.00
O619   O     0.75828   0.49999   0.45127   0.00000  Uiso   1.00
O620   O     0.90839   0.50001   0.54873   0.00000  Uiso   1.00
H621   H     0.99267   0.50010   0.44527   0.00000  Uiso   1.00
H622   H     0.67399   0.49986   0.55473   0.00000  Uiso   1.00
N623   N     0.78636   0.62559   0.41772   0.00000  Uiso   1.00
H624   H     0.80495   0.63451   0.38915   0.00000  Uiso   1.00
H625   H     0.74821   0.63573   0.41103   0.00000  Uiso   1.00
N626   N     0.88170   0.37484   0.58230   0.00000  Uiso   1.00
H627   H     0.91552   0.38810   0.57342   0.00000  Uiso   1.00
H628   H     0.89287   0.35393   0.60972   0.00000  Uiso   1.00
H629   H     0.77390   0.45530   0.36955   0.00000  Uiso   1.00
H630   H     0.89276   0.54471   0.63045   0.00000  Uiso   1.00
C631   C     0.16754   0.75408   0.50028   0.00000  Uiso   1.00
C632   C     0.16599   0.91259   0.49975   0.00000  Uiso   1.00
C633   C     0.06792   0.83332   0.48791   0.00000  Uiso   1.00
C634   C     0.26542   0.83333   0.51209   0.00000  Uiso   1.00
C635   C     0.01264   0.83335   0.48125   0.00000  Uiso   1.00
C636   C     0.32069   0.83329   0.51875   0.00000  Uiso   1.00
C637   C     0.14584   0.68881   0.46009   0.00000  Uiso   1.00
C638   C     0.18831   0.97781   0.54003   0.00000  Uiso   1.00
C639   C     0.14435   0.97945   0.45911   0.00000  Uiso   1.00
C640   C     0.19007   0.68728   0.54105   0.00000  Uiso   1.00
C641   C     0.16589   0.95721   0.49939   0.00000  Uiso   1.00
C642   C     0.16817   0.70945   0.50070   0.00000  Uiso   1.00
C643   C     0.13364   0.80854   0.35410   0.00000  Uiso   1.00
C644   C     0.19968   0.85813   0.64590   0.00000  Uiso   1.00
C645   C     0.13366   0.80855   0.63783   0.00000  Uiso   1.00
C646   C     0.19967   0.85812   0.36216   0.00000  Uiso   1.00
Cu647  Cu    0.16667   0.83334   0.54689   0.00000  Uiso   1.00
Cu648  Cu    0.16667   0.83333   0.45311   0.00000  Uiso   1.00
H649   H     0.12856   0.70583   0.42920   0.00000  Uiso   1.00
H650   H     0.20549   0.96048   0.57070   0.00000  Uiso   1.00
H651   H     0.10725   0.78866   0.61593   0.00000  Uiso   1.00
H652   H     0.22606   0.87802   0.38407   0.00000  Uiso   1.00
N653   N     0.16668   0.83334   0.61736   0.00000  Uiso   1.00
N654   N     0.16665   0.83332   0.38264   0.00000  Uiso   1.00
O655   O     0.16666   0.77322   0.53958   0.00000  Uiso   1.00
O656   O     0.16667   0.89345   0.46042   0.00000  Uiso   1.00
O657   O     0.16666   0.77321   0.46039   0.00000  Uiso   1.00
O658   O     0.16667   0.89346   0.53961   0.00000  Uiso   1.00
O659   O     0.09161   0.83334   0.53046   0.00000  Uiso   1.00
O660   O     0.24172   0.83333   0.46954   0.00000  Uiso   1.00
O661   O     0.09161   0.83333   0.45127   0.00000  Uiso   1.00
O662   O     0.24172   0.83334   0.54873   0.00000  Uiso   1.00
H663   H     0.32600   0.83344   0.44527   0.00000  Uiso   1.00
H664   H     0.00733   0.83320   0.55473   0.00000  Uiso   1.00
N665   N     0.11970   0.95892   0.41772   0.00000  Uiso   1.00
H666   H     0.13828   0.96785   0.38915   0.00000  Uiso   1.00
H667   H     0.08155   0.96906   0.41103   0.00000  Uiso   1.00
N668   N     0.21503   0.70817   0.58230   0.00000  Uiso   1.00
H669   H     0.24886   0.72143   0.57342   0.00000  Uiso   1.00
H670   H     0.22620   0.68726   0.60972   0.00000  Uiso   1.00
H671   H     0.10724   0.78863   0.36955   0.00000  Uiso   1.00
H672   H     0.22609   0.87804   0.63045   0.00000  Uiso   1.00
C673   C     0.50087   0.75408   0.50028   0.00000  Uiso   1.00
C674   C     0.49933   0.91259   0.49975   0.00000  Uiso   1.00
C675   C     0.40125   0.83332   0.48791   0.00000  Uiso   1.00
C676   C     0.59875   0.83333   0.51209   0.00000  Uiso   1.00
C677   C     0.34597   0.83335   0.48125   0.00000  Uiso   1.00
C678   C     0.65402   0.83329   0.51875   0.00000  Uiso   1.00
C679   C     0.47917   0.68881   0.46009   0.00000  Uiso   1.00
C680   C     0.52164   0.97781   0.54003   0.00000  Uiso   1.00
C681   C     0.47768   0.97945   0.45911   0.00000  Uiso   1.00
C682   C     0.52341   0.68728   0.54105   0.00000  Uiso   1.00
C683   C     0.49922   0.95721   0.49939   0.00000  Uiso   1.00
C684   C     0.50150   0.70945   0.50070   0.00000  Uiso   1.00
C685   C     0.46698   0.80854   0.35410   0.00000  Uiso   1.00
C686   C     0.53302   0.85813   0.64590   0.00000  Uiso   1.00
C687   C     0.46699   0.80855   0.63783   0.00000  Uiso   1.00
C688   C     0.53300   0.85812   0.36216   0.00000  Uiso   1.00
Cu689  Cu    0.50000   0.83334   0.54689   0.00000  Uiso   1.00
Cu690  Cu    0.50000   0.83333   0.45311   0.00000  Uiso   1.00
H691   H     0.46189   0.70583   0.42920   0.00000  Uiso   1.00
H692   H     0.53882   0.96048   0.57070   0.00000  Uiso   1.00
H693   H     0.44059   0.78866   0.61593   0.00000  Uiso   1.00
H694   H     0.55939   0.87802   0.38407   0.00000  Uiso   1.00
N695   N     0.50001   0.83334   0.61736   0.00000  Uiso   1.00
N696   N     0.49999   0.83332   0.38264   0.00000  Uiso   1.00
O697   O     0.50000   0.77322   0.53958   0.00000  Uiso   1.00
O698   O     0.50000   0.89345   0.46042   0.00000  Uiso   1.00
O699   O     0.50000   0.77321   0.46039   0.00000  Uiso   1.00
O700   O     0.50000   0.89346   0.53961   0.00000  Uiso   1.00
O701   O     0.42495   0.83334   0.53046   0.00000  Uiso   1.00
O702   O     0.57505   0.83333   0.46954   0.00000  Uiso   1.00
O703   O     0.42494   0.83333   0.45127   0.00000  Uiso   1.00
O704   O     0.57506   0.83334   0.54873   0.00000  Uiso   1.00
H705   H     0.65934   0.83344   0.44527   0.00000  Uiso   1.00
H706   H     0.34066   0.83320   0.55473   0.00000  Uiso   1.00
N707   N     0.45303   0.95892   0.41772   0.00000  Uiso   1.00
H708   H     0.47161   0.96785   0.38915   0.00000  Uiso   1.00
H709   H     0.41488   0.96906   0.41103   0.00000  Uiso   1.00
N710   N     0.54836   0.70817   0.58230   0.00000  Uiso   1.00
H711   H     0.58219   0.72143   0.57342   0.00000  Uiso   1.00
H712   H     0.55953   0.68726   0.60972   0.00000  Uiso   1.00
H713   H     0.44057   0.78863   0.36955   0.00000  Uiso   1.00
H714   H     0.55942   0.87804   0.63045   0.00000  Uiso   1.00
C715   C     0.83421   0.75408   0.50028   0.00000  Uiso   1.00
C716   C     0.83266   0.91259   0.49975   0.00000  Uiso   1.00
C717   C     0.73458   0.83332   0.48791   0.00000  Uiso   1.00
C718   C     0.93208   0.83333   0.51209   0.00000  Uiso   1.00
C719   C     0.67931   0.83335   0.48125   0.00000  Uiso   1.00
C720   C     0.98736   0.83329   0.51875   0.00000  Uiso   1.00
C721   C     0.81250   0.68881   0.46009   0.00000  Uiso   1.00
C722   C     0.85498   0.97781   0.54003   0.00000  Uiso   1.00
C723   C     0.81102   0.97945   0.45911   0.00000  Uiso   1.00
C724   C     0.85674   0.68728   0.54105   0.00000  Uiso   1.00
C725   C     0.83256   0.95721   0.49939   0.00000  Uiso   1.00
C726   C     0.83483   0.70945   0.50070   0.00000  Uiso   1.00
C727   C     0.80031   0.80854   0.35410   0.00000  Uiso   1.00
C728   C     0.86635   0.85813   0.64590   0.00000  Uiso   1.00
C729   C     0.80033   0.80855   0.63783   0.00000  Uiso   1.00
C730   C     0.86633   0.85812   0.36216   0.00000  Uiso   1.00
Cu731  Cu    0.83333   0.83334   0.54689   0.00000  Uiso   1.00
Cu732  Cu    0.83333   0.83333   0.45311   0.00000  Uiso   1.00
H733   H     0.79522   0.70583   0.42920   0.00000  Uiso   1.00
H734   H     0.87216   0.96048   0.57070   0.00000  Uiso   1.00
H735   H     0.77392   0.78866   0.61593   0.00000  Uiso   1.00
H736   H     0.89273   0.87802   0.38407   0.00000  Uiso   1.00
N737   N     0.83335   0.83334   0.61736   0.00000  Uiso   1.00
N738   N     0.83332   0.83332   0.38264   0.00000  Uiso   1.00
O739   O     0.83333   0.77322   0.53958   0.00000  Uiso   1.00
O740   O     0.83334   0.89345   0.46042   0.00000  Uiso   1.00
O741   O     0.83333   0.77321   0.46039   0.00000  Uiso   1.00
O742   O     0.83334   0.89346   0.53961   0.00000  Uiso   1.00
O743   O     0.75828   0.83334   0.53046   0.00000  Uiso   1.00
O744   O     0.90839   0.83333   0.46954   0.00000  Uiso   1.00
O745   O     0.75828   0.83333   0.45127   0.00000  Uiso   1.00
O746   O     0.90839   0.83334   0.54873   0.00000  Uiso   1.00
H747   H     0.99267   0.83344   0.44527   0.00000  Uiso   1.00
H748   H     0.67399   0.83320   0.55473   0.00000  Uiso   1.00
N749   N     0.78636   0.95892   0.41772   0.00000  Uiso   1.00
H750   H     0.80495   0.96785   0.38915   0.00000  Uiso   1.00
H751   H     0.74821   0.96906   0.41103   0.00000  Uiso   1.00
N752   N     0.88170   0.70817   0.58230   0.00000  Uiso   1.00
H753   H     0.91552   0.72143   0.57342   0.00000  Uiso   1.00
H754   H     0.89287   0.68726   0.60972   0.00000  Uiso   1.00
H755   H     0.77390   0.78863   0.36955   0.00000  Uiso   1.00
H756   H     0.89276   0.87804   0.63045   0.00000  Uiso   1.00
C757   C     0.16754   0.08741   0.83361   0.00000  Uiso   1.00
C758   C     0.16599   0.24593   0.83308   0.00000  Uiso   1.00
C759   C     0.06792   0.16665   0.82124   0.00000  Uiso   1.00
C760   C     0.26542   0.16667   0.84542   0.00000  Uiso   1.00
C761   C     0.01264   0.16668   0.81458   0.00000  Uiso   1.00
C762   C     0.32069   0.16662   0.85209   0.00000  Uiso   1.00
C763   C     0.14584   0.02214   0.79342   0.00000  Uiso   1.00
C764   C     0.18831   0.31114   0.87336   0.00000  Uiso   1.00
C765   C     0.14435   0.31278   0.79244   0.00000  Uiso   1.00
C766   C     0.19007   0.02062   0.87439   0.00000  Uiso   1.00
C767   C     0.16589   0.29055   0.83273   0.00000  Uiso   1.00
C768   C     0.16817   0.04279   0.83404   0.00000  Uiso   1.00
C769   C     0.13364   0.14188   0.68743   0.00000  Uiso   1.00
C770   C     0.19968   0.19146   0.97923   0.00000  Uiso   1.00
C771   C     0.13366   0.14188   0.97117   0.00000  Uiso   1.00
C772   C     0.19967   0.19146   0.69550   0.00000  Uiso   1.00
Cu773  Cu    0.16667   0.16667   0.88022   0.00000  Uiso   1.00
Cu774  Cu    0.16667   0.16666   0.78645   0.00000  Uiso   1.00
H775   H     0.12856   0.03916   0.76253   0.00000  Uiso   1.00
H776   H     0.20549   0.29381   0.90403   0.00000  Uiso   1.00
H777   H     0.10725   0.12199   0.94926   0.00000  Uiso   1.00
H778   H     0.22606   0.21136   0.71740   0.00000  Uiso   1.00
N779   N     0.16668   0.16668   0.95069   0.00000  Uiso   1.00
N780   N     0.16665   0.16666   0.71597   0.00000  Uiso   1.00
O781   O     0.16666   0.10655   0.87291   0.00000  Uiso   1.00
O782   O     0.16667   0.22678   0.79375   0.00000  Uiso   1.00
O783   O     0.16666   0.10654   0.79372   0.00000  Uiso   1.00
O784   O     0.16667   0.22679   0.87294   0.00000  Uiso   1.00
O785   O     0.09161   0.16667   0.86379   0.00000  Uiso   1.00
O786   O     0.24172   0.16666   0.80288   0.00000  Uiso   1.00
O787   O     0.09161   0.16666   0.78460   0.00000  Uiso   1.00
O788   O     0.24172   0.16667   0.88207   0.00000  Uiso   1.00
H789   H     0.32600   0.16677   0.77860   0.00000  Uiso   1.00
H790   H     0.00733   0.16653   0.88807   0.00000  Uiso   1.00
N791   N     0.11970   0.29226   0.75105   0.00000  Uiso   1.00
H792   H     0.13828   0.30118   0.72248   0.00000  Uiso   1.00
H793   H     0.08155   0.30239   0.74437   0.00000  Uiso   1.00
N794   N     0.21503   0.04151   0.91563   0.00000  Uiso   1.00
H795   H     0.24886   0.05476   0.90675   0.00000  Uiso   1.00
H796   H     0.22620   0.02060   0.94305   0.00000  Uiso   1.00
H797   H     0.10724   0.12197   0.70289   0.00000  Uiso   1.00
H798   H     0.22609   0.21137   0.96378   0.00000  Uiso   1.00
C799   C     0.50087   0.08741   0.83361   0.00000  Uiso   1.00
C800   C     0.49933   0.24593   0.83308   0.00000  Uiso   1.00
C801   C     0.40125   0.16665   0.82124   0.00000  Uiso   1.00
C802   C     0.59875   0.16667   0.84542   0.00000  Uiso   1.00
C803   C     0.34597   0.16668   0.81458   0.00000  Uiso   1.00
C804   C     0.65402   0.16662   0.85209   0.00000  Uiso   1.00
C805   C     0.47917   0.02214   0.79342   0.00000  Uiso   1.00
C806   C     0.52164   0.31114   0.87336   0.00000  Uiso   1.00
C807   C     0.47768   0.31278   0.79244   0.00000  Uiso   1.00
C808   C     0.52341   0.02062   0.87439   0.00000  Uiso   1.00
C809   C     0.49922   0.29055   0.83273   0.00000  Uiso   1.00
C810   C     0.50150   0.04279   0.83404   0.00000  Uiso   1.00
C811   C     0.46698   0.14188   0.68743   0.00000  Uiso   1.00
C812   C     0.53302   0.19146   0.97923   0.00000  Uiso   1.00
C813   C     0.46699   0.14188   0.97117   0.00000  Uiso   1.00
C814   C     0.53300   0.19146   0.69550   0.00000  Uiso   1.00
Cu815  Cu    0.50000   0.16667   0.88022   0.00000  Uiso   1.00
Cu816  Cu    0.50000   0.16666   0.78645   0.00000  Uiso   1.00
H817   H     0.46189   0.03916   0.76253   0.00000  Uiso   1.00
H818   H     0.53882   0.29381   0.90403   0.00000  Uiso   1.00
H819   H     0.44059   0.12199   0.94926   0.00000  Uiso   1.00
H820   H     0.55939   0.21136   0.71740   0.00000  Uiso   1.00
N821   N     0.50001   0.16668   0.95069   0.00000  Uiso   1.00
N822   N     0.49999   0.16666   0.71597   0.00000  Uiso   1.00
O823   O     0.50000   0.10655   0.87291   0.00000  Uiso   1.00
O824   O     0.50000   0.22678   0.79375   0.00000  Uiso   1.00
O825   O     0.50000   0.10654   0.79372   0.00000  Uiso   1.00
O826   O     0.50000   0.22679   0.87294   0.00000  Uiso   1.00
O827   O     0.42495   0.16667   0.86379   0.00000  Uiso   1.00
O828   O     0.57505   0.16666   0.80288   0.00000  Uiso   1.00
O829   O     0.42494   0.16666   0.78460   0.00000  Uiso   1.00
O830   O     0.57506   0.16667   0.88207   0.00000  Uiso   1.00
H831   H     0.65934   0.16677   0.77860   0.00000  Uiso   1.00
H832   H     0.34066   0.16653   0.88807   0.00000  Uiso   1.00
N833   N     0.45303   0.29226   0.75105   0.00000  Uiso   1.00
H834   H     0.47161   0.30118   0.72248   0.00000  Uiso   1.00
H835   H     0.41488   0.30239   0.74437   0.00000  Uiso   1.00
N836   N     0.54836   0.04151   0.91563   0.00000  Uiso   1.00
H837   H     0.58219   0.05476   0.90675   0.00000  Uiso   1.00
H838   H     0.55953   0.02060   0.94305   0.00000  Uiso   1.00
H839   H     0.44057   0.12197   0.70289   0.00000  Uiso   1.00
H840   H     0.55942   0.21137   0.96378   0.00000  Uiso   1.00
C841   C     0.83421   0.08741   0.83361   0.00000  Uiso   1.00
C842   C     0.83266   0.24593   0.83308   0.00000  Uiso   1.00
C843   C     0.73458   0.16665   0.82124   0.00000  Uiso   1.00
C844   C     0.93208   0.16667   0.84542   0.00000  Uiso   1.00
C845   C     0.67931   0.16668   0.81458   0.00000  Uiso   1.00
C846   C     0.98736   0.16662   0.85209   0.00000  Uiso   1.00
C847   C     0.81250   0.02214   0.79342   0.00000  Uiso   1.00
C848   C     0.85498   0.31114   0.87336   0.00000  Uiso   1.00
C849   C     0.81102   0.31278   0.79244   0.00000  Uiso   1.00
C850   C     0.85674   0.02062   0.87439   0.00000  Uiso   1.00
C851   C     0.83256   0.29055   0.83273   0.00000  Uiso   1.00
C852   C     0.83483   0.04279   0.83404   0.00000  Uiso   1.00
C853   C     0.80031   0.14188   0.68743   0.00000  Uiso   1.00
C854   C     0.86635   0.19146   0.97923   0.00000  Uiso   1.00
C855   C     0.80033   0.14188   0.97117   0.00000  Uiso   1.00
C856   C     0.86633   0.19146   0.69550   0.00000  Uiso   1.00
Cu857  Cu    0.83333   0.16667   0.88022   0.00000  Uiso   1.00
Cu858  Cu    0.83333   0.16666   0.78645   0.00000  Uiso   1.00
H859   H     0.79522   0.03916   0.76253   0.00000  Uiso   1.00
H860   H     0.87216   0.29381   0.90403   0.00000  Uiso   1.00
H861   H     0.77392   0.12199   0.94926   0.00000  Uiso   1.00
H862   H     0.89273   0.21136   0.71740   0.00000  Uiso   1.00
N863   N     0.83335   0.16668   0.95069   0.00000  Uiso   1.00
N864   N     0.83332   0.16666   0.71597   0.00000  Uiso   1.00
O865   O     0.83333   0.10655   0.87291   0.00000  Uiso   1.00
O866   O     0.83334   0.22678   0.79375   0.00000  Uiso   1.00
O867   O     0.83333   0.10654   0.79372   0.00000  Uiso   1.00
O868   O     0.83334   0.22679   0.87294   0.00000  Uiso   1.00
O869   O     0.75828   0.16667   0.86379   0.00000  Uiso   1.00
O870   O     0.90839   0.16666   0.80288   0.00000  Uiso   1.00
O871   O     0.75828   0.16666   0.78460   0.00000  Uiso   1.00
O872   O     0.90839   0.16667   0.88207   0.00000  Uiso   1.00
H873   H     0.99267   0.16677   0.77860   0.00000  Uiso   1.00
H874   H     0.67399   0.16653   0.88807   0.00000  Uiso   1.00
N875   N     0.78636   0.29226   0.75105   0.00000  Uiso   1.00
H876   H     0.80495   0.30118   0.72248   0.00000  Uiso   1.00
H877   H     0.74821   0.30239   0.74437   0.00000  Uiso   1.00
N878   N     0.88170   0.04151   0.91563   0.00000  Uiso   1.00
H879   H     0.91552   0.05476   0.90675   0.00000  Uiso   1.00
H880   H     0.89287   0.02060   0.94305   0.00000  Uiso   1.00
H881   H     0.77390   0.12197   0.70289   0.00000  Uiso   1.00
H882   H     0.89276   0.21137   0.96378   0.00000  Uiso   1.00
C883   C     0.16754   0.42074   0.83361   0.00000  Uiso   1.00
C884   C     0.16599   0.57926   0.83308   0.00000  Uiso   1.00
C885   C     0.06792   0.49999   0.82124   0.00000  Uiso   1.00
C886   C     0.26542   0.50000   0.84542   0.00000  Uiso   1.00
C887   C     0.01264   0.50001   0.81458   0.00000  Uiso   1.00
C888   C     0.32069   0.49995   0.85209   0.00000  Uiso   1.00
C889   C     0.14584   0.35548   0.79342   0.00000  Uiso   1.00
C890   C     0.18831   0.64447   0.87336   0.00000  Uiso   1.00
C891   C     0.14435   0.64611   0.79244   0.00000  Uiso   1.00
C892   C     0.19007   0.35395   0.87439   0.00000  Uiso   1.00
C893   C     0.16589   0.62388   0.83273   0.00000  Uiso   1.00
C894   C     0.16817   0.37612   0.83404   0.00000  Uiso   1.00
C895   C     0.13364   0.47521   0.68743   0.00000  Uiso   1.00
C896   C     0.19968   0.52480   0.97923   0.00000  Uiso   1.00
C897   C     0.13366   0.47522   0.97117   0.00000  Uiso   1.00
C898   C     0.19967   0.52479   0.69550   0.00000  Uiso   1.00
Cu899  Cu    0.16667   0.50001   0.88022   0.00000  Uiso   1.00
Cu900  Cu    0.16667   0.49999   0.78645   0.00000  Uiso   1.00
H901   H     0.12856   0.37250   0.76253   0.00000  Uiso   1.00
H902   H     0.20549   0.62715   0.90403   0.00000  Uiso   1.00
H903   H     0.10725   0.45532   0.94926   0.00000  Uiso   1.00
H904   H     0.22606   0.54469   0.71740   0.00000  Uiso   1.00
N905   N     0.16668   0.50001   0.95069   0.00000  Uiso   1.00
N906   N     0.16665   0.49999   0.71597   0.00000  Uiso   1.00
O907   O     0.16666   0.43989   0.87291   0.00000  Uiso   1.00
O908   O     0.16667   0.56011   0.79375   0.00000  Uiso   1.00
O909   O     0.16666   0.43988   0.79372   0.00000  Uiso   1.00
O910   O     0.16667   0.56012   0.87294   0.00000  Uiso   1.00
O911   O     0.09161   0.50000   0.86379   0.00000  Uiso   1.00
O912   O     0.24172   0.50000   0.80288   0.00000  Uiso   1.00
O913   O     0.09161   0.49999   0.78460   0.00000  Uiso   1.00
O914   O     0.24172   0.50001   0.88207   0.00000  Uiso   1.00
H915   H     0.32600   0.50010   0.77860   0.00000  Uiso   1.00
H916   H     0.00733   0.49986   0.88807   0.00000  Uiso   1.00
N917   N     0.11970   0.62559   0.75105   0.00000  Uiso   1.00
H918   H     0.13828   0.63451   0.72248   0.00000  Uiso   1.00
H919   H     0.08155   0.63573   0.74437   0.00000  Uiso   1.00
N920   N     0.21503   0.37484   0.91563   0.00000  Uiso   1.00
H921   H     0.24886   0.38810   0.90675   0.00000  Uiso   1.00
H922   H     0.22620   0.35393   0.94305   0.00000  Uiso   1.00
H923   H     0.10724   0.45530   0.70289   0.00000  Uiso   1.00
H924   H     0.22609   0.54471   0.96378   0.00000  Uiso   1.00
C925   C     0.50087   0.42074   0.83361   0.00000  Uiso   1.00
C926   C     0.49933   0.57926   0.83308   0.00000  Uiso   1.00
C927   C     0.40125   0.49999   0.82124   0.00000  Uiso   1.00
C928   C     0.59875   0.50000   0.84542   0.00000  Uiso   1.00
C929   C     0.34597   0.50001   0.81458   0.00000  Uiso   1.00
C930   C     0.65402   0.49995   0.85209   0.00000  Uiso   1.00
C931   C     0.47917   0.35548   0.79342   0.00000  Uiso   1.00
C932   C     0.52164   0.64447   0.87336   0.00000  Uiso   1.00
C933   C     0.47768   0.64611   0.79244   0.00000  Uiso   1.00
C934   C     0.52341   0.35395   0.87439   0.00000  Uiso   1.00
C935   C     0.49922   0.62388   0.83273   0.00000  Uiso   1.00
C936   C     0.50150   0.37612   0.83404   0.00000  Uiso   1.00
C937   C     0.46698   0.47521   0.68743   0.00000  Uiso   1.00
C938   C     0.53302   0.52480   0.97923   0.00000  Uiso   1.00
C939   C     0.46699   0.47522   0.97117   0.00000  Uiso   1.00
C940   C     0.53300   0.52479   0.69550   0.00000  Uiso   1.00
Cu941  Cu    0.50000   0.50001   0.88022   0.00000  Uiso   1.00
Cu942  Cu    0.50000   0.49999   0.78645   0.00000  Uiso   1.00
H943   H     0.46189   0.37250   0.76253   0.00000  Uiso   1.00
H944   H     0.53882   0.62715   0.90403   0.00000  Uiso   1.00
H945   H     0.44059   0.45532   0.94926   0.00000  Uiso   1.00
H946   H     0.55939   0.54469   0.71740   0.00000  Uiso   1.00
N947   N     0.50001   0.50001   0.95069   0.00000  Uiso   1.00
N948   N     0.49999   0.49999   0.71597   0.00000  Uiso   1.00
O949   O     0.50000   0.43989   0.87291   0.00000  Uiso   1.00
O950   O     0.50000   0.56011   0.79375   0.00000  Uiso   1.00
O951   O     0.50000   0.43988   0.79372   0.00000  Uiso   1.00
O952   O     0.50000   0.56012   0.87294   0.00000  Uiso   1.00
O953   O     0.42495   0.50000   0.86379   0.00000  Uiso   1.00
O954   O     0.57505   0.50000   0.80288   0.00000  Uiso   1.00
O955   O     0.42494   0.49999   0.78460   0.00000  Uiso   1.00
O956   O     0.57506   0.50001   0.88207   0.00000  Uiso   1.00
H957   H     0.65934   0.50010   0.77860   0.00000  Uiso   1.00
H958   H     0.34066   0.49986   0.88807   0.00000  Uiso   1.00
N959   N     0.45303   0.62559   0.75105   0.00000  Uiso   1.00
H960   H     0.47161   0.63451   0.72248   0.00000  Uiso   1.00
H961   H     0.41488   0.63573   0.74437   0.00000  Uiso   1.00
N962   N     0.54836   0.37484   0.91563   0.00000  Uiso   1.00
H963   H     0.58219   0.38810   0.90675   0.00000  Uiso   1.00
H964   H     0.55953   0.35393   0.94305   0.00000  Uiso   1.00
H965   H     0.44057   0.45530   0.70289   0.00000  Uiso   1.00
H966   H     0.55942   0.54471   0.96378   0.00000  Uiso   1.00
C967   C     0.83421   0.42074   0.83361   0.00000  Uiso   1.00
C968   C     0.83266   0.57926   0.83308   0.00000  Uiso   1.00
C969   C     0.73458   0.49999   0.82124   0.00000  Uiso   1.00
C970   C     0.93208   0.50000   0.84542   0.00000  Uiso   1.00
C971   C     0.67931   0.50001   0.81458   0.00000  Uiso   1.00
C972   C     0.98736   0.49995   0.85209   0.00000  Uiso   1.00
C973   C     0.81250   0.35548   0.79342   0.00000  Uiso   1.00
C974   C     0.85498   0.64447   0.87336   0.00000  Uiso   1.00
C975   C     0.81102   0.64611   0.79244   0.00000  Uiso   1.00
C976   C     0.85674   0.35395   0.87439   0.00000  Uiso   1.00
C977   C     0.83256   0.62388   0.83273   0.00000  Uiso   1.00
C978   C     0.83483   0.37612   0.83404   0.00000  Uiso   1.00
C979   C     0.80031   0.47521   0.68743   0.00000  Uiso   1.00
C980   C     0.86635   0.52480   0.97923   0.00000  Uiso   1.00
C981   C     0.80033   0.47522   0.97117   0.00000  Uiso   1.00
C982   C     0.86633   0.52479   0.69550   0.00000  Uiso   1.00
Cu983  Cu    0.83333   0.50001   0.88022   0.00000  Uiso   1.00
Cu984  Cu    0.83333   0.49999   0.78645   0.00000  Uiso   1.00
H985   H     0.79522   0.37250   0.76253   0.00000  Uiso   1.00
H986   H     0.87216   0.62715   0.90403   0.00000  Uiso   1.00
H987   H     0.77392   0.45532   0.94926   0.00000  Uiso   1.00
H988   H     0.89273   0.54469   0.71740   0.00000  Uiso   1.00
N989   N     0.83335   0.50001   0.95069   0.00000  Uiso   1.00
N990   N     0.83332   0.49999   0.71597   0.00000  Uiso   1.00
O991   O     0.83333   0.43989   0.87291   0.00000  Uiso   1.00
O992   O     0.83334   0.56011   0.79375   0.00000  Uiso   1.00
O993   O     0.83333   0.43988   0.79372   0.00000  Uiso   1.00
O994   O     0.83334   0.56012   0.87294   0.00000  Uiso   1.00
O995   O     0.75828   0.50000   0.86379   0.00000  Uiso   1.00
O996   O     0.90839   0.50000   0.80288   0.00000  Uiso   1.00
O997   O     0.75828   0.49999   0.78460   0.00000  Uiso   1.00
O998   O     0.90839   0.50001   0.88207   0.00000  Uiso   1.00
H999   H     0.99267   0.50010   0.77860   0.00000  Uiso   1.00
H1000  H     0.67399   0.49986   0.88807   0.00000  Uiso   1.00
N1001  N     0.78636   0.62559   0.75105   0.00000  Uiso   1.00
H1002  H     0.80495   0.63451   0.72248   0.00000  Uiso   1.00
H1003  H     0.74821   0.63573   0.74437   0.00000  Uiso   1.00
N1004  N     0.88170   0.37484   0.91563   0.00000  Uiso   1.00
H1005  H     0.91552   0.38810   0.90675   0.00000  Uiso   1.00
H1006  H     0.89287   0.35393   0.94305   0.00000  Uiso   1.00
H1007  H     0.77390   0.45530   0.70289   0.00000  Uiso   1.00
H1008  H     0.89276   0.54471   0.96378   0.00000  Uiso   1.00
C1009  C     0.16754   0.75408   0.83361   0.00000  Uiso   1.00
C1010  C     0.16599   0.91259   0.83308   0.00000  Uiso   1.00
C1011  C     0.06792   0.83332   0.82124   0.00000  Uiso   1.00
C1012  C     0.26542   0.83333   0.84542   0.00000  Uiso   1.00
C1013  C     0.01264   0.83335   0.81458   0.00000  Uiso   1.00
C1014  C     0.32069   0.83329   0.85209   0.00000  Uiso   1.00
C1015  C     0.14584   0.68881   0.79342   0.00000  Uiso   1.00
C1016  C     0.18831   0.97781   0.87336   0.00000  Uiso   1.00
C1017  C     0.14435   0.97945   0.79244   0.00000  Uiso   1.00
C1018  C     0.19007   0.68728   0.87439   0.00000  Uiso   1.00
C1019  C     0.16589   0.95721   0.83273   0.00000  Uiso   1.00
C1020  C     0.16817   0.70945   0.83404   0.00000  Uiso   1.00
C1021  C     0.13364   0.80854   0.68743   0.00000  Uiso   1.00
C1022  C     0.19968   0.85813   0.97923   0.00000  Uiso   1.00
C1023  C     0.13366   0.80855   0.97117   0.00000  Uiso   1.00
C1024  C     0.19967   0.85812   0.69550   0.00000  Uiso   1.00
Cu1025 Cu    0.16667   0.83334   0.88022   0.00000  Uiso   1.00
Cu1026 Cu    0.16667   0.83333   0.78645   0.00000  Uiso   1.00
H1027  H     0.12856   0.70583   0.76253   0.00000  Uiso   1.00
H1028  H     0.20549   0.96048   0.90403   0.00000  Uiso   1.00
H1029  H     0.10725   0.78866   0.94926   0.00000  Uiso   1.00
H1030  H     0.22606   0.87802   0.71740   0.00000  Uiso   1.00
N1031  N     0.16668   0.83334   0.95069   0.00000  Uiso   1.00
N1032  N     0.16665   0.83332   0.71597   0.00000  Uiso   1.00
O1033  O     0.16666   0.77322   0.87291   0.00000  Uiso   1.00
O1034  O     0.16667   0.89345   0.79375   0.00000  Uiso   1.00
O1035  O     0.16666   0.77321   0.79372   0.00000  Uiso   1.00
O1036  O     0.16667   0.89346   0.87294   0.00000  Uiso   1.00
O1037  O     0.09161   0.83334   0.86379   0.00000  Uiso   1.00
O1038  O     0.24172   0.83333   0.80288   0.00000  Uiso   1.00
O1039  O     0.09161   0.83333   0.78460   0.00000  Uiso   1.00
O1040  O     0.24172   0.83334   0.88207   0.00000  Uiso   1.00
H1041  H     0.32600   0.83344   0.77860   0.00000  Uiso   1.00
H1042  H     0.00733   0.83320   0.88807   0.00000  Uiso   1.00
N1043  N     0.11970   0.95892   0.75105   0.00000  Uiso   1.00
H1044  H     0.13828   0.96785   0.72248   0.00000  Uiso   1.00
H1045  H     0.08155   0.96906   0.74437   0.00000  Uiso   1.00
N1046  N     0.21503   0.70817   0.91563   0.00000  Uiso   1.00
H1047  H     0.24886   0.72143   0.90675   0.00000  Uiso   1.00
H1048  H     0.22620   0.68726   0.94305   0.00000  Uiso   1.00
H1049  H     0.10724   0.78863   0.70289   0.00000  Uiso   1.00
H1050  H     0.22609   0.87804   0.96378   0.00000  Uiso   1.00
C1051  C     0.50087   0.75408   0.83361   0.00000  Uiso   1.00
C1052  C     0.49933   0.91259   0.83308   0.00000  Uiso   1.00
C1053  C     0.40125   0.83332   0.82124   0.00000  Uiso   1.00
C1054  C     0.59875   0.83333   0.84542   0.00000  Uiso   1.00
C1055  C     0.34597   0.83335   0.81458   0.00000  Uiso   1.00
C1056  C     0.65402   0.83329   0.85209   0.00000  Uiso   1.00
C1057  C     0.47917   0.68881   0.79342   0.00000  Uiso   1.00
C1058  C     0.52164   0.97781   0.87336   0.00000  Uiso   1.00
C1059  C     0.47768   0.97945   0.79244   0.00000  Uiso   1.00
C1060  C     0.52341   0.68728   0.87439   0.00000  Uiso   1.00
C1061  C     0.49922   0.95721   0.83273   0.00000  Uiso   1.00
C1062  C     0.50150   0.70945   0.83404   0.00000  Uiso   1.00
C1063  C     0.46698   0.80854   0.68743   0.00000  Uiso   1.00
C1064  C     0.53302   0.85813   0.97923   0.00000  Uiso   1.00
C1065  C     0.46699   0.80855   0.97117   0.00000  Uiso   1.00
C1066  C     0.53300   0.85812   0.69550   0.00000  Uiso   1.00
Cu1067 Cu    0.50000   0.83334   0.88022   0.00000  Uiso   1.00
Cu1068 Cu    0.50000   0.83333   0.78645   0.00000  Uiso   1.00
H1069  H     0.46189   0.70583   0.76253   0.00000  Uiso   1.00
H1070  H     0.53882   0.96048   0.90403   0.00000  Uiso   1.00
H1071  H     0.44059   0.78866   0.94926   0.00000  Uiso   1.00
H1072  H     0.55939   0.87802   0.71740   0.00000  Uiso   1.00
N1073  N     0.50001   0.83334   0.95069   0.00000  Uiso   1.00
N1074  N     0.49999   0.83332   0.71597   0.00000  Uiso   1.00
O1075  O     0.50000   0.77322   0.87291   0.00000  Uiso   1.00
O1076  O     0.50000   0.89345   0.79375   0.00000  Uiso   1.00
O1077  O     0.50000   0.77321   0.79372   0.00000  Uiso   1.00
O1078  O     0.50000   0.89346   0.87294   0.00000  Uiso   1.00
O1079  O     0.42495   0.83334   0.86379   0.00000  Uiso   1.00
O1080  O     0.57505   0.83333   0.80288   0.00000  Uiso   1.00
O1081  O     0.42494   0.83333   0.78460   0.00000  Uiso   1.00
O1082  O     0.57506   0.83334   0.88207   0.00000  Uiso   1.00
H1083  H     0.65934   0.83344   0.77860   0.00000  Uiso   1.00
H1084  H     0.34066   0.83320   0.88807   0.00000  Uiso   1.00
N1085  N     0.45303   0.95892   0.75105   0.00000  Uiso   1.00
H1086  H     0.47161   0.96785   0.72248   0.00000  Uiso   1.00
H1087  H     0.41488   0.96906   0.74437   0.00000  Uiso   1.00
N1088  N     0.54836   0.70817   0.91563   0.00000  Uiso   1.00
H1089  H     0.58219   0.72143   0.90675   0.00000  Uiso   1.00
H1090  H     0.55953   0.68726   0.94305   0.00000  Uiso   1.00
H1091  H     0.44057   0.78863   0.70289   0.00000  Uiso   1.00
H1092  H     0.55942   0.87804   0.96378   0.00000  Uiso   1.00
C1093  C     0.83421   0.75408   0.83361   0.00000  Uiso   1.00
C1094  C     0.83266   0.91259   0.83308   0.00000  Uiso   1.00
C1095  C     0.73458   0.83332   0.82124   0.00000  Uiso   1.00
C1096  C     0.93208   0.83333   0.84542   0.00000  Uiso   1.00
C1097  C     0.67931   0.83335   0.81458   0.00000  Uiso   1.00
C1098  C     0.98736   0.83329   0.85209   0.00000  Uiso   1.00
C1099  C     0.81250   0.68881   0.79342   0.00000  Uiso   1.00
C1100  C     0.85498   0.97781   0.87336   0.00000  Uiso   1.00
C1101  C     0.81102   0.97945   0.79244   0.00000  Uiso   1.00
C1102  C     0.85674   0.68728   0.87439   0.00000  Uiso   1.00
C1103  C     0.83256   0.95721   0.83273   0.00000  Uiso   1.00
C1104  C     0.83483   0.70945   0.83404   0.00000  Uiso   1.00
C1105  C     0.80031   0.80854   0.68743   0.00000  Uiso   1.00
C1106  C     0.86635   0.85813   0.97923   0.00000  Uiso   1.00
C1107  C     0.80033   0.80855   0.97117   0.00000  Uiso   1.00
C1108  C     0.86633   0.85812   0.69550   0.00000  Uiso   1.00
Cu1109 Cu    0.83333   0.83334   0.88022   0.00000  Uiso   1.00
Cu1110 Cu    0.83333   0.83333   0.78645   0.00000  Uiso   1.00
H1111  H     0.79522   0.70583   0.76253   0.00000  Uiso   1.00
H1112  H     0.87216   0.96048   0.90403   0.00000  Uiso   1.00
H1113  H     0.77392   0.78866   0.94926   0.00000  Uiso   1.00
H1114  H     0.89273   0.87802   0.71740   0.00000  Uiso   1.00
N1115  N     0.83335   0.83334   0.95069   0.00000  Uiso   1.00
N1116  N     0.83332   0.83332   0.71597   0.00000  Uiso   1.00
O1117  O     0.83333   0.77322   0.87291   0.00000  Uiso   1.00
O1118  O     0.83334   0.89345   0.79375   0.00000  Uiso   1.00
O1119  O     0.83333   0.77321   0.79372   0.00000  Uiso   1.00
O1120  O     0.83334   0.89346   0.87294   0.00000  Uiso   1.00
O1121  O     0.75828   0.83334   0.86379   0.00000  Uiso   1.00
O1122  O     0.90839   0.83333   0.80288   0.00000  Uiso   1.00
O1123  O     0.75828   0.83333   0.78460   0.00000  Uiso   1.00
O1124  O     0.90839   0.83334   0.88207   0.00000  Uiso   1.00
H1125  H     0.99267   0.83344   0.77860   0.00000  Uiso   1.00
H1126  H     0.67399   0.83320   0.88807   0.00000  Uiso   1.00
N1127  N     0.78636   0.95892   0.75105   0.00000  Uiso   1.00
H1128  H     0.80495   0.96785   0.72248   0.00000  Uiso   1.00
H1129  H     0.74821   0.96906   0.74437   0.00000  Uiso   1.00
N1130  N     0.88170   0.70817   0.91563   0.00000  Uiso   1.00
H1131  H     0.91552   0.72143   0.90675   0.00000  Uiso   1.00
H1132  H     0.89287   0.68726   0.94305   0.00000  Uiso   1.00
H1133  H     0.77390   0.78863   0.70289   0.00000  Uiso   1.00
H1134  H     0.89276   0.87804   0.96378   0.00000  Uiso   1.00
loop_
_geom_bond_atom_site_label_1
_geom_bond_atom_site_label_2
_geom_bond_distance
_geom_bond_site_symmetry_2
_ccdc_geom_bond_type
C1     O25     1.290   .     A
C1     C12     1.450   .     S
C1     O27     1.293   .     A
C2     C11     1.450   .     S
C2     O26     1.290   .     A
C2     O28     1.293   .     A
C3     O31     1.289   .     A
C3     O29     1.287   .     A
C3     C5      1.435   .     S
C4     O32     1.289   .     A
C4     C6      1.435   .     S
C4     O30     1.287   .     A
C5     C90     1.335   1_455 S
C5     H117    1.087   1_455 S
C6     C47     1.335   .     S
C6     H76     1.087   .     S
C7     H19     1.084   .     S
C7     C12     1.399   .     A
C7     C261    1.388   1_545 S
C8     H20     1.084   .     S
C8     C11     1.399   .     A
C8     C136    1.392   .     S
C9     C11     1.407   .     A
C9     N35     1.434   .     S
C9     C133    1.388   .     S
C10    N38     1.439   .     S
C10    C12     1.410   .     A
C10    C260    1.392   1_545 S
C13    H41     1.082   .     S
C13    N24     1.367   .     A
C13    C771    1.417   1_554 S
C14    N23     1.367   .     A
C14    H42     1.082   .     S
C14    C394    1.417   .     S
C15    N23     1.367   .     A
C15    H21     1.082   .     S
C15    C391    1.417   .     S
C16    N24     1.367   .     A
C16    H22     1.082   .     S
C16    C770    1.417   1_554 S
Cu17   O29     1.958   .     S
Cu17   O25     1.966   .     S
Cu17   Cu18    2.679   .     S
Cu17   N23     2.013   .     S
Cu17   O32     1.960   .     S
Cu17   O28     1.963   .     S
Cu18   O30     1.958   .     S
Cu18   O26     1.966   .     S
Cu18   N24     2.013   .     S
Cu18   O31     1.960   .     S
Cu18   O27     1.963   .     S
H33    C47     1.087   .     S
H34    C90     1.087   1_455 S
N35    H36     1.046   .     S
N35    H37     1.046   .     S
N38    H40     1.046   .     S
N38    H39     1.046   .     S
C43    O67     1.290   .     A
C43    C54     1.450   .     S
C43    O69     1.293   .     A
C44    C53     1.450   .     S
C44    O68     1.290   .     A
C44    O70     1.293   .     A
C45    O73     1.289   .     A
C45    O71     1.287   .     A
C45    C47     1.435   .     S
C46    O74     1.289   .     A
C46    C48     1.435   .     S
C46    O72     1.287   .     A
C48    C89     1.335   .     S
C48    H118    1.087   .     S
C49    H61     1.084   .     S
C49    C54     1.399   .     A
C49    C303    1.388   1_545 S
C50    H62     1.084   .     S
C50    C53     1.399   .     A
C50    C178    1.392   .     S
C51    C53     1.407   .     A
C51    N77     1.434   .     S
C51    C175    1.388   .     S
C52    N80     1.439   .     S
C52    C54     1.410   .     A
C52    C302    1.392   1_545 S
C55    H83     1.082   .     S
C55    N66     1.367   .     A
C55    C813    1.417   1_554 S
C56    N65     1.367   .     A
C56    H84     1.082   .     S
C56    C436    1.417   .     S
C57    N65     1.367   .     A
C57    H63     1.082   .     S
C57    C433    1.417   .     S
C58    N66     1.367   .     A
C58    H64     1.082   .     S
C58    C812    1.417   1_554 S
Cu59   O71     1.958   .     S
Cu59   O67     1.966   .     S
Cu59   Cu60    2.679   .     S
Cu59   N65     2.013   .     S
Cu59   O74     1.960   .     S
Cu59   O70     1.963   .     S
Cu60   O72     1.958   .     S
Cu60   O68     1.966   .     S
Cu60   N66     2.013   .     S
Cu60   O73     1.960   .     S
Cu60   O69     1.963   .     S
H75    C89     1.087   .     S
N77    H78     1.046   .     S
N77    H79     1.046   .     S
N80    H82     1.046   .     S
N80    H81     1.046   .     S
C85    O109    1.290   .     A
C85    C96     1.450   .     S
C85    O111    1.293   .     A
C86    C95     1.450   .     S
C86    O110    1.290   .     A
C86    O112    1.293   .     A
C87    O115    1.289   .     A
C87    O113    1.287   .     A
C87    C89     1.435   .     S
C88    O116    1.289   .     A
C88    C90     1.435   .     S
C88    O114    1.287   .     A
C90    C5      1.335   1_655 S
C90    H34     1.087   1_655 S
C91    H103    1.084   .     S
C91    C96     1.399   .     A
C91    C345    1.388   1_545 S
C92    H104    1.084   .     S
C92    C95     1.399   .     A
C92    C220    1.392   .     S
C93    C95     1.407   .     A
C93    N119    1.434   .     S
C93    C217    1.388   .     S
C94    N122    1.439   .     S
C94    C96     1.410   .     A
C94    C344    1.392   1_545 S
C97    H125    1.082   .     S
C97    N108    1.367   .     A
C97    C855    1.417   1_554 S
C98    N107    1.367   .     A
C98    H126    1.082   .     S
C98    C478    1.417   .     S
C99    N107    1.367   .     A
C99    H105    1.082   .     S
C99    C475    1.417   .     S
C100   N108    1.367   .     A
C100   H106    1.082   .     S
C100   C854    1.417   1_554 S
Cu101  O113    1.958   .     S
Cu101  O109    1.966   .     S
Cu101  Cu102   2.679   .     S
Cu101  N107    2.013   .     S
Cu101  O116    1.960   .     S
Cu101  O112    1.963   .     S
Cu102  O114    1.958   .     S
Cu102  O110    1.966   .     S
Cu102  N108    2.013   .     S
Cu102  O115    1.960   .     S
Cu102  O111    1.963   .     S
H117   C5      1.087   1_655 S
N119   H120    1.046   .     S
N119   H121    1.046   .     S
N122   H124    1.046   .     S
N122   H123    1.046   .     S
C127   O151    1.290   .     A
C127   C138    1.450   .     S
C127   O153    1.293   .     A
C128   C137    1.450   .     S
C128   O152    1.290   .     A
C128   O154    1.293   .     A
C129   O157    1.289   .     A
C129   O155    1.287   .     A
C129   C131    1.435   .     S
C130   O158    1.289   .     A
C130   C132    1.435   .     S
C130   O156    1.287   .     A
C131   C216    1.335   1_455 S
C131   H243    1.087   1_455 S
C132   C173    1.335   .     S
C132   H202    1.087   .     S
C133   H145    1.084   .     S
C133   C138    1.399   .     A
C134   H146    1.084   .     S
C134   C137    1.399   .     A
C134   C262    1.392   .     S
C135   C137    1.407   .     A
C135   N161    1.434   .     S
C135   C259    1.388   .     S
C136   N164    1.439   .     S
C136   C138    1.410   .     A
C139   H167    1.082   .     S
C139   N150    1.367   .     A
C139   C897    1.417   1_554 S
C140   N149    1.367   .     A
C140   H168    1.082   .     S
C140   C520    1.417   .     S
C141   N149    1.367   .     A
C141   H147    1.082   .     S
C141   C517    1.417   .     S
C142   N150    1.367   .     A
C142   H148    1.082   .     S
C142   C896    1.417   1_554 S
Cu143  O155    1.958   .     S
Cu143  O151    1.966   .     S
Cu143  Cu144   2.679   .     S
Cu143  N149    2.013   .     S
Cu143  O158    1.960   .     S
Cu143  O154    1.963   .     S
Cu144  O156    1.958   .     S
Cu144  O152    1.966   .     S
Cu144  N150    2.013   .     S
Cu144  O157    1.960   .     S
Cu144  O153    1.963   .     S
H159   C173    1.087   .     S
H160   C216    1.087   1_455 S
N161   H162    1.046   .     S
N161   H163    1.046   .     S
N164   H166    1.046   .     S
N164   H165    1.046   .     S
C169   O193    1.290   .     A
C169   C180    1.450   .     S
C169   O195    1.293   .     A
C170   C179    1.450   .     S
C170   O194    1.290   .     A
C170   O196    1.293   .     A
C171   O199    1.289   .     A
C171   O197    1.287   .     A
C171   C173    1.435   .     S
C172   O200    1.289   .     A
C172   C174    1.435   .     S
C172   O198    1.287   .     A
C174   C215    1.335   .     S
C174   H244    1.087   .     S
C175   H187    1.084   .     S
C175   C180    1.399   .     A
C176   H188    1.084   .     S
C176   C179    1.399   .     A
C176   C304    1.392   .     S
C177   C179    1.407   .     A
C177   N203    1.434   .     S
C177   C301    1.388   .     S
C178   N206    1.439   .     S
C178   C180    1.410   .     A
C181   H209    1.082   .     S
C181   N192    1.367   .     A
C181   C939    1.417   1_554 S
C182   N191    1.367   .     A
C182   H210    1.082   .     S
C182   C562    1.417   .     S
C183   N191    1.367   .     A
C183   H189    1.082   .     S
C183   C559    1.417   .     S
C184   N192    1.367   .     A
C184   H190    1.082   .     S
C184   C938    1.417   1_554 S
Cu185  O197    1.958   .     S
Cu185  O193    1.966   .     S
Cu185  Cu186   2.679   .     S
Cu185  N191    2.013   .     S
Cu185  O200    1.960   .     S
Cu185  O196    1.963   .     S
Cu186  O198    1.958   .     S
Cu186  O194    1.966   .     S
Cu186  N192    2.013   .     S
Cu186  O199    1.960   .     S
Cu186  O195    1.963   .     S
H201   C215    1.087   .     S
N203   H204    1.046   .     S
N203   H205    1.046   .     S
N206   H208    1.046   .     S
N206   H207    1.046   .     S
C211   O235    1.290   .     A
C211   C222    1.450   .     S
C211   O237    1.293   .     A
C212   C221    1.450   .     S
C212   O236    1.290   .     A
C212   O238    1.293   .     A
C213   O241    1.289   .     A
C213   O239    1.287   .     A
C213   C215    1.435   .     S
C214   O242    1.289   .     A
C214   C216    1.435   .     S
C214   O240    1.287   .     A
C216   C131    1.335   1_655 S
C216   H160    1.087   1_655 S
C217   H229    1.084   .     S
C217   C222    1.399   .     A
C218   H230    1.084   .     S
C218   C221    1.399   .     A
C218   C346    1.392   .     S
C219   C221    1.407   .     A
C219   N245    1.434   .     S
C219   C343    1.388   .     S
C220   N248    1.439   .     S
C220   C222    1.410   .     A
C223   H251    1.082   .     S
C223   N234    1.367   .     A
C223   C981    1.417   1_554 S
C224   N233    1.367   .     A
C224   H252    1.082   .     S
C224   C604    1.417   .     S
C225   N233    1.367   .     A
C225   H231    1.082   .     S
C225   C601    1.417   .     S
C226   N234    1.367   .     A
C226   H232    1.082   .     S
C226   C980    1.417   1_554 S
Cu227  O239    1.958   .     S
Cu227  O235    1.966   .     S
Cu227  Cu228   2.679   .     S
Cu227  N233    2.013   .     S
Cu227  O242    1.960   .     S
Cu227  O238    1.963   .     S
Cu228  O240    1.958   .     S
Cu228  O236    1.966   .     S
Cu228  N234    2.013   .     S
Cu228  O241    1.960   .     S
Cu228  O237    1.963   .     S
H243   C131    1.087   1_655 S
N245   H246    1.046   .     S
N245   H247    1.046   .     S
N248   H250    1.046   .     S
N248   H249    1.046   .     S
C253   O277    1.290   .     A
C253   C264    1.450   .     S
C253   O279    1.293   .     A
C254   C263    1.450   .     S
C254   O278    1.290   .     A
C254   O280    1.293   .     A
C255   O283    1.289   .     A
C255   O281    1.287   .     A
C255   C257    1.435   .     S
C256   O284    1.289   .     A
C256   C258    1.435   .     S
C256   O282    1.287   .     A
C257   C342    1.335   1_455 S
C257   H369    1.087   1_455 S
C258   C299    1.335   .     S
C258   H328    1.087   .     S
C259   H271    1.084   .     S
C259   C264    1.399   .     A
C260   H272    1.084   .     S
C260   C263    1.399   .     A
C260   C10     1.392   1_565 S
C261   C263    1.407   .     A
C261   N287    1.434   .     S
C261   C7      1.388   1_565 S
C262   N290    1.439   .     S
C262   C264    1.410   .     A
C265   H293    1.082   .     S
C265   N276    1.367   .     A
C265   C1023   1.417   1_554 S
C266   N275    1.367   .     A
C266   H294    1.082   .     S
C266   C646    1.417   .     S
C267   N275    1.367   .     A
C267   H273    1.082   .     S
C267   C643    1.417   .     S
C268   N276    1.367   .     A
C268   H274    1.082   .     S
C268   C1022   1.417   1_554 S
Cu269  O281    1.958   .     S
Cu269  O277    1.966   .     S
Cu269  Cu270   2.679   .     S
Cu269  N275    2.013   .     S
Cu269  O284    1.960   .     S
Cu269  O280    1.963   .     S
Cu270  O282    1.958   .     S
Cu270  O278    1.966   .     S
Cu270  N276    2.013   .     S
Cu270  O283    1.960   .     S
Cu270  O279    1.963   .     S
H285   C299    1.087   .     S
H286   C342    1.087   1_455 S
N287   H288    1.046   .     S
N287   H289    1.046   .     S
N290   H292    1.046   .     S
N290   H291    1.046   .     S
C295   O319    1.290   .     A
C295   C306    1.450   .     S
C295   O321    1.293   .     A
C296   C305    1.450   .     S
C296   O320    1.290   .     A
C296   O322    1.293   .     A
C297   O325    1.289   .     A
C297   O323    1.287   .     A
C297   C299    1.435   .     S
C298   O326    1.289   .     A
C298   C300    1.435   .     S
C298   O324    1.287   .     A
C300   C341    1.335   .     S
C300   H370    1.087   .     S
C301   H313    1.084   .     S
C301   C306    1.399   .     A
C302   H314    1.084   .     S
C302   C305    1.399   .     A
C302   C52     1.392   1_565 S
C303   C305    1.407   .     A
C303   N329    1.434   .     S
C303   C49     1.388   1_565 S
C304   N332    1.439   .     S
C304   C306    1.410   .     A
C307   H335    1.082   .     S
C307   N318    1.367   .     A
C307   C1065   1.417   1_554 S
C308   N317    1.367   .     A
C308   H336    1.082   .     S
C308   C688    1.417   .     S
C309   N317    1.367   .     A
C309   H315    1.082   .     S
C309   C685    1.417   .     S
C310   N318    1.367   .     A
C310   H316    1.082   .     S
C310   C1064   1.417   1_554 S
Cu311  O323    1.958   .     S
Cu311  O319    1.966   .     S
Cu311  Cu312   2.679   .     S
Cu311  N317    2.013   .     S
Cu311  O326    1.960   .     S
Cu311  O322    1.963   .     S
Cu312  O324    1.958   .     S
Cu312  O320    1.966   .     S
Cu312  N318    2.013   .     S
Cu312  O325    1.960   .     S
Cu312  O321    1.963   .     S
H327   C341    1.087   .     S
N329   H330    1.046   .     S
N329   H331    1.046   .     S
N332   H334    1.046   .     S
N332   H333    1.046   .     S
C337   O361    1.290   .     A
C337   C348    1.450   .     S
C337   O363    1.293   .     A
C338   C347    1.450   .     S
C338   O362    1.290   .     A
C338   O364    1.293   .     A
C339   O367    1.289   .     A
C339   O365    1.287   .     A
C339   C341    1.435   .     S
C340   O368    1.289   .     A
C340   C342    1.435   .     S
C340   O366    1.287   .     A
C342   C257    1.335   1_655 S
C342   H286    1.087   1_655 S
C343   H355    1.084   .     S
C343   C348    1.399   .     A
C344   H356    1.084   .     S
C344   C347    1.399   .     A
C344   C94     1.392   1_565 S
C345   C347    1.407   .     A
C345   N371    1.434   .     S
C345   C91     1.388   1_565 S
C346   N374    1.439   .     S
C346   C348    1.410   .     A
C349   H377    1.082   .     S
C349   N360    1.367   .     A
C349   C1107   1.417   1_554 S
C350   N359    1.367   .     A
C350   H378    1.082   .     S
C350   C730    1.417   .     S
C351   N359    1.367   .     A
C351   H357    1.082   .     S
C351   C727    1.417   .     S
C352   N360    1.367   .     A
C352   H358    1.082   .     S
C352   C1106   1.417   1_554 S
Cu353  O365    1.958   .     S
Cu353  O361    1.966   .     S
Cu353  Cu354   2.679   .     S
Cu353  N359    2.013   .     S
Cu353  O368    1.960   .     S
Cu353  O364    1.963   .     S
Cu354  O366    1.958   .     S
Cu354  O362    1.966   .     S
Cu354  N360    2.013   .     S
Cu354  O367    1.960   .     S
Cu354  O363    1.963   .     S
H369   C257    1.087   1_655 S
N371   H372    1.046   .     S
N371   H373    1.046   .     S
N374   H376    1.046   .     S
N374   H375    1.046   .     S
C379   O403    1.290   .     A
C379   C390    1.450   .     S
C379   O405    1.293   .     A
C380   C389    1.450   .     S
C380   O404    1.290   .     A
C380   O406    1.293   .     A
C381   O409    1.289   .     A
C381   O407    1.287   .     A
C381   C383    1.435   .     S
C382   O410    1.289   .     A
C382   C384    1.435   .     S
C382   O408    1.287   .     A
C383   C468    1.335   1_455 S
C383   H495    1.087   1_455 S
C384   C425    1.335   .     S
C384   H454    1.087   .     S
C385   H397    1.084   .     S
C385   C390    1.399   .     A
C385   C639    1.388   1_545 S
C386   H398    1.084   .     S
C386   C389    1.399   .     A
C386   C514    1.392   .     S
C387   C389    1.407   .     A
C387   N413    1.434   .     S
C387   C511    1.388   .     S
C388   N416    1.439   .     S
C388   C390    1.410   .     A
C388   C638    1.392   1_545 S
C391   H419    1.082   .     S
C391   N402    1.367   .     A
C392   N401    1.367   .     A
C392   H420    1.082   .     S
C392   C772    1.417   .     S
C393   N401    1.367   .     A
C393   H399    1.082   .     S
C393   C769    1.417   .     S
C394   N402    1.367   .     A
C394   H400    1.082   .     S
Cu395  O407    1.958   .     S
Cu395  O403    1.966   .     S
Cu395  Cu396   2.679   .     S
Cu395  N401    2.013   .     S
Cu395  O410    1.960   .     S
Cu395  O406    1.963   .     S
Cu396  O408    1.958   .     S
Cu396  O404    1.966   .     S
Cu396  N402    2.013   .     S
Cu396  O409    1.960   .     S
Cu396  O405    1.963   .     S
H411   C425    1.087   .     S
H412   C468    1.087   1_455 S
N413   H414    1.046   .     S
N413   H415    1.046   .     S
N416   H418    1.046   .     S
N416   H417    1.046   .     S
C421   O445    1.290   .     A
C421   C432    1.450   .     S
C421   O447    1.293   .     A
C422   C431    1.450   .     S
C422   O446    1.290   .     A
C422   O448    1.293   .     A
C423   O451    1.289   .     A
C423   O449    1.287   .     A
C423   C425    1.435   .     S
C424   O452    1.289   .     A
C424   C426    1.435   .     S
C424   O450    1.287   .     A
C426   C467    1.335   .     S
C426   H496    1.087   .     S
C427   H439    1.084   .     S
C427   C432    1.399   .     A
C427   C681    1.388   1_545 S
C428   H440    1.084   .     S
C428   C431    1.399   .     A
C428   C556    1.392   .     S
C429   C431    1.407   .     A
C429   N455    1.434   .     S
C429   C553    1.388   .     S
C430   N458    1.439   .     S
C430   C432    1.410   .     A
C430   C680    1.392   1_545 S
C433   H461    1.082   .     S
C433   N444    1.367   .     A
C434   N443    1.367   .     A
C434   H462    1.082   .     S
C434   C814    1.417   .     S
C435   N443    1.367   .     A
C435   H441    1.082   .     S
C435   C811    1.417   .     S
C436   N444    1.367   .     A
C436   H442    1.082   .     S
Cu437  O449    1.958   .     S
Cu437  O445    1.966   .     S
Cu437  Cu438   2.679   .     S
Cu437  N443    2.013   .     S
Cu437  O452    1.960   .     S
Cu437  O448    1.963   .     S
Cu438  O450    1.958   .     S
Cu438  O446    1.966   .     S
Cu438  N444    2.013   .     S
Cu438  O451    1.960   .     S
Cu438  O447    1.963   .     S
H453   C467    1.087   .     S
N455   H456    1.046   .     S
N455   H457    1.046   .     S
N458   H460    1.046   .     S
N458   H459    1.046   .     S
C463   O487    1.290   .     A
C463   C474    1.450   .     S
C463   O489    1.293   .     A
C464   C473    1.450   .     S
C464   O488    1.290   .     A
C464   O490    1.293   .     A
C465   O493    1.289   .     A
C465   O491    1.287   .     A
C465   C467    1.435   .     S
C466   O494    1.289   .     A
C466   C468    1.435   .     S
C466   O492    1.287   .     A
C468   C383    1.335   1_655 S
C468   H412    1.087   1_655 S
C469   H481    1.084   .     S
C469   C474    1.399   .     A
C469   C723    1.388   1_545 S
C470   H482    1.084   .     S
C470   C473    1.399   .     A
C470   C598    1.392   .     S
C471   C473    1.407   .     A
C471   N497    1.434   .     S
C471   C595    1.388   .     S
C472   N500    1.439   .     S
C472   C474    1.410   .     A
C472   C722    1.392   1_545 S
C475   H503    1.082   .     S
C475   N486    1.367   .     A
C476   N485    1.367   .     A
C476   H504    1.082   .     S
C476   C856    1.417   .     S
C477   N485    1.367   .     A
C477   H483    1.082   .     S
C477   C853    1.417   .     S
C478   N486    1.367   .     A
C478   H484    1.082   .     S
Cu479  O491    1.958   .     S
Cu479  O487    1.966   .     S
Cu479  Cu480   2.679   .     S
Cu479  N485    2.013   .     S
Cu479  O494    1.960   .     S
Cu479  O490    1.963   .     S
Cu480  O492    1.958   .     S
Cu480  O488    1.966   .     S
Cu480  N486    2.013   .     S
Cu480  O493    1.960   .     S
Cu480  O489    1.963   .     S
H495   C383    1.087   1_655 S
N497   H498    1.046   .     S
N497   H499    1.046   .     S
N500   H502    1.046   .     S
N500   H501    1.046   .     S
C505   O529    1.290   .     A
C505   C516    1.450   .     S
C505   O531    1.293   .     A
C506   C515    1.450   .     S
C506   O530    1.290   .     A
C506   O532    1.293   .     A
C507   O535    1.289   .     A
C507   O533    1.287   .     A
C507   C509    1.435   .     S
C508   O536    1.289   .     A
C508   C510    1.435   .     S
C508   O534    1.287   .     A
C509   C594    1.335   1_455 S
C509   H621    1.087   1_455 S
C510   C551    1.335   .     S
C510   H580    1.087   .     S
C511   H523    1.084   .     S
C511   C516    1.399   .     A
C512   H524    1.084   .     S
C512   C515    1.399   .     A
C512   C640    1.392   .     S
C513   C515    1.407   .     A
C513   N539    1.434   .     S
C513   C637    1.388   .     S
C514   N542    1.439   .     S
C514   C516    1.410   .     A
C517   H545    1.082   .     S
C517   N528    1.367   .     A
C518   N527    1.367   .     A
C518   H546    1.082   .     S
C518   C898    1.417   .     S
C519   N527    1.367   .     A
C519   H525    1.082   .     S
C519   C895    1.417   .     S
C520   N528    1.367   .     A
C520   H526    1.082   .     S
Cu521  O533    1.958   .     S
Cu521  O529    1.966   .     S
Cu521  Cu522   2.679   .     S
Cu521  N527    2.013   .     S
Cu521  O536    1.960   .     S
Cu521  O532    1.963   .     S
Cu522  O534    1.958   .     S
Cu522  O530    1.966   .     S
Cu522  N528    2.013   .     S
Cu522  O535    1.960   .     S
Cu522  O531    1.963   .     S
H537   C551    1.087   .     S
H538   C594    1.087   1_455 S
N539   H540    1.046   .     S
N539   H541    1.046   .     S
N542   H544    1.046   .     S
N542   H543    1.046   .     S
C547   O571    1.290   .     A
C547   C558    1.450   .     S
C547   O573    1.293   .     A
C548   C557    1.450   .     S
C548   O572    1.290   .     A
C548   O574    1.293   .     A
C549   O577    1.289   .     A
C549   O575    1.287   .     A
C549   C551    1.435   .     S
C550   O578    1.289   .     A
C550   C552    1.435   .     S
C550   O576    1.287   .     A
C552   C593    1.335   .     S
C552   H622    1.087   .     S
C553   H565    1.084   .     S
C553   C558    1.399   .     A
C554   H566    1.084   .     S
C554   C557    1.399   .     A
C554   C682    1.392   .     S
C555   C557    1.407   .     A
C555   N581    1.434   .     S
C555   C679    1.388   .     S
C556   N584    1.439   .     S
C556   C558    1.410   .     A
C559   H587    1.082   .     S
C559   N570    1.367   .     A
C560   N569    1.367   .     A
C560   H588    1.082   .     S
C560   C940    1.417   .     S
C561   N569    1.367   .     A
C561   H567    1.082   .     S
C561   C937    1.417   .     S
C562   N570    1.367   .     A
C562   H568    1.082   .     S
Cu563  O575    1.958   .     S
Cu563  O571    1.966   .     S
Cu563  Cu564   2.679   .     S
Cu563  N569    2.013   .     S
Cu563  O578    1.960   .     S
Cu563  O574    1.963   .     S
Cu564  O576    1.958   .     S
Cu564  O572    1.966   .     S
Cu564  N570    2.013   .     S
Cu564  O577    1.960   .     S
Cu564  O573    1.963   .     S
H579   C593    1.087   .     S
N581   H582    1.046   .     S
N581   H583    1.046   .     S
N584   H586    1.046   .     S
N584   H585    1.046   .     S
C589   O613    1.290   .     A
C589   C600    1.450   .     S
C589   O615    1.293   .     A
C590   C599    1.450   .     S
C590   O614    1.290   .     A
C590   O616    1.293   .     A
C591   O619    1.289   .     A
C591   O617    1.287   .     A
C591   C593    1.435   .     S
C592   O620    1.289   .     A
C592   C594    1.435   .     S
C592   O618    1.287   .     A
C594   C509    1.335   1_655 S
C594   H538    1.087   1_655 S
C595   H607    1.084   .     S
C595   C600    1.399   .     A
C596   H608    1.084   .     S
C596   C599    1.399   .     A
C596   C724    1.392   .     S
C597   C599    1.407   .     A
C597   N623    1.434   .     S
C597   C721    1.388   .     S
C598   N626    1.439   .     S
C598   C600    1.410   .     A
C601   H629    1.082   .     S
C601   N612    1.367   .     A
C602   N611    1.367   .     A
C602   H630    1.082   .     S
C602   C982    1.417   .     S
C603   N611    1.367   .     A
C603   H609    1.082   .     S
C603   C979    1.417   .     S
C604   N612    1.367   .     A
C604   H610    1.082   .     S
Cu605  O617    1.958   .     S
Cu605  O613    1.966   .     S
Cu605  Cu606   2.679   .     S
Cu605  N611    2.013   .     S
Cu605  O620    1.960   .     S
Cu605  O616    1.963   .     S
Cu606  O618    1.958   .     S
Cu606  O614    1.966   .     S
Cu606  N612    2.013   .     S
Cu606  O619    1.960   .     S
Cu606  O615    1.963   .     S
H621   C509    1.087   1_655 S
N623   H624    1.046   .     S
N623   H625    1.046   .     S
N626   H628    1.046   .     S
N626   H627    1.046   .     S
C631   O655    1.290   .     A
C631   C642    1.450   .     S
C631   O657    1.293   .     A
C632   C641    1.450   .     S
C632   O656    1.290   .     A
C632   O658    1.293   .     A
C633   O661    1.289   .     A
C633   O659    1.287   .     A
C633   C635    1.435   .     S
C634   O662    1.289   .     A
C634   C636    1.435   .     S
C634   O660    1.287   .     A
C635   C720    1.335   1_455 S
C635   H747    1.087   1_455 S
C636   C677    1.335   .     S
C636   H706    1.087   .     S
C637   H649    1.084   .     S
C637   C642    1.399   .     A
C638   H650    1.084   .     S
C638   C641    1.399   .     A
C638   C388    1.392   1_565 S
C639   C641    1.407   .     A
C639   N665    1.434   .     S
C639   C385    1.388   1_565 S
C640   N668    1.439   .     S
C640   C642    1.410   .     A
C643   H671    1.082   .     S
C643   N654    1.367   .     A
C644   N653    1.367   .     A
C644   H672    1.082   .     S
C644   C1024   1.417   .     S
C645   N653    1.367   .     A
C645   H651    1.082   .     S
C645   C1021   1.417   .     S
C646   N654    1.367   .     A
C646   H652    1.082   .     S
Cu647  O659    1.958   .     S
Cu647  O655    1.966   .     S
Cu647  Cu648   2.679   .     S
Cu647  N653    2.013   .     S
Cu647  O662    1.960   .     S
Cu647  O658    1.963   .     S
Cu648  O660    1.958   .     S
Cu648  O656    1.966   .     S
Cu648  N654    2.013   .     S
Cu648  O661    1.960   .     S
Cu648  O657    1.963   .     S
H663   C677    1.087   .     S
H664   C720    1.087   1_455 S
N665   H666    1.046   .     S
N665   H667    1.046   .     S
N668   H670    1.046   .     S
N668   H669    1.046   .     S
C673   O697    1.290   .     A
C673   C684    1.450   .     S
C673   O699    1.293   .     A
C674   C683    1.450   .     S
C674   O698    1.290   .     A
C674   O700    1.293   .     A
C675   O703    1.289   .     A
C675   O701    1.287   .     A
C675   C677    1.435   .     S
C676   O704    1.289   .     A
C676   C678    1.435   .     S
C676   O702    1.287   .     A
C678   C719    1.335   .     S
C678   H748    1.087   .     S
C679   H691    1.084   .     S
C679   C684    1.399   .     A
C680   H692    1.084   .     S
C680   C683    1.399   .     A
C680   C430    1.392   1_565 S
C681   C683    1.407   .     A
C681   N707    1.434   .     S
C681   C427    1.388   1_565 S
C682   N710    1.439   .     S
C682   C684    1.410   .     A
C685   H713    1.082   .     S
C685   N696    1.367   .     A
C686   N695    1.367   .     A
C686   H714    1.082   .     S
C686   C1066   1.417   .     S
C687   N695    1.367   .     A
C687   H693    1.082   .     S
C687   C1063   1.417   .     S
C688   N696    1.367   .     A
C688   H694    1.082   .     S
Cu689  O701    1.958   .     S
Cu689  O697    1.966   .     S
Cu689  Cu690   2.679   .     S
Cu689  N695    2.013   .     S
Cu689  O704    1.960   .     S
Cu689  O700    1.963   .     S
Cu690  O702    1.958   .     S
Cu690  O698    1.966   .     S
Cu690  N696    2.013   .     S
Cu690  O703    1.960   .     S
Cu690  O699    1.963   .     S
H705   C719    1.087   .     S
N707   H708    1.046   .     S
N707   H709    1.046   .     S
N710   H712    1.046   .     S
N710   H711    1.046   .     S
C715   O739    1.290   .     A
C715   C726    1.450   .     S
C715   O741    1.293   .     A
C716   C725    1.450   .     S
C716   O740    1.290   .     A
C716   O742    1.293   .     A
C717   O745    1.289   .     A
C717   O743    1.287   .     A
C717   C719    1.435   .     S
C718   O746    1.289   .     A
C718   C720    1.435   .     S
C718   O744    1.287   .     A
C720   C635    1.335   1_655 S
C720   H664    1.087   1_655 S
C721   H733    1.084   .     S
C721   C726    1.399   .     A
C722   H734    1.084   .     S
C722   C725    1.399   .     A
C722   C472    1.392   1_565 S
C723   C725    1.407   .     A
C723   N749    1.434   .     S
C723   C469    1.388   1_565 S
C724   N752    1.439   .     S
C724   C726    1.410   .     A
C727   H755    1.082   .     S
C727   N738    1.367   .     A
C728   N737    1.367   .     A
C728   H756    1.082   .     S
C728   C1108   1.417   .     S
C729   N737    1.367   .     A
C729   H735    1.082   .     S
C729   C1105   1.417   .     S
C730   N738    1.367   .     A
C730   H736    1.082   .     S
Cu731  O743    1.958   .     S
Cu731  O739    1.966   .     S
Cu731  Cu732   2.679   .     S
Cu731  N737    2.013   .     S
Cu731  O746    1.960   .     S
Cu731  O742    1.963   .     S
Cu732  O744    1.958   .     S
Cu732  O740    1.966   .     S
Cu732  N738    2.013   .     S
Cu732  O745    1.960   .     S
Cu732  O741    1.963   .     S
H747   C635    1.087   1_655 S
N749   H750    1.046   .     S
N749   H751    1.046   .     S
N752   H754    1.046   .     S
N752   H753    1.046   .     S
C757   O781    1.290   .     A
C757   C768    1.450   .     S
C757   O783    1.293   .     A
C758   C767    1.450   .     S
C758   O782    1.290   .     A
C758   O784    1.293   .     A
C759   O787    1.289   .     A
C759   O785    1.287   .     A
C759   C761    1.435   .     S
C760   O788    1.289   .     A
C760   C762    1.435   .     S
C760   O786    1.287   .     A
C761   C846    1.335   1_455 S
C761   H873    1.087   1_455 S
C762   C803    1.335   .     S
C762   H832    1.087   .     S
C763   H775    1.084   .     S
C763   C768    1.399   .     A
C763   C1017   1.388   1_545 S
C764   H776    1.084   .     S
C764   C767    1.399   .     A
C764   C892    1.392   .     S
C765   C767    1.407   .     A
C765   N791    1.434   .     S
C765   C889    1.388   .     S
C766   N794    1.439   .     S
C766   C768    1.410   .     A
C766   C1016   1.392   1_545 S
C769   H797    1.082   .     S
C769   N780    1.367   .     A
C770   N779    1.367   .     A
C770   H798    1.082   .     S
C770   C16     1.417   1_556 S
C771   N779    1.367   .     A
C771   H777    1.082   .     S
C771   C13     1.417   1_556 S
C772   N780    1.367   .     A
C772   H778    1.082   .     S
Cu773  O785    1.958   .     S
Cu773  O781    1.966   .     S
Cu773  Cu774   2.679   .     S
Cu773  N779    2.013   .     S
Cu773  O788    1.960   .     S
Cu773  O784    1.963   .     S
Cu774  O786    1.958   .     S
Cu774  O782    1.966   .     S
Cu774  N780    2.013   .     S
Cu774  O787    1.960   .     S
Cu774  O783    1.963   .     S
H789   C803    1.087   .     S
H790   C846    1.087   1_455 S
N791   H792    1.046   .     S
N791   H793    1.046   .     S
N794   H796    1.046   .     S
N794   H795    1.046   .     S
C799   O823    1.290   .     A
C799   C810    1.450   .     S
C799   O825    1.293   .     A
C800   C809    1.450   .     S
C800   O824    1.290   .     A
C800   O826    1.293   .     A
C801   O829    1.289   .     A
C801   O827    1.287   .     A
C801   C803    1.435   .     S
C802   O830    1.289   .     A
C802   C804    1.435   .     S
C802   O828    1.287   .     A
C804   C845    1.335   .     S
C804   H874    1.087   .     S
C805   H817    1.084   .     S
C805   C810    1.399   .     A
C805   C1059   1.388   1_545 S
C806   H818    1.084   .     S
C806   C809    1.399   .     A
C806   C934    1.392   .     S
C807   C809    1.407   .     A
C807   N833    1.434   .     S
C807   C931    1.388   .     S
C808   N836    1.439   .     S
C808   C810    1.410   .     A
C808   C1058   1.392   1_545 S
C811   H839    1.082   .     S
C811   N822    1.367   .     A
C812   N821    1.367   .     A
C812   H840    1.082   .     S
C812   C58     1.417   1_556 S
C813   N821    1.367   .     A
C813   H819    1.082   .     S
C813   C55     1.417   1_556 S
C814   N822    1.367   .     A
C814   H820    1.082   .     S
Cu815  O827    1.958   .     S
Cu815  O823    1.966   .     S
Cu815  Cu816   2.679   .     S
Cu815  N821    2.013   .     S
Cu815  O830    1.960   .     S
Cu815  O826    1.963   .     S
Cu816  O828    1.958   .     S
Cu816  O824    1.966   .     S
Cu816  N822    2.013   .     S
Cu816  O829    1.960   .     S
Cu816  O825    1.963   .     S
H831   C845    1.087   .     S
N833   H834    1.046   .     S
N833   H835    1.046   .     S
N836   H838    1.046   .     S
N836   H837    1.046   .     S
C841   O865    1.290   .     A
C841   C852    1.450   .     S
C841   O867    1.293   .     A
C842   C851    1.450   .     S
C842   O866    1.290   .     A
C842   O868    1.293   .     A
C843   O871    1.289   .     A
C843   O869    1.287   .     A
C843   C845    1.435   .     S
C844   O872    1.289   .     A
C844   C846    1.435   .     S
C844   O870    1.287   .     A
C846   C761    1.335   1_655 S
C846   H790    1.087   1_655 S
C847   H859    1.084   .     S
C847   C852    1.399   .     A
C847   C1101   1.388   1_545 S
C848   H860    1.084   .     S
C848   C851    1.399   .     A
C848   C976    1.392   .     S
C849   C851    1.407   .     A
C849   N875    1.434   .     S
C849   C973    1.388   .     S
C850   N878    1.439   .     S
C850   C852    1.410   .     A
C850   C1100   1.392   1_545 S
C853   H881    1.082   .     S
C853   N864    1.367   .     A
C854   N863    1.367   .     A
C854   H882    1.082   .     S
C854   C100    1.417   1_556 S
C855   N863    1.367   .     A
C855   H861    1.082   .     S
C855   C97     1.417   1_556 S
C856   N864    1.367   .     A
C856   H862    1.082   .     S
Cu857  O869    1.958   .     S
Cu857  O865    1.966   .     S
Cu857  Cu858   2.679   .     S
Cu857  N863    2.013   .     S
Cu857  O872    1.960   .     S
Cu857  O868    1.963   .     S
Cu858  O870    1.958   .     S
Cu858  O866    1.966   .     S
Cu858  N864    2.013   .     S
Cu858  O871    1.960   .     S
Cu858  O867    1.963   .     S
H873   C761    1.087   1_655 S
N875   H876    1.046   .     S
N875   H877    1.046   .     S
N878   H880    1.046   .     S
N878   H879    1.046   .     S
C883   O907    1.290   .     A
C883   C894    1.450   .     S
C883   O909    1.293   .     A
C884   C893    1.450   .     S
C884   O908    1.290   .     A
C884   O910    1.293   .     A
C885   O913    1.289   .     A
C885   O911    1.287   .     A
C885   C887    1.435   .     S
C886   O914    1.289   .     A
C886   C888    1.435   .     S
C886   O912    1.287   .     A
C887   C972    1.335   1_455 S
C887   H999    1.087   1_455 S
C888   C929    1.335   .     S
C888   H958    1.087   .     S
C889   H901    1.084   .     S
C889   C894    1.399   .     A
C890   H902    1.084   .     S
C890   C893    1.399   .     A
C890   C1018   1.392   .     S
C891   C893    1.407   .     A
C891   N917    1.434   .     S
C891   C1015   1.388   .     S
C892   N920    1.439   .     S
C892   C894    1.410   .     A
C895   H923    1.082   .     S
C895   N906    1.367   .     A
C896   N905    1.367   .     A
C896   H924    1.082   .     S
C896   C142    1.417   1_556 S
C897   N905    1.367   .     A
C897   H903    1.082   .     S
C897   C139    1.417   1_556 S
C898   N906    1.367   .     A
C898   H904    1.082   .     S
Cu899  O911    1.958   .     S
Cu899  O907    1.966   .     S
Cu899  Cu900   2.679   .     S
Cu899  N905    2.013   .     S
Cu899  O914    1.960   .     S
Cu899  O910    1.963   .     S
Cu900  O912    1.958   .     S
Cu900  O908    1.966   .     S
Cu900  N906    2.013   .     S
Cu900  O913    1.960   .     S
Cu900  O909    1.963   .     S
H915   C929    1.087   .     S
H916   C972    1.087   1_455 S
N917   H918    1.046   .     S
N917   H919    1.046   .     S
N920   H922    1.046   .     S
N920   H921    1.046   .     S
C925   O949    1.290   .     A
C925   C936    1.450   .     S
C925   O951    1.293   .     A
C926   C935    1.450   .     S
C926   O950    1.290   .     A
C926   O952    1.293   .     A
C927   O955    1.289   .     A
C927   O953    1.287   .     A
C927   C929    1.435   .     S
C928   O956    1.289   .     A
C928   C930    1.435   .     S
C928   O954    1.287   .     A
C930   C971    1.335   .     S
C930   H1000   1.087   .     S
C931   H943    1.084   .     S
C931   C936    1.399   .     A
C932   H944    1.084   .     S
C932   C935    1.399   .     A
C932   C1060   1.392   .     S
C933   C935    1.407   .     A
C933   N959    1.434   .     S
C933   C1057   1.388   .     S
C934   N962    1.439   .     S
C934   C936    1.410   .     A
C937   H965    1.082   .     S
C937   N948    1.367   .     A
C938   N947    1.367   .     A
C938   H966    1.082   .     S
C938   C184    1.417   1_556 S
C939   N947    1.367   .     A
C939   H945    1.082   .     S
C939   C181    1.417   1_556 S
C940   N948    1.367   .     A
C940   H946    1.082   .     S
Cu941  O953    1.958   .     S
Cu941  O949    1.966   .     S
Cu941  Cu942   2.679   .     S
Cu941  N947    2.013   .     S
Cu941  O956    1.960   .     S
Cu941  O952    1.963   .     S
Cu942  O954    1.958   .     S
Cu942  O950    1.966   .     S
Cu942  N948    2.013   .     S
Cu942  O955    1.960   .     S
Cu942  O951    1.963   .     S
H957   C971    1.087   .     S
N959   H960    1.046   .     S
N959   H961    1.046   .     S
N962   H964    1.046   .     S
N962   H963    1.046   .     S
C967   O991    1.290   .     A
C967   C978    1.450   .     S
C967   O993    1.293   .     A
C968   C977    1.450   .     S
C968   O992    1.290   .     A
C968   O994    1.293   .     A
C969   O997    1.289   .     A
C969   O995    1.287   .     A
C969   C971    1.435   .     S
C970   O998    1.289   .     A
C970   C972    1.435   .     S
C970   O996    1.287   .     A
C972   C887    1.335   1_655 S
C972   H916    1.087   1_655 S
C973   H985    1.084   .     S
C973   C978    1.399   .     A
C974   H986    1.084   .     S
C974   C977    1.399   .     A
C974   C1102   1.392   .     S
C975   C977    1.407   .     A
C975   N1001   1.434   .     S
C975   C1099   1.388   .     S
C976   N1004   1.439   .     S
C976   C978    1.410   .     A
C979   H1007   1.082   .     S
C979   N990    1.367   .     A
C980   N989    1.367   .     A
C980   H1008   1.082   .     S
C980   C226    1.417   1_556 S
C981   N989    1.367   .     A
C981   H987    1.082   .     S
C981   C223    1.417   1_556 S
C982   N990    1.367   .     A
C982   H988    1.082   .     S
Cu983  O995    1.958   .     S
Cu983  O991    1.966   .     S
Cu983  Cu984   2.679   .     S
Cu983  N989    2.013   .     S
Cu983  O998    1.960   .     S
Cu983  O994    1.963   .     S
Cu984  O996    1.958   .     S
Cu984  O992    1.966   .     S
Cu984  N990    2.013   .     S
Cu984  O997    1.960   .     S
Cu984  O993    1.963   .     S
H999   C887    1.087   1_655 S
N1001  H1002   1.046   .     S
N1001  H1003   1.046   .     S
N1004  H1006   1.046   .     S
N1004  H1005   1.046   .     S
C1009  O1033   1.290   .     A
C1009  C1020   1.450   .     S
C1009  O1035   1.293   .     A
C1010  C1019   1.450   .     S
C1010  O1034   1.290   .     A
C1010  O1036   1.293   .     A
C1011  O1039   1.289   .     A
C1011  O1037   1.287   .     A
C1011  C1013   1.435   .     S
C1012  O1040   1.289   .     A
C1012  C1014   1.435   .     S
C1012  O1038   1.287   .     A
C1013  C1098   1.335   1_455 S
C1013  H1125   1.087   1_455 S
C1014  C1055   1.335   .     S
C1014  H1084   1.087   .     S
C1015  H1027   1.084   .     S
C1015  C1020   1.399   .     A
C1016  H1028   1.084   .     S
C1016  C1019   1.399   .     A
C1016  C766    1.392   1_565 S
C1017  C1019   1.407   .     A
C1017  N1043   1.434   .     S
C1017  C763    1.388   1_565 S
C1018  N1046   1.439   .     S
C1018  C1020   1.410   .     A
C1021  H1049   1.082   .     S
C1021  N1032   1.367   .     A
C1022  N1031   1.367   .     A
C1022  H1050   1.082   .     S
C1022  C268    1.417   1_556 S
C1023  N1031   1.367   .     A
C1023  H1029   1.082   .     S
C1023  C265    1.417   1_556 S
C1024  N1032   1.367   .     A
C1024  H1030   1.082   .     S
Cu1025 O1037   1.958   .     S
Cu1025 O1033   1.966   .     S
Cu1025 Cu1026  2.679   .     S
Cu1025 N1031   2.013   .     S
Cu1025 O1040   1.960   .     S
Cu1025 O1036   1.963   .     S
Cu1026 O1038   1.958   .     S
Cu1026 O1034   1.966   .     S
Cu1026 N1032   2.013   .     S
Cu1026 O1039   1.960   .     S
Cu1026 O1035   1.963   .     S
H1041  C1055   1.087   .     S
H1042  C1098   1.087   1_455 S
N1043  H1044   1.046   .     S
N1043  H1045   1.046   .     S
N1046  H1048   1.046   .     S
N1046  H1047   1.046   .     S
C1051  O1075   1.290   .     A
C1051  C1062   1.450   .     S
C1051  O1077   1.293   .     A
C1052  C1061   1.450   .     S
C1052  O1076   1.290   .     A
C1052  O1078   1.293   .     A
C1053  O1081   1.289   .     A
C1053  O1079   1.287   .     A
C1053  C1055   1.435   .     S
C1054  O1082   1.289   .     A
C1054  C1056   1.435   .     S
C1054  O1080   1.287   .     A
C1056  C1097   1.335   .     S
C1056  H1126   1.087   .     S
C1057  H1069   1.084   .     S
C1057  C1062   1.399   .     A
C1058  H1070   1.084   .     S
C1058  C1061   1.399   .     A
C1058  C808    1.392   1_565 S
C1059  C1061   1.407   .     A
C1059  N1085   1.434   .     S
C1059  C805    1.388   1_565 S
C1060  N1088   1.439   .     S
C1060  C1062   1.410   .     A
C1063  H1091   1.082   .     S
C1063  N1074   1.367   .     A
C1064  N1073   1.367   .     A
C1064  H1092   1.082   .     S
C1064  C310    1.417   1_556 S
C1065  N1073   1.367   .     A
C1065  H1071   1.082   .     S
C1065  C307    1.417   1_556 S
C1066  N1074   1.367   .     A
C1066  H1072   1.082   .     S
Cu1067 O1079   1.958   .     S
Cu1067 O1075   1.966   .     S
Cu1067 Cu1068  2.679   .     S
Cu1067 N1073   2.013   .     S
Cu1067 O1082   1.960   .     S
Cu1067 O1078   1.963   .     S
Cu1068 O1080   1.958   .     S
Cu1068 O1076   1.966   .     S
Cu1068 N1074   2.013   .     S
Cu1068 O1081   1.960   .     S
Cu1068 O1077   1.963   .     S
H1083  C1097   1.087   .     S
N1085  H1086   1.046   .     S
N1085  H1087   1.046   .     S
N1088  H1090   1.046   .     S
N1088  H1089   1.046   .     S
C1093  O1117   1.290   .     A
C1093  C1104   1.450   .     S
C1093  O1119   1.293   .     A
C1094  C1103   1.450   .     S
C1094  O1118   1.290   .     A
C1094  O1120   1.293   .     A
C1095  O1123   1.289   .     A
C1095  O1121   1.287   .     A
C1095  C1097   1.435   .     S
C1096  O1124   1.289   .     A
C1096  C1098   1.435   .     S
C1096  O1122   1.287   .     A
C1098  C1013   1.335   1_655 S
C1098  H1042   1.087   1_655 S
C1099  H1111   1.084   .     S
C1099  C1104   1.399   .     A
C1100  H1112   1.084   .     S
C1100  C1103   1.399   .     A
C1100  C850    1.392   1_565 S
C1101  C1103   1.407   .     A
C1101  N1127   1.434   .     S
C1101  C847    1.388   1_565 S
C1102  N1130   1.439   .     S
C1102  C1104   1.410   .     A
C1105  H1133   1.082   .     S
C1105  N1116   1.367   .     A
C1106  N1115   1.367   .     A
C1106  H1134   1.082   .     S
C1106  C352    1.417   1_556 S
C1107  N1115   1.367   .     A
C1107  H1113   1.082   .     S
C1107  C349    1.417   1_556 S
C1108  N1116   1.367   .     A
C1108  H1114   1.082   .     S
Cu1109 O1121   1.958   .     S
Cu1109 O1117   1.966   .     S
Cu1109 Cu1110  2.679   .     S
Cu1109 N1115   2.013   .     S
Cu1109 O1124   1.960   .     S
Cu1109 O1120   1.963   .     S
Cu1110 O1122   1.958   .     S
Cu1110 O1118   1.966   .     S
Cu1110 N1116   2.013   .     S
Cu1110 O1123   1.960   .     S
Cu1110 O1119   1.963   .     S
H1125  C1013   1.087   1_655 S
N1127  H1128   1.046   .     S
N1127  H1129   1.046   .     S
N1130  H1132   1.046   .     S
N1130  H1131   1.046   .     S
