data_str_m2_o1_o17_pcu_sym.73
_audit_creation_date              2020-01-03
_audit_creation_method            'Materials Studio'
_symmetry_space_group_name_H-M    'P1'
_symmetry_Int_Tables_number       1
_symmetry_cell_setting            triclinic
loop_
_symmetry_equiv_pos_as_xyz
  x,y,z
_cell_length_a                    32.4938
_cell_length_b                    28.5561
_cell_length_c                    30.1018
_cell_angle_alpha                 90.0809
_cell_angle_beta                  90.0694
_cell_angle_gamma                 90.0486
loop_
_atom_site_label
_atom_site_type_symbol
_atom_site_fract_x
_atom_site_fract_y
_atom_site_fract_z
_atom_site_U_iso_or_equiv
_atom_site_adp_type
_atom_site_occupancy
O1     O     0.10655   0.20625   0.25000   0.00000  Uiso   1.00
O2     O     0.22679   0.12709   0.25001   0.00000  Uiso   1.00
O3     O     0.22679   0.20625   0.25001   0.00000  Uiso   1.00
O4     O     0.10655   0.12709   0.25000   0.00000  Uiso   1.00
C5     C     0.08735   0.16665   0.24995   0.00000  Uiso   1.00
C6     C     0.24598   0.16668   0.25005   0.00000  Uiso   1.00
O7     O     0.16666   0.20627   0.18513   0.00000  Uiso   1.00
O8     O     0.16668   0.12707   0.31487   0.00000  Uiso   1.00
O9     O     0.16668   0.20627   0.31487   0.00000  Uiso   1.00
O10    O     0.16666   0.12707   0.18513   0.00000  Uiso   1.00
C11    C     0.16522   0.16663   0.16449   0.00000  Uiso   1.00
C12    C     0.16812   0.16670   0.33551   0.00000  Uiso   1.00
Cu13   Cu    0.16667   0.21355   0.25000   0.00000  Uiso   1.00
Cu14   Cu    0.16667   0.11978   0.25000   0.00000  Uiso   1.00
C15    C     0.19957   0.13996   0.40732   0.00000  Uiso   1.00
C16    C     0.13377   0.19338   0.09268   0.00000  Uiso   1.00
C17    C     0.17018   0.16688   0.38376   0.00000  Uiso   1.00
C18    C     0.16315   0.16646   0.11624   0.00000  Uiso   1.00
C19    C     0.14144   0.19439   0.40619   0.00000  Uiso   1.00
C20    C     0.19190   0.13895   0.09381   0.00000  Uiso   1.00
C21    C     0.14004   0.19464   0.45226   0.00000  Uiso   1.00
C22    C     0.19331   0.13871   0.04775   0.00000  Uiso   1.00
C23    C     0.16771   0.16669   0.47660   0.00000  Uiso   1.00
C24    C     0.16563   0.16666   0.02340   0.00000  Uiso   1.00
C25    C     0.19752   0.13896   0.45430   0.00000  Uiso   1.00
C26    C     0.13583   0.19439   0.04570   0.00000  Uiso   1.00
C27    C     0.11093   0.22222   0.47420   0.00000  Uiso   1.00
C28    C     0.22242   0.11113   0.02580   0.00000  Uiso   1.00
C29    C     0.10882   0.22223   0.02030   0.00000  Uiso   1.00
C30    C     0.22453   0.11113   0.47970   0.00000  Uiso   1.00
H31    H     0.11948   0.21514   0.38745   0.00000  Uiso   1.00
H32    H     0.21386   0.11820   0.11255   0.00000  Uiso   1.00
H33    H     0.08962   0.24390   0.45562   0.00000  Uiso   1.00
H34    H     0.24373   0.08946   0.04438   0.00000  Uiso   1.00
H35    H     0.08595   0.24451   0.03557   0.00000  Uiso   1.00
H36    H     0.24741   0.08885   0.46443   0.00000  Uiso   1.00
C37    C     0.02125   0.12416   0.25198   0.00000  Uiso   1.00
C38    C     0.31208   0.20918   0.24802   0.00000  Uiso   1.00
C39    C     0.31201   0.12418   0.25210   0.00000  Uiso   1.00
C40    C     0.02132   0.20916   0.24790   0.00000  Uiso   1.00
H41    H     0.03724   0.09093   0.25360   0.00000  Uiso   1.00
H42    H     0.29609   0.24240   0.24640   0.00000  Uiso   1.00
H43    H     0.29597   0.09096   0.25382   0.00000  Uiso   1.00
H44    H     0.03737   0.24237   0.24618   0.00000  Uiso   1.00
C45    C     0.29059   0.16668   0.25009   0.00000  Uiso   1.00
C46    C     0.04274   0.16665   0.24991   0.00000  Uiso   1.00
C47    C     0.14061   0.02474   0.22293   0.00000  Uiso   1.00
C48    C     0.19273   0.30860   0.27707   0.00000  Uiso   1.00
C49    C     0.19273   0.02487   0.27707   0.00000  Uiso   1.00
C50    C     0.14061   0.30846   0.22293   0.00000  Uiso   1.00
H51    H     0.11973   0.04338   0.20125   0.00000  Uiso   1.00
H52    H     0.21360   0.28995   0.29875   0.00000  Uiso   1.00
H53    H     0.21361   0.04362   0.29874   0.00000  Uiso   1.00
H54    H     0.11972   0.28971   0.20126   0.00000  Uiso   1.00
N55    N     0.16667   0.28402   0.25000   0.00000  Uiso   1.00
N56    N     0.16667   0.04931   0.25000   0.00000  Uiso   1.00
C57    C     0.23394   0.11441   0.38319   0.00000  Uiso   1.00
H58    H     0.26415   0.12476   0.39748   0.00000  Uiso   1.00
H59    H     0.22972   0.07598   0.38664   0.00000  Uiso   1.00
H60    H     0.23594   0.12291   0.34740   0.00000  Uiso   1.00
C61    C     0.09941   0.21894   0.11681   0.00000  Uiso   1.00
H62    H     0.06919   0.20862   0.10251   0.00000  Uiso   1.00
H63    H     0.09739   0.21043   0.15259   0.00000  Uiso   1.00
H64    H     0.10366   0.25737   0.11337   0.00000  Uiso   1.00
O65    O     0.43988   0.20625   0.25000   0.00000  Uiso   1.00
O66    O     0.56012   0.12709   0.25001   0.00000  Uiso   1.00
O67    O     0.56012   0.20625   0.25001   0.00000  Uiso   1.00
O68    O     0.43988   0.12709   0.25000   0.00000  Uiso   1.00
C69    C     0.42069   0.16665   0.24995   0.00000  Uiso   1.00
C70    C     0.57931   0.16668   0.25005   0.00000  Uiso   1.00
O71    O     0.49999   0.20627   0.18513   0.00000  Uiso   1.00
O72    O     0.50001   0.12707   0.31487   0.00000  Uiso   1.00
O73    O     0.50001   0.20627   0.31487   0.00000  Uiso   1.00
O74    O     0.49999   0.12707   0.18513   0.00000  Uiso   1.00
C75    C     0.49855   0.16663   0.16449   0.00000  Uiso   1.00
C76    C     0.50145   0.16670   0.33551   0.00000  Uiso   1.00
Cu77   Cu    0.50000   0.21355   0.25000   0.00000  Uiso   1.00
Cu78   Cu    0.50000   0.11978   0.25000   0.00000  Uiso   1.00
C79    C     0.53291   0.13996   0.40732   0.00000  Uiso   1.00
C80    C     0.46710   0.19338   0.09268   0.00000  Uiso   1.00
C81    C     0.50352   0.16688   0.38376   0.00000  Uiso   1.00
C82    C     0.49649   0.16646   0.11624   0.00000  Uiso   1.00
C83    C     0.47477   0.19439   0.40619   0.00000  Uiso   1.00
C84    C     0.52524   0.13895   0.09381   0.00000  Uiso   1.00
C85    C     0.47337   0.19464   0.45226   0.00000  Uiso   1.00
C86    C     0.52664   0.13871   0.04775   0.00000  Uiso   1.00
C87    C     0.50105   0.16669   0.47660   0.00000  Uiso   1.00
C88    C     0.49896   0.16666   0.02340   0.00000  Uiso   1.00
C89    C     0.53085   0.13896   0.45430   0.00000  Uiso   1.00
C90    C     0.46916   0.19439   0.04570   0.00000  Uiso   1.00
C91    C     0.44426   0.22222   0.47420   0.00000  Uiso   1.00
C92    C     0.55576   0.11113   0.02580   0.00000  Uiso   1.00
C93    C     0.44216   0.22223   0.02030   0.00000  Uiso   1.00
C94    C     0.55786   0.11113   0.47970   0.00000  Uiso   1.00
H95    H     0.45281   0.21514   0.38745   0.00000  Uiso   1.00
H96    H     0.54720   0.11820   0.11255   0.00000  Uiso   1.00
H97    H     0.42296   0.24390   0.45562   0.00000  Uiso   1.00
H98    H     0.57706   0.08946   0.04438   0.00000  Uiso   1.00
H99    H     0.41928   0.24451   0.03557   0.00000  Uiso   1.00
H100   H     0.58074   0.08885   0.46443   0.00000  Uiso   1.00
C101   C     0.35459   0.12416   0.25198   0.00000  Uiso   1.00
C102   C     0.64541   0.20918   0.24802   0.00000  Uiso   1.00
C103   C     0.64534   0.12418   0.25210   0.00000  Uiso   1.00
C104   C     0.35466   0.20916   0.24790   0.00000  Uiso   1.00
H105   H     0.37058   0.09093   0.25360   0.00000  Uiso   1.00
H106   H     0.62942   0.24240   0.24640   0.00000  Uiso   1.00
H107   H     0.62930   0.09096   0.25382   0.00000  Uiso   1.00
H108   H     0.37070   0.24237   0.24618   0.00000  Uiso   1.00
C109   C     0.62393   0.16668   0.25009   0.00000  Uiso   1.00
C110   C     0.37607   0.16665   0.24991   0.00000  Uiso   1.00
C111   C     0.47394   0.02474   0.22293   0.00000  Uiso   1.00
C112   C     0.52606   0.30860   0.27707   0.00000  Uiso   1.00
C113   C     0.52606   0.02487   0.27707   0.00000  Uiso   1.00
C114   C     0.47394   0.30846   0.22293   0.00000  Uiso   1.00
H115   H     0.45307   0.04338   0.20125   0.00000  Uiso   1.00
H116   H     0.54693   0.28995   0.29875   0.00000  Uiso   1.00
H117   H     0.54694   0.04362   0.29874   0.00000  Uiso   1.00
H118   H     0.45306   0.28971   0.20126   0.00000  Uiso   1.00
N119   N     0.50000   0.28402   0.25000   0.00000  Uiso   1.00
N120   N     0.50000   0.04931   0.25000   0.00000  Uiso   1.00
C121   C     0.56727   0.11441   0.38319   0.00000  Uiso   1.00
H122   H     0.59748   0.12476   0.39748   0.00000  Uiso   1.00
H123   H     0.56305   0.07598   0.38664   0.00000  Uiso   1.00
H124   H     0.56927   0.12291   0.34740   0.00000  Uiso   1.00
C125   C     0.43274   0.21894   0.11681   0.00000  Uiso   1.00
H126   H     0.40253   0.20862   0.10251   0.00000  Uiso   1.00
H127   H     0.43073   0.21043   0.15259   0.00000  Uiso   1.00
H128   H     0.43699   0.25737   0.11337   0.00000  Uiso   1.00
O129   O     0.77321   0.20625   0.25000   0.00000  Uiso   1.00
O130   O     0.89345   0.12709   0.25001   0.00000  Uiso   1.00
O131   O     0.89345   0.20625   0.25001   0.00000  Uiso   1.00
O132   O     0.77321   0.12709   0.25000   0.00000  Uiso   1.00
C133   C     0.75402   0.16665   0.24995   0.00000  Uiso   1.00
C134   C     0.91265   0.16668   0.25005   0.00000  Uiso   1.00
O135   O     0.83332   0.20627   0.18513   0.00000  Uiso   1.00
O136   O     0.83334   0.12707   0.31487   0.00000  Uiso   1.00
O137   O     0.83334   0.20627   0.31487   0.00000  Uiso   1.00
O138   O     0.83332   0.12707   0.18513   0.00000  Uiso   1.00
C139   C     0.83188   0.16663   0.16449   0.00000  Uiso   1.00
C140   C     0.83478   0.16670   0.33551   0.00000  Uiso   1.00
Cu141  Cu    0.83333   0.21355   0.25000   0.00000  Uiso   1.00
Cu142  Cu    0.83333   0.11978   0.25000   0.00000  Uiso   1.00
C143   C     0.86624   0.13996   0.40732   0.00000  Uiso   1.00
C144   C     0.80043   0.19338   0.09268   0.00000  Uiso   1.00
C145   C     0.83685   0.16688   0.38376   0.00000  Uiso   1.00
C146   C     0.82982   0.16646   0.11624   0.00000  Uiso   1.00
C147   C     0.80810   0.19439   0.40619   0.00000  Uiso   1.00
C148   C     0.85857   0.13895   0.09381   0.00000  Uiso   1.00
C149   C     0.80671   0.19464   0.45226   0.00000  Uiso   1.00
C150   C     0.85997   0.13871   0.04775   0.00000  Uiso   1.00
C151   C     0.83438   0.16669   0.47660   0.00000  Uiso   1.00
C152   C     0.83230   0.16666   0.02340   0.00000  Uiso   1.00
C153   C     0.86418   0.13896   0.45430   0.00000  Uiso   1.00
C154   C     0.80250   0.19439   0.04570   0.00000  Uiso   1.00
C155   C     0.77759   0.22222   0.47420   0.00000  Uiso   1.00
C156   C     0.88909   0.11113   0.02580   0.00000  Uiso   1.00
C157   C     0.77549   0.22223   0.02030   0.00000  Uiso   1.00
C158   C     0.89119   0.11113   0.47970   0.00000  Uiso   1.00
H159   H     0.78614   0.21514   0.38745   0.00000  Uiso   1.00
H160   H     0.88053   0.11820   0.11255   0.00000  Uiso   1.00
H161   H     0.75629   0.24390   0.45562   0.00000  Uiso   1.00
H162   H     0.91040   0.08946   0.04438   0.00000  Uiso   1.00
H163   H     0.75262   0.24451   0.03557   0.00000  Uiso   1.00
H164   H     0.91408   0.08885   0.46443   0.00000  Uiso   1.00
C165   C     0.68792   0.12416   0.25198   0.00000  Uiso   1.00
C166   C     0.97875   0.20918   0.24802   0.00000  Uiso   1.00
C167   C     0.97868   0.12418   0.25210   0.00000  Uiso   1.00
C168   C     0.68799   0.20916   0.24790   0.00000  Uiso   1.00
H169   H     0.70391   0.09093   0.25360   0.00000  Uiso   1.00
H170   H     0.96276   0.24240   0.24640   0.00000  Uiso   1.00
H171   H     0.96263   0.09096   0.25382   0.00000  Uiso   1.00
H172   H     0.70403   0.24237   0.24618   0.00000  Uiso   1.00
C173   C     0.95726   0.16668   0.25009   0.00000  Uiso   1.00
C174   C     0.70941   0.16665   0.24991   0.00000  Uiso   1.00
C175   C     0.80727   0.02474   0.22293   0.00000  Uiso   1.00
C176   C     0.85939   0.30860   0.27707   0.00000  Uiso   1.00
C177   C     0.85940   0.02487   0.27707   0.00000  Uiso   1.00
C178   C     0.80727   0.30846   0.22293   0.00000  Uiso   1.00
H179   H     0.78640   0.04338   0.20125   0.00000  Uiso   1.00
H180   H     0.88027   0.28995   0.29875   0.00000  Uiso   1.00
H181   H     0.88028   0.04362   0.29874   0.00000  Uiso   1.00
H182   H     0.78639   0.28971   0.20126   0.00000  Uiso   1.00
N183   N     0.83333   0.28402   0.25000   0.00000  Uiso   1.00
N184   N     0.83333   0.04931   0.25000   0.00000  Uiso   1.00
C185   C     0.90061   0.11441   0.38319   0.00000  Uiso   1.00
H186   H     0.93082   0.12476   0.39748   0.00000  Uiso   1.00
H187   H     0.89638   0.07598   0.38664   0.00000  Uiso   1.00
H188   H     0.90261   0.12291   0.34740   0.00000  Uiso   1.00
C189   C     0.76607   0.21894   0.11681   0.00000  Uiso   1.00
H190   H     0.73586   0.20862   0.10251   0.00000  Uiso   1.00
H191   H     0.76406   0.21043   0.15259   0.00000  Uiso   1.00
H192   H     0.77032   0.25737   0.11337   0.00000  Uiso   1.00
O193   O     0.10655   0.53958   0.25000   0.00000  Uiso   1.00
O194   O     0.22679   0.46042   0.25001   0.00000  Uiso   1.00
O195   O     0.22679   0.53958   0.25001   0.00000  Uiso   1.00
O196   O     0.10655   0.46042   0.25000   0.00000  Uiso   1.00
C197   C     0.08735   0.49999   0.24995   0.00000  Uiso   1.00
C198   C     0.24598   0.50001   0.25005   0.00000  Uiso   1.00
O199   O     0.16666   0.53960   0.18513   0.00000  Uiso   1.00
O200   O     0.16668   0.46040   0.31487   0.00000  Uiso   1.00
O201   O     0.16668   0.53960   0.31487   0.00000  Uiso   1.00
O202   O     0.16666   0.46040   0.18513   0.00000  Uiso   1.00
C203   C     0.16522   0.49997   0.16449   0.00000  Uiso   1.00
C204   C     0.16812   0.50003   0.33551   0.00000  Uiso   1.00
Cu205  Cu    0.16667   0.54689   0.25000   0.00000  Uiso   1.00
Cu206  Cu    0.16667   0.45311   0.25000   0.00000  Uiso   1.00
C207   C     0.19957   0.47329   0.40732   0.00000  Uiso   1.00
C208   C     0.13377   0.52671   0.09268   0.00000  Uiso   1.00
C209   C     0.17018   0.50021   0.38376   0.00000  Uiso   1.00
C210   C     0.16315   0.49979   0.11624   0.00000  Uiso   1.00
C211   C     0.14144   0.52773   0.40619   0.00000  Uiso   1.00
C212   C     0.19190   0.47228   0.09381   0.00000  Uiso   1.00
C213   C     0.14004   0.52797   0.45226   0.00000  Uiso   1.00
C214   C     0.19331   0.47204   0.04775   0.00000  Uiso   1.00
C215   C     0.16771   0.50002   0.47660   0.00000  Uiso   1.00
C216   C     0.16563   0.49999   0.02340   0.00000  Uiso   1.00
C217   C     0.19752   0.47229   0.45430   0.00000  Uiso   1.00
C218   C     0.13583   0.52772   0.04570   0.00000  Uiso   1.00
C219   C     0.11093   0.55555   0.47420   0.00000  Uiso   1.00
C220   C     0.22242   0.44447   0.02580   0.00000  Uiso   1.00
C221   C     0.10882   0.55556   0.02030   0.00000  Uiso   1.00
C222   C     0.22453   0.44446   0.47970   0.00000  Uiso   1.00
H223   H     0.11948   0.54848   0.38745   0.00000  Uiso   1.00
H224   H     0.21386   0.45153   0.11255   0.00000  Uiso   1.00
H225   H     0.08962   0.57723   0.45562   0.00000  Uiso   1.00
H226   H     0.24373   0.42279   0.04438   0.00000  Uiso   1.00
H227   H     0.08595   0.57784   0.03557   0.00000  Uiso   1.00
H228   H     0.24741   0.42219   0.46443   0.00000  Uiso   1.00
C229   C     0.02125   0.45749   0.25198   0.00000  Uiso   1.00
C230   C     0.31208   0.54251   0.24802   0.00000  Uiso   1.00
C231   C     0.31201   0.45751   0.25210   0.00000  Uiso   1.00
C232   C     0.02132   0.54249   0.24790   0.00000  Uiso   1.00
H233   H     0.03724   0.42427   0.25360   0.00000  Uiso   1.00
H234   H     0.29609   0.57574   0.24640   0.00000  Uiso   1.00
H235   H     0.29597   0.42429   0.25382   0.00000  Uiso   1.00
H236   H     0.03737   0.57571   0.24618   0.00000  Uiso   1.00
C237   C     0.29059   0.50002   0.25009   0.00000  Uiso   1.00
C238   C     0.04274   0.49998   0.24991   0.00000  Uiso   1.00
C239   C     0.14061   0.35807   0.22293   0.00000  Uiso   1.00
C240   C     0.19273   0.64193   0.27707   0.00000  Uiso   1.00
C241   C     0.19273   0.35821   0.27707   0.00000  Uiso   1.00
C242   C     0.14061   0.64179   0.22293   0.00000  Uiso   1.00
H243   H     0.11973   0.37672   0.20125   0.00000  Uiso   1.00
H244   H     0.21360   0.62328   0.29875   0.00000  Uiso   1.00
H245   H     0.21361   0.37695   0.29874   0.00000  Uiso   1.00
H246   H     0.11972   0.62305   0.20126   0.00000  Uiso   1.00
N247   N     0.16667   0.61736   0.25000   0.00000  Uiso   1.00
N248   N     0.16667   0.38264   0.25000   0.00000  Uiso   1.00
C249   C     0.23394   0.44774   0.38319   0.00000  Uiso   1.00
H250   H     0.26415   0.45810   0.39748   0.00000  Uiso   1.00
H251   H     0.22972   0.40931   0.38664   0.00000  Uiso   1.00
H252   H     0.23594   0.45624   0.34740   0.00000  Uiso   1.00
C253   C     0.09941   0.55228   0.11681   0.00000  Uiso   1.00
H254   H     0.06919   0.54195   0.10251   0.00000  Uiso   1.00
H255   H     0.09739   0.54376   0.15259   0.00000  Uiso   1.00
H256   H     0.10366   0.59070   0.11337   0.00000  Uiso   1.00
O257   O     0.43988   0.53958   0.25000   0.00000  Uiso   1.00
O258   O     0.56012   0.46042   0.25001   0.00000  Uiso   1.00
O259   O     0.56012   0.53958   0.25001   0.00000  Uiso   1.00
O260   O     0.43988   0.46042   0.25000   0.00000  Uiso   1.00
C261   C     0.42069   0.49999   0.24995   0.00000  Uiso   1.00
C262   C     0.57931   0.50001   0.25005   0.00000  Uiso   1.00
O263   O     0.49999   0.53960   0.18513   0.00000  Uiso   1.00
O264   O     0.50001   0.46040   0.31487   0.00000  Uiso   1.00
O265   O     0.50001   0.53960   0.31487   0.00000  Uiso   1.00
O266   O     0.49999   0.46040   0.18513   0.00000  Uiso   1.00
C267   C     0.49855   0.49997   0.16449   0.00000  Uiso   1.00
C268   C     0.50145   0.50003   0.33551   0.00000  Uiso   1.00
Cu269  Cu    0.50000   0.54689   0.25000   0.00000  Uiso   1.00
Cu270  Cu    0.50000   0.45311   0.25000   0.00000  Uiso   1.00
C271   C     0.53291   0.47329   0.40732   0.00000  Uiso   1.00
C272   C     0.46710   0.52671   0.09268   0.00000  Uiso   1.00
C273   C     0.50352   0.50021   0.38376   0.00000  Uiso   1.00
C274   C     0.49649   0.49979   0.11624   0.00000  Uiso   1.00
C275   C     0.47477   0.52773   0.40619   0.00000  Uiso   1.00
C276   C     0.52524   0.47228   0.09381   0.00000  Uiso   1.00
C277   C     0.47337   0.52797   0.45226   0.00000  Uiso   1.00
C278   C     0.52664   0.47204   0.04775   0.00000  Uiso   1.00
C279   C     0.50105   0.50002   0.47660   0.00000  Uiso   1.00
C280   C     0.49896   0.49999   0.02340   0.00000  Uiso   1.00
C281   C     0.53085   0.47229   0.45430   0.00000  Uiso   1.00
C282   C     0.46916   0.52772   0.04570   0.00000  Uiso   1.00
C283   C     0.44426   0.55555   0.47420   0.00000  Uiso   1.00
C284   C     0.55576   0.44447   0.02580   0.00000  Uiso   1.00
C285   C     0.44216   0.55556   0.02030   0.00000  Uiso   1.00
C286   C     0.55786   0.44446   0.47970   0.00000  Uiso   1.00
H287   H     0.45281   0.54848   0.38745   0.00000  Uiso   1.00
H288   H     0.54720   0.45153   0.11255   0.00000  Uiso   1.00
H289   H     0.42296   0.57723   0.45562   0.00000  Uiso   1.00
H290   H     0.57706   0.42279   0.04438   0.00000  Uiso   1.00
H291   H     0.41928   0.57784   0.03557   0.00000  Uiso   1.00
H292   H     0.58074   0.42219   0.46443   0.00000  Uiso   1.00
C293   C     0.35459   0.45749   0.25198   0.00000  Uiso   1.00
C294   C     0.64541   0.54251   0.24802   0.00000  Uiso   1.00
C295   C     0.64534   0.45751   0.25210   0.00000  Uiso   1.00
C296   C     0.35466   0.54249   0.24790   0.00000  Uiso   1.00
H297   H     0.37058   0.42427   0.25360   0.00000  Uiso   1.00
H298   H     0.62942   0.57574   0.24640   0.00000  Uiso   1.00
H299   H     0.62930   0.42429   0.25382   0.00000  Uiso   1.00
H300   H     0.37070   0.57571   0.24618   0.00000  Uiso   1.00
C301   C     0.62393   0.50002   0.25009   0.00000  Uiso   1.00
C302   C     0.37607   0.49998   0.24991   0.00000  Uiso   1.00
C303   C     0.47394   0.35807   0.22293   0.00000  Uiso   1.00
C304   C     0.52606   0.64193   0.27707   0.00000  Uiso   1.00
C305   C     0.52606   0.35821   0.27707   0.00000  Uiso   1.00
C306   C     0.47394   0.64179   0.22293   0.00000  Uiso   1.00
H307   H     0.45307   0.37672   0.20125   0.00000  Uiso   1.00
H308   H     0.54693   0.62328   0.29875   0.00000  Uiso   1.00
H309   H     0.54694   0.37695   0.29874   0.00000  Uiso   1.00
H310   H     0.45306   0.62305   0.20126   0.00000  Uiso   1.00
N311   N     0.50000   0.61736   0.25000   0.00000  Uiso   1.00
N312   N     0.50000   0.38264   0.25000   0.00000  Uiso   1.00
C313   C     0.56727   0.44774   0.38319   0.00000  Uiso   1.00
H314   H     0.59748   0.45810   0.39748   0.00000  Uiso   1.00
H315   H     0.56305   0.40931   0.38664   0.00000  Uiso   1.00
H316   H     0.56927   0.45624   0.34740   0.00000  Uiso   1.00
C317   C     0.43274   0.55228   0.11681   0.00000  Uiso   1.00
H318   H     0.40253   0.54195   0.10251   0.00000  Uiso   1.00
H319   H     0.43073   0.54376   0.15259   0.00000  Uiso   1.00
H320   H     0.43699   0.59070   0.11337   0.00000  Uiso   1.00
O321   O     0.77321   0.53958   0.25000   0.00000  Uiso   1.00
O322   O     0.89345   0.46042   0.25001   0.00000  Uiso   1.00
O323   O     0.89345   0.53958   0.25001   0.00000  Uiso   1.00
O324   O     0.77321   0.46042   0.25000   0.00000  Uiso   1.00
C325   C     0.75402   0.49999   0.24995   0.00000  Uiso   1.00
C326   C     0.91265   0.50001   0.25005   0.00000  Uiso   1.00
O327   O     0.83332   0.53960   0.18513   0.00000  Uiso   1.00
O328   O     0.83334   0.46040   0.31487   0.00000  Uiso   1.00
O329   O     0.83334   0.53960   0.31487   0.00000  Uiso   1.00
O330   O     0.83332   0.46040   0.18513   0.00000  Uiso   1.00
C331   C     0.83188   0.49997   0.16449   0.00000  Uiso   1.00
C332   C     0.83478   0.50003   0.33551   0.00000  Uiso   1.00
Cu333  Cu    0.83333   0.54689   0.25000   0.00000  Uiso   1.00
Cu334  Cu    0.83333   0.45311   0.25000   0.00000  Uiso   1.00
C335   C     0.86624   0.47329   0.40732   0.00000  Uiso   1.00
C336   C     0.80043   0.52671   0.09268   0.00000  Uiso   1.00
C337   C     0.83685   0.50021   0.38376   0.00000  Uiso   1.00
C338   C     0.82982   0.49979   0.11624   0.00000  Uiso   1.00
C339   C     0.80810   0.52773   0.40619   0.00000  Uiso   1.00
C340   C     0.85857   0.47228   0.09381   0.00000  Uiso   1.00
C341   C     0.80671   0.52797   0.45226   0.00000  Uiso   1.00
C342   C     0.85997   0.47204   0.04775   0.00000  Uiso   1.00
C343   C     0.83438   0.50002   0.47660   0.00000  Uiso   1.00
C344   C     0.83230   0.49999   0.02340   0.00000  Uiso   1.00
C345   C     0.86418   0.47229   0.45430   0.00000  Uiso   1.00
C346   C     0.80250   0.52772   0.04570   0.00000  Uiso   1.00
C347   C     0.77759   0.55555   0.47420   0.00000  Uiso   1.00
C348   C     0.88909   0.44447   0.02580   0.00000  Uiso   1.00
C349   C     0.77549   0.55556   0.02030   0.00000  Uiso   1.00
C350   C     0.89119   0.44446   0.47970   0.00000  Uiso   1.00
H351   H     0.78614   0.54848   0.38745   0.00000  Uiso   1.00
H352   H     0.88053   0.45153   0.11255   0.00000  Uiso   1.00
H353   H     0.75629   0.57723   0.45562   0.00000  Uiso   1.00
H354   H     0.91040   0.42279   0.04438   0.00000  Uiso   1.00
H355   H     0.75262   0.57784   0.03557   0.00000  Uiso   1.00
H356   H     0.91408   0.42219   0.46443   0.00000  Uiso   1.00
C357   C     0.68792   0.45749   0.25198   0.00000  Uiso   1.00
C358   C     0.97875   0.54251   0.24802   0.00000  Uiso   1.00
C359   C     0.97868   0.45751   0.25210   0.00000  Uiso   1.00
C360   C     0.68799   0.54249   0.24790   0.00000  Uiso   1.00
H361   H     0.70391   0.42427   0.25360   0.00000  Uiso   1.00
H362   H     0.96276   0.57574   0.24640   0.00000  Uiso   1.00
H363   H     0.96263   0.42429   0.25382   0.00000  Uiso   1.00
H364   H     0.70403   0.57571   0.24618   0.00000  Uiso   1.00
C365   C     0.95726   0.50002   0.25009   0.00000  Uiso   1.00
C366   C     0.70941   0.49998   0.24991   0.00000  Uiso   1.00
C367   C     0.80727   0.35807   0.22293   0.00000  Uiso   1.00
C368   C     0.85939   0.64193   0.27707   0.00000  Uiso   1.00
C369   C     0.85940   0.35821   0.27707   0.00000  Uiso   1.00
C370   C     0.80727   0.64179   0.22293   0.00000  Uiso   1.00
H371   H     0.78640   0.37672   0.20125   0.00000  Uiso   1.00
H372   H     0.88027   0.62328   0.29875   0.00000  Uiso   1.00
H373   H     0.88028   0.37695   0.29874   0.00000  Uiso   1.00
H374   H     0.78639   0.62305   0.20126   0.00000  Uiso   1.00
N375   N     0.83333   0.61736   0.25000   0.00000  Uiso   1.00
N376   N     0.83333   0.38264   0.25000   0.00000  Uiso   1.00
C377   C     0.90061   0.44774   0.38319   0.00000  Uiso   1.00
H378   H     0.93082   0.45810   0.39748   0.00000  Uiso   1.00
H379   H     0.89638   0.40931   0.38664   0.00000  Uiso   1.00
H380   H     0.90261   0.45624   0.34740   0.00000  Uiso   1.00
C381   C     0.76607   0.55228   0.11681   0.00000  Uiso   1.00
H382   H     0.73586   0.54195   0.10251   0.00000  Uiso   1.00
H383   H     0.76406   0.54376   0.15259   0.00000  Uiso   1.00
H384   H     0.77032   0.59070   0.11337   0.00000  Uiso   1.00
O385   O     0.10655   0.87291   0.25000   0.00000  Uiso   1.00
O386   O     0.22679   0.79375   0.25001   0.00000  Uiso   1.00
O387   O     0.22679   0.87291   0.25001   0.00000  Uiso   1.00
O388   O     0.10655   0.79375   0.25000   0.00000  Uiso   1.00
C389   C     0.08735   0.83332   0.24995   0.00000  Uiso   1.00
C390   C     0.24598   0.83335   0.25005   0.00000  Uiso   1.00
O391   O     0.16666   0.87293   0.18513   0.00000  Uiso   1.00
O392   O     0.16668   0.79373   0.31487   0.00000  Uiso   1.00
O393   O     0.16668   0.87293   0.31487   0.00000  Uiso   1.00
O394   O     0.16666   0.79373   0.18513   0.00000  Uiso   1.00
C395   C     0.16522   0.83330   0.16449   0.00000  Uiso   1.00
C396   C     0.16812   0.83337   0.33551   0.00000  Uiso   1.00
Cu397  Cu    0.16667   0.88022   0.25000   0.00000  Uiso   1.00
Cu398  Cu    0.16667   0.78645   0.25000   0.00000  Uiso   1.00
C399   C     0.19957   0.80663   0.40732   0.00000  Uiso   1.00
C400   C     0.13377   0.86005   0.09268   0.00000  Uiso   1.00
C401   C     0.17018   0.83354   0.38376   0.00000  Uiso   1.00
C402   C     0.16315   0.83312   0.11624   0.00000  Uiso   1.00
C403   C     0.14144   0.86106   0.40619   0.00000  Uiso   1.00
C404   C     0.19190   0.80561   0.09381   0.00000  Uiso   1.00
C405   C     0.14004   0.86130   0.45226   0.00000  Uiso   1.00
C406   C     0.19331   0.80537   0.04775   0.00000  Uiso   1.00
C407   C     0.16771   0.83335   0.47660   0.00000  Uiso   1.00
C408   C     0.16563   0.83332   0.02340   0.00000  Uiso   1.00
C409   C     0.19752   0.80562   0.45430   0.00000  Uiso   1.00
C410   C     0.13583   0.86105   0.04570   0.00000  Uiso   1.00
C411   C     0.11093   0.88889   0.47420   0.00000  Uiso   1.00
C412   C     0.22242   0.77780   0.02580   0.00000  Uiso   1.00
C413   C     0.10882   0.88889   0.02030   0.00000  Uiso   1.00
C414   C     0.22453   0.77779   0.47970   0.00000  Uiso   1.00
H415   H     0.11948   0.88181   0.38745   0.00000  Uiso   1.00
H416   H     0.21386   0.78486   0.11255   0.00000  Uiso   1.00
H417   H     0.08962   0.91056   0.45562   0.00000  Uiso   1.00
H418   H     0.24373   0.75613   0.04438   0.00000  Uiso   1.00
H419   H     0.08595   0.91118   0.03557   0.00000  Uiso   1.00
H420   H     0.24741   0.75552   0.46443   0.00000  Uiso   1.00
C421   C     0.02125   0.79082   0.25198   0.00000  Uiso   1.00
C422   C     0.31208   0.87584   0.24802   0.00000  Uiso   1.00
C423   C     0.31201   0.79084   0.25210   0.00000  Uiso   1.00
C424   C     0.02132   0.87582   0.24790   0.00000  Uiso   1.00
H425   H     0.03724   0.75760   0.25360   0.00000  Uiso   1.00
H426   H     0.29609   0.90907   0.24640   0.00000  Uiso   1.00
H427   H     0.29597   0.75763   0.25382   0.00000  Uiso   1.00
H428   H     0.03737   0.90904   0.24618   0.00000  Uiso   1.00
C429   C     0.29059   0.83335   0.25009   0.00000  Uiso   1.00
C430   C     0.04274   0.83332   0.24991   0.00000  Uiso   1.00
C431   C     0.14061   0.69141   0.22293   0.00000  Uiso   1.00
C432   C     0.19273   0.97526   0.27707   0.00000  Uiso   1.00
C433   C     0.19273   0.69154   0.27707   0.00000  Uiso   1.00
C434   C     0.14061   0.97513   0.22293   0.00000  Uiso   1.00
H435   H     0.11973   0.71005   0.20125   0.00000  Uiso   1.00
H436   H     0.21360   0.95662   0.29875   0.00000  Uiso   1.00
H437   H     0.21361   0.71029   0.29874   0.00000  Uiso   1.00
H438   H     0.11972   0.95638   0.20126   0.00000  Uiso   1.00
N439   N     0.16667   0.95069   0.25000   0.00000  Uiso   1.00
N440   N     0.16667   0.71598   0.25000   0.00000  Uiso   1.00
C441   C     0.23394   0.78107   0.38319   0.00000  Uiso   1.00
H442   H     0.26415   0.79143   0.39748   0.00000  Uiso   1.00
H443   H     0.22972   0.74265   0.38664   0.00000  Uiso   1.00
H444   H     0.23594   0.78958   0.34740   0.00000  Uiso   1.00
C445   C     0.09941   0.88561   0.11681   0.00000  Uiso   1.00
H446   H     0.06919   0.87529   0.10251   0.00000  Uiso   1.00
H447   H     0.09739   0.87710   0.15259   0.00000  Uiso   1.00
H448   H     0.10366   0.92403   0.11337   0.00000  Uiso   1.00
O449   O     0.43988   0.87291   0.25000   0.00000  Uiso   1.00
O450   O     0.56012   0.79375   0.25001   0.00000  Uiso   1.00
O451   O     0.56012   0.87291   0.25001   0.00000  Uiso   1.00
O452   O     0.43988   0.79375   0.25000   0.00000  Uiso   1.00
C453   C     0.42069   0.83332   0.24995   0.00000  Uiso   1.00
C454   C     0.57931   0.83335   0.25005   0.00000  Uiso   1.00
O455   O     0.49999   0.87293   0.18513   0.00000  Uiso   1.00
O456   O     0.50001   0.79373   0.31487   0.00000  Uiso   1.00
O457   O     0.50001   0.87293   0.31487   0.00000  Uiso   1.00
O458   O     0.49999   0.79373   0.18513   0.00000  Uiso   1.00
C459   C     0.49855   0.83330   0.16449   0.00000  Uiso   1.00
C460   C     0.50145   0.83337   0.33551   0.00000  Uiso   1.00
Cu461  Cu    0.50000   0.88022   0.25000   0.00000  Uiso   1.00
Cu462  Cu    0.50000   0.78645   0.25000   0.00000  Uiso   1.00
C463   C     0.53291   0.80663   0.40732   0.00000  Uiso   1.00
C464   C     0.46710   0.86005   0.09268   0.00000  Uiso   1.00
C465   C     0.50352   0.83354   0.38376   0.00000  Uiso   1.00
C466   C     0.49649   0.83312   0.11624   0.00000  Uiso   1.00
C467   C     0.47477   0.86106   0.40619   0.00000  Uiso   1.00
C468   C     0.52524   0.80561   0.09381   0.00000  Uiso   1.00
C469   C     0.47337   0.86130   0.45226   0.00000  Uiso   1.00
C470   C     0.52664   0.80537   0.04775   0.00000  Uiso   1.00
C471   C     0.50105   0.83335   0.47660   0.00000  Uiso   1.00
C472   C     0.49896   0.83332   0.02340   0.00000  Uiso   1.00
C473   C     0.53085   0.80562   0.45430   0.00000  Uiso   1.00
C474   C     0.46916   0.86105   0.04570   0.00000  Uiso   1.00
C475   C     0.44426   0.88889   0.47420   0.00000  Uiso   1.00
C476   C     0.55576   0.77780   0.02580   0.00000  Uiso   1.00
C477   C     0.44216   0.88889   0.02030   0.00000  Uiso   1.00
C478   C     0.55786   0.77779   0.47970   0.00000  Uiso   1.00
H479   H     0.45281   0.88181   0.38745   0.00000  Uiso   1.00
H480   H     0.54720   0.78486   0.11255   0.00000  Uiso   1.00
H481   H     0.42296   0.91056   0.45562   0.00000  Uiso   1.00
H482   H     0.57706   0.75613   0.04438   0.00000  Uiso   1.00
H483   H     0.41928   0.91118   0.03557   0.00000  Uiso   1.00
H484   H     0.58074   0.75552   0.46443   0.00000  Uiso   1.00
C485   C     0.35459   0.79082   0.25198   0.00000  Uiso   1.00
C486   C     0.64541   0.87584   0.24802   0.00000  Uiso   1.00
C487   C     0.64534   0.79084   0.25210   0.00000  Uiso   1.00
C488   C     0.35466   0.87582   0.24790   0.00000  Uiso   1.00
H489   H     0.37058   0.75760   0.25360   0.00000  Uiso   1.00
H490   H     0.62942   0.90907   0.24640   0.00000  Uiso   1.00
H491   H     0.62930   0.75763   0.25382   0.00000  Uiso   1.00
H492   H     0.37070   0.90904   0.24618   0.00000  Uiso   1.00
C493   C     0.62393   0.83335   0.25009   0.00000  Uiso   1.00
C494   C     0.37607   0.83332   0.24991   0.00000  Uiso   1.00
C495   C     0.47394   0.69141   0.22293   0.00000  Uiso   1.00
C496   C     0.52606   0.97526   0.27707   0.00000  Uiso   1.00
C497   C     0.52606   0.69154   0.27707   0.00000  Uiso   1.00
C498   C     0.47394   0.97513   0.22293   0.00000  Uiso   1.00
H499   H     0.45307   0.71005   0.20125   0.00000  Uiso   1.00
H500   H     0.54693   0.95662   0.29875   0.00000  Uiso   1.00
H501   H     0.54694   0.71029   0.29874   0.00000  Uiso   1.00
H502   H     0.45306   0.95638   0.20126   0.00000  Uiso   1.00
N503   N     0.50000   0.95069   0.25000   0.00000  Uiso   1.00
N504   N     0.50000   0.71598   0.25000   0.00000  Uiso   1.00
C505   C     0.56727   0.78107   0.38319   0.00000  Uiso   1.00
H506   H     0.59748   0.79143   0.39748   0.00000  Uiso   1.00
H507   H     0.56305   0.74265   0.38664   0.00000  Uiso   1.00
H508   H     0.56927   0.78958   0.34740   0.00000  Uiso   1.00
C509   C     0.43274   0.88561   0.11681   0.00000  Uiso   1.00
H510   H     0.40253   0.87529   0.10251   0.00000  Uiso   1.00
H511   H     0.43073   0.87710   0.15259   0.00000  Uiso   1.00
H512   H     0.43699   0.92403   0.11337   0.00000  Uiso   1.00
O513   O     0.77321   0.87291   0.25000   0.00000  Uiso   1.00
O514   O     0.89345   0.79375   0.25001   0.00000  Uiso   1.00
O515   O     0.89345   0.87291   0.25001   0.00000  Uiso   1.00
O516   O     0.77321   0.79375   0.25000   0.00000  Uiso   1.00
C517   C     0.75402   0.83332   0.24995   0.00000  Uiso   1.00
C518   C     0.91265   0.83335   0.25005   0.00000  Uiso   1.00
O519   O     0.83332   0.87293   0.18513   0.00000  Uiso   1.00
O520   O     0.83334   0.79373   0.31487   0.00000  Uiso   1.00
O521   O     0.83334   0.87293   0.31487   0.00000  Uiso   1.00
O522   O     0.83332   0.79373   0.18513   0.00000  Uiso   1.00
C523   C     0.83188   0.83330   0.16449   0.00000  Uiso   1.00
C524   C     0.83478   0.83337   0.33551   0.00000  Uiso   1.00
Cu525  Cu    0.83333   0.88022   0.25000   0.00000  Uiso   1.00
Cu526  Cu    0.83333   0.78645   0.25000   0.00000  Uiso   1.00
C527   C     0.86624   0.80663   0.40732   0.00000  Uiso   1.00
C528   C     0.80043   0.86005   0.09268   0.00000  Uiso   1.00
C529   C     0.83685   0.83354   0.38376   0.00000  Uiso   1.00
C530   C     0.82982   0.83312   0.11624   0.00000  Uiso   1.00
C531   C     0.80810   0.86106   0.40619   0.00000  Uiso   1.00
C532   C     0.85857   0.80561   0.09381   0.00000  Uiso   1.00
C533   C     0.80671   0.86130   0.45226   0.00000  Uiso   1.00
C534   C     0.85997   0.80537   0.04775   0.00000  Uiso   1.00
C535   C     0.83438   0.83335   0.47660   0.00000  Uiso   1.00
C536   C     0.83230   0.83332   0.02340   0.00000  Uiso   1.00
C537   C     0.86418   0.80562   0.45430   0.00000  Uiso   1.00
C538   C     0.80250   0.86105   0.04570   0.00000  Uiso   1.00
C539   C     0.77759   0.88889   0.47420   0.00000  Uiso   1.00
C540   C     0.88909   0.77780   0.02580   0.00000  Uiso   1.00
C541   C     0.77549   0.88889   0.02030   0.00000  Uiso   1.00
C542   C     0.89119   0.77779   0.47970   0.00000  Uiso   1.00
H543   H     0.78614   0.88181   0.38745   0.00000  Uiso   1.00
H544   H     0.88053   0.78486   0.11255   0.00000  Uiso   1.00
H545   H     0.75629   0.91056   0.45562   0.00000  Uiso   1.00
H546   H     0.91040   0.75613   0.04438   0.00000  Uiso   1.00
H547   H     0.75262   0.91118   0.03557   0.00000  Uiso   1.00
H548   H     0.91408   0.75552   0.46443   0.00000  Uiso   1.00
C549   C     0.68792   0.79082   0.25198   0.00000  Uiso   1.00
C550   C     0.97875   0.87584   0.24802   0.00000  Uiso   1.00
C551   C     0.97868   0.79084   0.25210   0.00000  Uiso   1.00
C552   C     0.68799   0.87582   0.24790   0.00000  Uiso   1.00
H553   H     0.70391   0.75760   0.25360   0.00000  Uiso   1.00
H554   H     0.96276   0.90907   0.24640   0.00000  Uiso   1.00
H555   H     0.96263   0.75763   0.25382   0.00000  Uiso   1.00
H556   H     0.70403   0.90904   0.24618   0.00000  Uiso   1.00
C557   C     0.95726   0.83335   0.25009   0.00000  Uiso   1.00
C558   C     0.70941   0.83332   0.24991   0.00000  Uiso   1.00
C559   C     0.80727   0.69141   0.22293   0.00000  Uiso   1.00
C560   C     0.85939   0.97526   0.27707   0.00000  Uiso   1.00
C561   C     0.85940   0.69154   0.27707   0.00000  Uiso   1.00
C562   C     0.80727   0.97513   0.22293   0.00000  Uiso   1.00
H563   H     0.78640   0.71005   0.20125   0.00000  Uiso   1.00
H564   H     0.88027   0.95662   0.29875   0.00000  Uiso   1.00
H565   H     0.88028   0.71029   0.29874   0.00000  Uiso   1.00
H566   H     0.78639   0.95638   0.20126   0.00000  Uiso   1.00
N567   N     0.83333   0.95069   0.25000   0.00000  Uiso   1.00
N568   N     0.83333   0.71598   0.25000   0.00000  Uiso   1.00
C569   C     0.90061   0.78107   0.38319   0.00000  Uiso   1.00
H570   H     0.93082   0.79143   0.39748   0.00000  Uiso   1.00
H571   H     0.89638   0.74265   0.38664   0.00000  Uiso   1.00
H572   H     0.90261   0.78958   0.34740   0.00000  Uiso   1.00
C573   C     0.76607   0.88561   0.11681   0.00000  Uiso   1.00
H574   H     0.73586   0.87529   0.10251   0.00000  Uiso   1.00
H575   H     0.76406   0.87710   0.15259   0.00000  Uiso   1.00
H576   H     0.77032   0.92403   0.11337   0.00000  Uiso   1.00
O577   O     0.10655   0.20625   0.75000   0.00000  Uiso   1.00
O578   O     0.22679   0.12709   0.75001   0.00000  Uiso   1.00
O579   O     0.22679   0.20625   0.75001   0.00000  Uiso   1.00
O580   O     0.10655   0.12709   0.75000   0.00000  Uiso   1.00
C581   C     0.08735   0.16665   0.74995   0.00000  Uiso   1.00
C582   C     0.24598   0.16668   0.75005   0.00000  Uiso   1.00
O583   O     0.16666   0.20627   0.68513   0.00000  Uiso   1.00
O584   O     0.16668   0.12707   0.81487   0.00000  Uiso   1.00
O585   O     0.16668   0.20627   0.81487   0.00000  Uiso   1.00
O586   O     0.16666   0.12707   0.68513   0.00000  Uiso   1.00
C587   C     0.16522   0.16663   0.66449   0.00000  Uiso   1.00
C588   C     0.16812   0.16670   0.83551   0.00000  Uiso   1.00
Cu589  Cu    0.16667   0.21355   0.75000   0.00000  Uiso   1.00
Cu590  Cu    0.16667   0.11978   0.75000   0.00000  Uiso   1.00
C591   C     0.19957   0.13996   0.90732   0.00000  Uiso   1.00
C592   C     0.13377   0.19338   0.59268   0.00000  Uiso   1.00
C593   C     0.17018   0.16688   0.88376   0.00000  Uiso   1.00
C594   C     0.16315   0.16646   0.61624   0.00000  Uiso   1.00
C595   C     0.14144   0.19439   0.90619   0.00000  Uiso   1.00
C596   C     0.19190   0.13895   0.59381   0.00000  Uiso   1.00
C597   C     0.14004   0.19464   0.95226   0.00000  Uiso   1.00
C598   C     0.19331   0.13871   0.54775   0.00000  Uiso   1.00
C599   C     0.16771   0.16669   0.97660   0.00000  Uiso   1.00
C600   C     0.16563   0.16666   0.52340   0.00000  Uiso   1.00
C601   C     0.19752   0.13896   0.95430   0.00000  Uiso   1.00
C602   C     0.13583   0.19439   0.54570   0.00000  Uiso   1.00
C603   C     0.11093   0.22222   0.97420   0.00000  Uiso   1.00
C604   C     0.22242   0.11113   0.52580   0.00000  Uiso   1.00
C605   C     0.10882   0.22223   0.52030   0.00000  Uiso   1.00
C606   C     0.22453   0.11113   0.97970   0.00000  Uiso   1.00
H607   H     0.11948   0.21514   0.88745   0.00000  Uiso   1.00
H608   H     0.21386   0.11820   0.61255   0.00000  Uiso   1.00
H609   H     0.08962   0.24390   0.95562   0.00000  Uiso   1.00
H610   H     0.24373   0.08946   0.54438   0.00000  Uiso   1.00
H611   H     0.08595   0.24451   0.53557   0.00000  Uiso   1.00
H612   H     0.24741   0.08885   0.96443   0.00000  Uiso   1.00
C613   C     0.02125   0.12416   0.75198   0.00000  Uiso   1.00
C614   C     0.31208   0.20918   0.74802   0.00000  Uiso   1.00
C615   C     0.31201   0.12418   0.75210   0.00000  Uiso   1.00
C616   C     0.02132   0.20916   0.74790   0.00000  Uiso   1.00
H617   H     0.03724   0.09093   0.75360   0.00000  Uiso   1.00
H618   H     0.29609   0.24240   0.74640   0.00000  Uiso   1.00
H619   H     0.29597   0.09096   0.75382   0.00000  Uiso   1.00
H620   H     0.03737   0.24237   0.74618   0.00000  Uiso   1.00
C621   C     0.29059   0.16668   0.75009   0.00000  Uiso   1.00
C622   C     0.04274   0.16665   0.74991   0.00000  Uiso   1.00
C623   C     0.14061   0.02474   0.72293   0.00000  Uiso   1.00
C624   C     0.19273   0.30860   0.77707   0.00000  Uiso   1.00
C625   C     0.19273   0.02487   0.77707   0.00000  Uiso   1.00
C626   C     0.14061   0.30846   0.72293   0.00000  Uiso   1.00
H627   H     0.11973   0.04338   0.70125   0.00000  Uiso   1.00
H628   H     0.21360   0.28995   0.79875   0.00000  Uiso   1.00
H629   H     0.21361   0.04362   0.79874   0.00000  Uiso   1.00
H630   H     0.11972   0.28971   0.70126   0.00000  Uiso   1.00
N631   N     0.16667   0.28402   0.75000   0.00000  Uiso   1.00
N632   N     0.16667   0.04931   0.75000   0.00000  Uiso   1.00
C633   C     0.23394   0.11441   0.88319   0.00000  Uiso   1.00
H634   H     0.26415   0.12476   0.89748   0.00000  Uiso   1.00
H635   H     0.22972   0.07598   0.88664   0.00000  Uiso   1.00
H636   H     0.23594   0.12291   0.84740   0.00000  Uiso   1.00
C637   C     0.09941   0.21894   0.61681   0.00000  Uiso   1.00
H638   H     0.06919   0.20862   0.60251   0.00000  Uiso   1.00
H639   H     0.09739   0.21043   0.65259   0.00000  Uiso   1.00
H640   H     0.10366   0.25737   0.61337   0.00000  Uiso   1.00
O641   O     0.43988   0.20625   0.75000   0.00000  Uiso   1.00
O642   O     0.56012   0.12709   0.75001   0.00000  Uiso   1.00
O643   O     0.56012   0.20625   0.75001   0.00000  Uiso   1.00
O644   O     0.43988   0.12709   0.75000   0.00000  Uiso   1.00
C645   C     0.42069   0.16665   0.74995   0.00000  Uiso   1.00
C646   C     0.57931   0.16668   0.75005   0.00000  Uiso   1.00
O647   O     0.49999   0.20627   0.68513   0.00000  Uiso   1.00
O648   O     0.50001   0.12707   0.81487   0.00000  Uiso   1.00
O649   O     0.50001   0.20627   0.81487   0.00000  Uiso   1.00
O650   O     0.49999   0.12707   0.68513   0.00000  Uiso   1.00
C651   C     0.49855   0.16663   0.66449   0.00000  Uiso   1.00
C652   C     0.50145   0.16670   0.83551   0.00000  Uiso   1.00
Cu653  Cu    0.50000   0.21355   0.75000   0.00000  Uiso   1.00
Cu654  Cu    0.50000   0.11978   0.75000   0.00000  Uiso   1.00
C655   C     0.53291   0.13996   0.90732   0.00000  Uiso   1.00
C656   C     0.46710   0.19338   0.59268   0.00000  Uiso   1.00
C657   C     0.50352   0.16688   0.88376   0.00000  Uiso   1.00
C658   C     0.49649   0.16646   0.61624   0.00000  Uiso   1.00
C659   C     0.47477   0.19439   0.90619   0.00000  Uiso   1.00
C660   C     0.52524   0.13895   0.59381   0.00000  Uiso   1.00
C661   C     0.47337   0.19464   0.95226   0.00000  Uiso   1.00
C662   C     0.52664   0.13871   0.54775   0.00000  Uiso   1.00
C663   C     0.50105   0.16669   0.97660   0.00000  Uiso   1.00
C664   C     0.49896   0.16666   0.52340   0.00000  Uiso   1.00
C665   C     0.53085   0.13896   0.95430   0.00000  Uiso   1.00
C666   C     0.46916   0.19439   0.54570   0.00000  Uiso   1.00
C667   C     0.44426   0.22222   0.97420   0.00000  Uiso   1.00
C668   C     0.55576   0.11113   0.52580   0.00000  Uiso   1.00
C669   C     0.44216   0.22223   0.52030   0.00000  Uiso   1.00
C670   C     0.55786   0.11113   0.97970   0.00000  Uiso   1.00
H671   H     0.45281   0.21514   0.88745   0.00000  Uiso   1.00
H672   H     0.54720   0.11820   0.61255   0.00000  Uiso   1.00
H673   H     0.42296   0.24390   0.95562   0.00000  Uiso   1.00
H674   H     0.57706   0.08946   0.54438   0.00000  Uiso   1.00
H675   H     0.41928   0.24451   0.53557   0.00000  Uiso   1.00
H676   H     0.58074   0.08885   0.96443   0.00000  Uiso   1.00
C677   C     0.35459   0.12416   0.75198   0.00000  Uiso   1.00
C678   C     0.64541   0.20918   0.74802   0.00000  Uiso   1.00
C679   C     0.64534   0.12418   0.75210   0.00000  Uiso   1.00
C680   C     0.35466   0.20916   0.74790   0.00000  Uiso   1.00
H681   H     0.37058   0.09093   0.75360   0.00000  Uiso   1.00
H682   H     0.62942   0.24240   0.74640   0.00000  Uiso   1.00
H683   H     0.62930   0.09096   0.75382   0.00000  Uiso   1.00
H684   H     0.37070   0.24237   0.74618   0.00000  Uiso   1.00
C685   C     0.62393   0.16668   0.75009   0.00000  Uiso   1.00
C686   C     0.37607   0.16665   0.74991   0.00000  Uiso   1.00
C687   C     0.47394   0.02474   0.72293   0.00000  Uiso   1.00
C688   C     0.52606   0.30860   0.77707   0.00000  Uiso   1.00
C689   C     0.52606   0.02487   0.77707   0.00000  Uiso   1.00
C690   C     0.47394   0.30846   0.72293   0.00000  Uiso   1.00
H691   H     0.45307   0.04338   0.70125   0.00000  Uiso   1.00
H692   H     0.54693   0.28995   0.79875   0.00000  Uiso   1.00
H693   H     0.54694   0.04362   0.79874   0.00000  Uiso   1.00
H694   H     0.45306   0.28971   0.70126   0.00000  Uiso   1.00
N695   N     0.50000   0.28402   0.75000   0.00000  Uiso   1.00
N696   N     0.50000   0.04931   0.75000   0.00000  Uiso   1.00
C697   C     0.56727   0.11441   0.88319   0.00000  Uiso   1.00
H698   H     0.59748   0.12476   0.89748   0.00000  Uiso   1.00
H699   H     0.56305   0.07598   0.88664   0.00000  Uiso   1.00
H700   H     0.56927   0.12291   0.84740   0.00000  Uiso   1.00
C701   C     0.43274   0.21894   0.61681   0.00000  Uiso   1.00
H702   H     0.40253   0.20862   0.60251   0.00000  Uiso   1.00
H703   H     0.43073   0.21043   0.65259   0.00000  Uiso   1.00
H704   H     0.43699   0.25737   0.61337   0.00000  Uiso   1.00
O705   O     0.77321   0.20625   0.75000   0.00000  Uiso   1.00
O706   O     0.89345   0.12709   0.75001   0.00000  Uiso   1.00
O707   O     0.89345   0.20625   0.75001   0.00000  Uiso   1.00
O708   O     0.77321   0.12709   0.75000   0.00000  Uiso   1.00
C709   C     0.75402   0.16665   0.74995   0.00000  Uiso   1.00
C710   C     0.91265   0.16668   0.75005   0.00000  Uiso   1.00
O711   O     0.83332   0.20627   0.68513   0.00000  Uiso   1.00
O712   O     0.83334   0.12707   0.81487   0.00000  Uiso   1.00
O713   O     0.83334   0.20627   0.81487   0.00000  Uiso   1.00
O714   O     0.83332   0.12707   0.68513   0.00000  Uiso   1.00
C715   C     0.83188   0.16663   0.66449   0.00000  Uiso   1.00
C716   C     0.83478   0.16670   0.83551   0.00000  Uiso   1.00
Cu717  Cu    0.83333   0.21355   0.75000   0.00000  Uiso   1.00
Cu718  Cu    0.83333   0.11978   0.75000   0.00000  Uiso   1.00
C719   C     0.86624   0.13996   0.90732   0.00000  Uiso   1.00
C720   C     0.80043   0.19338   0.59268   0.00000  Uiso   1.00
C721   C     0.83685   0.16688   0.88376   0.00000  Uiso   1.00
C722   C     0.82982   0.16646   0.61624   0.00000  Uiso   1.00
C723   C     0.80810   0.19439   0.90619   0.00000  Uiso   1.00
C724   C     0.85857   0.13895   0.59381   0.00000  Uiso   1.00
C725   C     0.80671   0.19464   0.95226   0.00000  Uiso   1.00
C726   C     0.85997   0.13871   0.54775   0.00000  Uiso   1.00
C727   C     0.83438   0.16669   0.97660   0.00000  Uiso   1.00
C728   C     0.83230   0.16666   0.52340   0.00000  Uiso   1.00
C729   C     0.86418   0.13896   0.95430   0.00000  Uiso   1.00
C730   C     0.80250   0.19439   0.54570   0.00000  Uiso   1.00
C731   C     0.77759   0.22222   0.97420   0.00000  Uiso   1.00
C732   C     0.88909   0.11113   0.52580   0.00000  Uiso   1.00
C733   C     0.77549   0.22223   0.52030   0.00000  Uiso   1.00
C734   C     0.89119   0.11113   0.97970   0.00000  Uiso   1.00
H735   H     0.78614   0.21514   0.88745   0.00000  Uiso   1.00
H736   H     0.88053   0.11820   0.61255   0.00000  Uiso   1.00
H737   H     0.75629   0.24390   0.95562   0.00000  Uiso   1.00
H738   H     0.91040   0.08946   0.54438   0.00000  Uiso   1.00
H739   H     0.75262   0.24451   0.53557   0.00000  Uiso   1.00
H740   H     0.91408   0.08885   0.96443   0.00000  Uiso   1.00
C741   C     0.68792   0.12416   0.75198   0.00000  Uiso   1.00
C742   C     0.97875   0.20918   0.74802   0.00000  Uiso   1.00
C743   C     0.97868   0.12418   0.75210   0.00000  Uiso   1.00
C744   C     0.68799   0.20916   0.74790   0.00000  Uiso   1.00
H745   H     0.70391   0.09093   0.75360   0.00000  Uiso   1.00
H746   H     0.96276   0.24240   0.74640   0.00000  Uiso   1.00
H747   H     0.96263   0.09096   0.75382   0.00000  Uiso   1.00
H748   H     0.70403   0.24237   0.74618   0.00000  Uiso   1.00
C749   C     0.95726   0.16668   0.75009   0.00000  Uiso   1.00
C750   C     0.70941   0.16665   0.74991   0.00000  Uiso   1.00
C751   C     0.80727   0.02474   0.72293   0.00000  Uiso   1.00
C752   C     0.85939   0.30860   0.77707   0.00000  Uiso   1.00
C753   C     0.85940   0.02487   0.77707   0.00000  Uiso   1.00
C754   C     0.80727   0.30846   0.72293   0.00000  Uiso   1.00
H755   H     0.78640   0.04338   0.70125   0.00000  Uiso   1.00
H756   H     0.88027   0.28995   0.79875   0.00000  Uiso   1.00
H757   H     0.88028   0.04362   0.79874   0.00000  Uiso   1.00
H758   H     0.78639   0.28971   0.70126   0.00000  Uiso   1.00
N759   N     0.83333   0.28402   0.75000   0.00000  Uiso   1.00
N760   N     0.83333   0.04931   0.75000   0.00000  Uiso   1.00
C761   C     0.90061   0.11441   0.88319   0.00000  Uiso   1.00
H762   H     0.93082   0.12476   0.89748   0.00000  Uiso   1.00
H763   H     0.89638   0.07598   0.88664   0.00000  Uiso   1.00
H764   H     0.90261   0.12291   0.84740   0.00000  Uiso   1.00
C765   C     0.76607   0.21894   0.61681   0.00000  Uiso   1.00
H766   H     0.73586   0.20862   0.60251   0.00000  Uiso   1.00
H767   H     0.76406   0.21043   0.65259   0.00000  Uiso   1.00
H768   H     0.77032   0.25737   0.61337   0.00000  Uiso   1.00
O769   O     0.10655   0.53958   0.75000   0.00000  Uiso   1.00
O770   O     0.22679   0.46042   0.75001   0.00000  Uiso   1.00
O771   O     0.22679   0.53958   0.75001   0.00000  Uiso   1.00
O772   O     0.10655   0.46042   0.75000   0.00000  Uiso   1.00
C773   C     0.08735   0.49999   0.74995   0.00000  Uiso   1.00
C774   C     0.24598   0.50001   0.75005   0.00000  Uiso   1.00
O775   O     0.16666   0.53960   0.68513   0.00000  Uiso   1.00
O776   O     0.16668   0.46040   0.81487   0.00000  Uiso   1.00
O777   O     0.16668   0.53960   0.81487   0.00000  Uiso   1.00
O778   O     0.16666   0.46040   0.68513   0.00000  Uiso   1.00
C779   C     0.16522   0.49997   0.66449   0.00000  Uiso   1.00
C780   C     0.16812   0.50003   0.83551   0.00000  Uiso   1.00
Cu781  Cu    0.16667   0.54689   0.75000   0.00000  Uiso   1.00
Cu782  Cu    0.16667   0.45311   0.75000   0.00000  Uiso   1.00
C783   C     0.19957   0.47329   0.90732   0.00000  Uiso   1.00
C784   C     0.13377   0.52671   0.59268   0.00000  Uiso   1.00
C785   C     0.17018   0.50021   0.88376   0.00000  Uiso   1.00
C786   C     0.16315   0.49979   0.61624   0.00000  Uiso   1.00
C787   C     0.14144   0.52773   0.90619   0.00000  Uiso   1.00
C788   C     0.19190   0.47228   0.59381   0.00000  Uiso   1.00
C789   C     0.14004   0.52797   0.95226   0.00000  Uiso   1.00
C790   C     0.19331   0.47204   0.54775   0.00000  Uiso   1.00
C791   C     0.16771   0.50002   0.97660   0.00000  Uiso   1.00
C792   C     0.16563   0.49999   0.52340   0.00000  Uiso   1.00
C793   C     0.19752   0.47229   0.95430   0.00000  Uiso   1.00
C794   C     0.13583   0.52772   0.54570   0.00000  Uiso   1.00
C795   C     0.11093   0.55555   0.97420   0.00000  Uiso   1.00
C796   C     0.22242   0.44447   0.52580   0.00000  Uiso   1.00
C797   C     0.10882   0.55556   0.52030   0.00000  Uiso   1.00
C798   C     0.22453   0.44446   0.97970   0.00000  Uiso   1.00
H799   H     0.11948   0.54848   0.88745   0.00000  Uiso   1.00
H800   H     0.21386   0.45153   0.61255   0.00000  Uiso   1.00
H801   H     0.08962   0.57723   0.95562   0.00000  Uiso   1.00
H802   H     0.24373   0.42279   0.54438   0.00000  Uiso   1.00
H803   H     0.08595   0.57784   0.53557   0.00000  Uiso   1.00
H804   H     0.24741   0.42219   0.96443   0.00000  Uiso   1.00
C805   C     0.02125   0.45749   0.75198   0.00000  Uiso   1.00
C806   C     0.31208   0.54251   0.74802   0.00000  Uiso   1.00
C807   C     0.31201   0.45751   0.75210   0.00000  Uiso   1.00
C808   C     0.02132   0.54249   0.74790   0.00000  Uiso   1.00
H809   H     0.03724   0.42427   0.75360   0.00000  Uiso   1.00
H810   H     0.29609   0.57574   0.74640   0.00000  Uiso   1.00
H811   H     0.29597   0.42429   0.75382   0.00000  Uiso   1.00
H812   H     0.03737   0.57571   0.74618   0.00000  Uiso   1.00
C813   C     0.29059   0.50002   0.75009   0.00000  Uiso   1.00
C814   C     0.04274   0.49998   0.74991   0.00000  Uiso   1.00
C815   C     0.14061   0.35807   0.72293   0.00000  Uiso   1.00
C816   C     0.19273   0.64193   0.77707   0.00000  Uiso   1.00
C817   C     0.19273   0.35821   0.77707   0.00000  Uiso   1.00
C818   C     0.14061   0.64179   0.72293   0.00000  Uiso   1.00
H819   H     0.11973   0.37672   0.70125   0.00000  Uiso   1.00
H820   H     0.21360   0.62328   0.79875   0.00000  Uiso   1.00
H821   H     0.21361   0.37695   0.79874   0.00000  Uiso   1.00
H822   H     0.11972   0.62305   0.70126   0.00000  Uiso   1.00
N823   N     0.16667   0.61736   0.75000   0.00000  Uiso   1.00
N824   N     0.16667   0.38264   0.75000   0.00000  Uiso   1.00
C825   C     0.23394   0.44774   0.88319   0.00000  Uiso   1.00
H826   H     0.26415   0.45810   0.89748   0.00000  Uiso   1.00
H827   H     0.22972   0.40931   0.88664   0.00000  Uiso   1.00
H828   H     0.23594   0.45624   0.84740   0.00000  Uiso   1.00
C829   C     0.09941   0.55228   0.61681   0.00000  Uiso   1.00
H830   H     0.06919   0.54195   0.60251   0.00000  Uiso   1.00
H831   H     0.09739   0.54376   0.65259   0.00000  Uiso   1.00
H832   H     0.10366   0.59070   0.61337   0.00000  Uiso   1.00
O833   O     0.43988   0.53958   0.75000   0.00000  Uiso   1.00
O834   O     0.56012   0.46042   0.75001   0.00000  Uiso   1.00
O835   O     0.56012   0.53958   0.75001   0.00000  Uiso   1.00
O836   O     0.43988   0.46042   0.75000   0.00000  Uiso   1.00
C837   C     0.42069   0.49999   0.74995   0.00000  Uiso   1.00
C838   C     0.57931   0.50001   0.75005   0.00000  Uiso   1.00
O839   O     0.49999   0.53960   0.68513   0.00000  Uiso   1.00
O840   O     0.50001   0.46040   0.81487   0.00000  Uiso   1.00
O841   O     0.50001   0.53960   0.81487   0.00000  Uiso   1.00
O842   O     0.49999   0.46040   0.68513   0.00000  Uiso   1.00
C843   C     0.49855   0.49997   0.66449   0.00000  Uiso   1.00
C844   C     0.50145   0.50003   0.83551   0.00000  Uiso   1.00
Cu845  Cu    0.50000   0.54689   0.75000   0.00000  Uiso   1.00
Cu846  Cu    0.50000   0.45311   0.75000   0.00000  Uiso   1.00
C847   C     0.53291   0.47329   0.90732   0.00000  Uiso   1.00
C848   C     0.46710   0.52671   0.59268   0.00000  Uiso   1.00
C849   C     0.50352   0.50021   0.88376   0.00000  Uiso   1.00
C850   C     0.49649   0.49979   0.61624   0.00000  Uiso   1.00
C851   C     0.47477   0.52773   0.90619   0.00000  Uiso   1.00
C852   C     0.52524   0.47228   0.59381   0.00000  Uiso   1.00
C853   C     0.47337   0.52797   0.95226   0.00000  Uiso   1.00
C854   C     0.52664   0.47204   0.54775   0.00000  Uiso   1.00
C855   C     0.50105   0.50002   0.97660   0.00000  Uiso   1.00
C856   C     0.49896   0.49999   0.52340   0.00000  Uiso   1.00
C857   C     0.53085   0.47229   0.95430   0.00000  Uiso   1.00
C858   C     0.46916   0.52772   0.54570   0.00000  Uiso   1.00
C859   C     0.44426   0.55555   0.97420   0.00000  Uiso   1.00
C860   C     0.55576   0.44447   0.52580   0.00000  Uiso   1.00
C861   C     0.44216   0.55556   0.52030   0.00000  Uiso   1.00
C862   C     0.55786   0.44446   0.97970   0.00000  Uiso   1.00
H863   H     0.45281   0.54848   0.88745   0.00000  Uiso   1.00
H864   H     0.54720   0.45153   0.61255   0.00000  Uiso   1.00
H865   H     0.42296   0.57723   0.95562   0.00000  Uiso   1.00
H866   H     0.57706   0.42279   0.54438   0.00000  Uiso   1.00
H867   H     0.41928   0.57784   0.53557   0.00000  Uiso   1.00
H868   H     0.58074   0.42219   0.96443   0.00000  Uiso   1.00
C869   C     0.35459   0.45749   0.75198   0.00000  Uiso   1.00
C870   C     0.64541   0.54251   0.74802   0.00000  Uiso   1.00
C871   C     0.64534   0.45751   0.75210   0.00000  Uiso   1.00
C872   C     0.35466   0.54249   0.74790   0.00000  Uiso   1.00
H873   H     0.37058   0.42427   0.75360   0.00000  Uiso   1.00
H874   H     0.62942   0.57574   0.74640   0.00000  Uiso   1.00
H875   H     0.62930   0.42429   0.75382   0.00000  Uiso   1.00
H876   H     0.37070   0.57571   0.74618   0.00000  Uiso   1.00
C877   C     0.62393   0.50002   0.75009   0.00000  Uiso   1.00
C878   C     0.37607   0.49998   0.74991   0.00000  Uiso   1.00
C879   C     0.47394   0.35807   0.72293   0.00000  Uiso   1.00
C880   C     0.52606   0.64193   0.77707   0.00000  Uiso   1.00
C881   C     0.52606   0.35821   0.77707   0.00000  Uiso   1.00
C882   C     0.47394   0.64179   0.72293   0.00000  Uiso   1.00
H883   H     0.45307   0.37672   0.70125   0.00000  Uiso   1.00
H884   H     0.54693   0.62328   0.79875   0.00000  Uiso   1.00
H885   H     0.54694   0.37695   0.79874   0.00000  Uiso   1.00
H886   H     0.45306   0.62305   0.70126   0.00000  Uiso   1.00
N887   N     0.50000   0.61736   0.75000   0.00000  Uiso   1.00
N888   N     0.50000   0.38264   0.75000   0.00000  Uiso   1.00
C889   C     0.56727   0.44774   0.88319   0.00000  Uiso   1.00
H890   H     0.59748   0.45810   0.89748   0.00000  Uiso   1.00
H891   H     0.56305   0.40931   0.88664   0.00000  Uiso   1.00
H892   H     0.56927   0.45624   0.84740   0.00000  Uiso   1.00
C893   C     0.43274   0.55228   0.61681   0.00000  Uiso   1.00
H894   H     0.40253   0.54195   0.60251   0.00000  Uiso   1.00
H895   H     0.43073   0.54376   0.65259   0.00000  Uiso   1.00
H896   H     0.43699   0.59070   0.61337   0.00000  Uiso   1.00
O897   O     0.77321   0.53958   0.75000   0.00000  Uiso   1.00
O898   O     0.89345   0.46042   0.75001   0.00000  Uiso   1.00
O899   O     0.89345   0.53958   0.75001   0.00000  Uiso   1.00
O900   O     0.77321   0.46042   0.75000   0.00000  Uiso   1.00
C901   C     0.75402   0.49999   0.74995   0.00000  Uiso   1.00
C902   C     0.91265   0.50001   0.75005   0.00000  Uiso   1.00
O903   O     0.83332   0.53960   0.68513   0.00000  Uiso   1.00
O904   O     0.83334   0.46040   0.81487   0.00000  Uiso   1.00
O905   O     0.83334   0.53960   0.81487   0.00000  Uiso   1.00
O906   O     0.83332   0.46040   0.68513   0.00000  Uiso   1.00
C907   C     0.83188   0.49997   0.66449   0.00000  Uiso   1.00
C908   C     0.83478   0.50003   0.83551   0.00000  Uiso   1.00
Cu909  Cu    0.83333   0.54689   0.75000   0.00000  Uiso   1.00
Cu910  Cu    0.83333   0.45311   0.75000   0.00000  Uiso   1.00
C911   C     0.86624   0.47329   0.90732   0.00000  Uiso   1.00
C912   C     0.80043   0.52671   0.59268   0.00000  Uiso   1.00
C913   C     0.83685   0.50021   0.88376   0.00000  Uiso   1.00
C914   C     0.82982   0.49979   0.61624   0.00000  Uiso   1.00
C915   C     0.80810   0.52773   0.90619   0.00000  Uiso   1.00
C916   C     0.85857   0.47228   0.59381   0.00000  Uiso   1.00
C917   C     0.80671   0.52797   0.95226   0.00000  Uiso   1.00
C918   C     0.85997   0.47204   0.54775   0.00000  Uiso   1.00
C919   C     0.83438   0.50002   0.97660   0.00000  Uiso   1.00
C920   C     0.83230   0.49999   0.52340   0.00000  Uiso   1.00
C921   C     0.86418   0.47229   0.95430   0.00000  Uiso   1.00
C922   C     0.80250   0.52772   0.54570   0.00000  Uiso   1.00
C923   C     0.77759   0.55555   0.97420   0.00000  Uiso   1.00
C924   C     0.88909   0.44447   0.52580   0.00000  Uiso   1.00
C925   C     0.77549   0.55556   0.52030   0.00000  Uiso   1.00
C926   C     0.89119   0.44446   0.97970   0.00000  Uiso   1.00
H927   H     0.78614   0.54848   0.88745   0.00000  Uiso   1.00
H928   H     0.88053   0.45153   0.61255   0.00000  Uiso   1.00
H929   H     0.75629   0.57723   0.95562   0.00000  Uiso   1.00
H930   H     0.91040   0.42279   0.54438   0.00000  Uiso   1.00
H931   H     0.75262   0.57784   0.53557   0.00000  Uiso   1.00
H932   H     0.91408   0.42219   0.96443   0.00000  Uiso   1.00
C933   C     0.68792   0.45749   0.75198   0.00000  Uiso   1.00
C934   C     0.97875   0.54251   0.74802   0.00000  Uiso   1.00
C935   C     0.97868   0.45751   0.75210   0.00000  Uiso   1.00
C936   C     0.68799   0.54249   0.74790   0.00000  Uiso   1.00
H937   H     0.70391   0.42427   0.75360   0.00000  Uiso   1.00
H938   H     0.96276   0.57574   0.74640   0.00000  Uiso   1.00
H939   H     0.96263   0.42429   0.75382   0.00000  Uiso   1.00
H940   H     0.70403   0.57571   0.74618   0.00000  Uiso   1.00
C941   C     0.95726   0.50002   0.75009   0.00000  Uiso   1.00
C942   C     0.70941   0.49998   0.74991   0.00000  Uiso   1.00
C943   C     0.80727   0.35807   0.72293   0.00000  Uiso   1.00
C944   C     0.85939   0.64193   0.77707   0.00000  Uiso   1.00
C945   C     0.85940   0.35821   0.77707   0.00000  Uiso   1.00
C946   C     0.80727   0.64179   0.72293   0.00000  Uiso   1.00
H947   H     0.78640   0.37672   0.70125   0.00000  Uiso   1.00
H948   H     0.88027   0.62328   0.79875   0.00000  Uiso   1.00
H949   H     0.88028   0.37695   0.79874   0.00000  Uiso   1.00
H950   H     0.78639   0.62305   0.70126   0.00000  Uiso   1.00
N951   N     0.83333   0.61736   0.75000   0.00000  Uiso   1.00
N952   N     0.83333   0.38264   0.75000   0.00000  Uiso   1.00
C953   C     0.90061   0.44774   0.88319   0.00000  Uiso   1.00
H954   H     0.93082   0.45810   0.89748   0.00000  Uiso   1.00
H955   H     0.89638   0.40931   0.88664   0.00000  Uiso   1.00
H956   H     0.90261   0.45624   0.84740   0.00000  Uiso   1.00
C957   C     0.76607   0.55228   0.61681   0.00000  Uiso   1.00
H958   H     0.73586   0.54195   0.60251   0.00000  Uiso   1.00
H959   H     0.76406   0.54376   0.65259   0.00000  Uiso   1.00
H960   H     0.77032   0.59070   0.61337   0.00000  Uiso   1.00
O961   O     0.10655   0.87291   0.75000   0.00000  Uiso   1.00
O962   O     0.22679   0.79375   0.75001   0.00000  Uiso   1.00
O963   O     0.22679   0.87291   0.75001   0.00000  Uiso   1.00
O964   O     0.10655   0.79375   0.75000   0.00000  Uiso   1.00
C965   C     0.08735   0.83332   0.74995   0.00000  Uiso   1.00
C966   C     0.24598   0.83335   0.75005   0.00000  Uiso   1.00
O967   O     0.16666   0.87293   0.68513   0.00000  Uiso   1.00
O968   O     0.16668   0.79373   0.81487   0.00000  Uiso   1.00
O969   O     0.16668   0.87293   0.81487   0.00000  Uiso   1.00
O970   O     0.16666   0.79373   0.68513   0.00000  Uiso   1.00
C971   C     0.16522   0.83330   0.66449   0.00000  Uiso   1.00
C972   C     0.16812   0.83337   0.83551   0.00000  Uiso   1.00
Cu973  Cu    0.16667   0.88022   0.75000   0.00000  Uiso   1.00
Cu974  Cu    0.16667   0.78645   0.75000   0.00000  Uiso   1.00
C975   C     0.19957   0.80663   0.90732   0.00000  Uiso   1.00
C976   C     0.13377   0.86005   0.59268   0.00000  Uiso   1.00
C977   C     0.17018   0.83354   0.88376   0.00000  Uiso   1.00
C978   C     0.16315   0.83312   0.61624   0.00000  Uiso   1.00
C979   C     0.14144   0.86106   0.90619   0.00000  Uiso   1.00
C980   C     0.19190   0.80561   0.59381   0.00000  Uiso   1.00
C981   C     0.14004   0.86130   0.95226   0.00000  Uiso   1.00
C982   C     0.19331   0.80537   0.54775   0.00000  Uiso   1.00
C983   C     0.16771   0.83335   0.97660   0.00000  Uiso   1.00
C984   C     0.16563   0.83332   0.52340   0.00000  Uiso   1.00
C985   C     0.19752   0.80562   0.95430   0.00000  Uiso   1.00
C986   C     0.13583   0.86105   0.54570   0.00000  Uiso   1.00
C987   C     0.11093   0.88889   0.97420   0.00000  Uiso   1.00
C988   C     0.22242   0.77780   0.52580   0.00000  Uiso   1.00
C989   C     0.10882   0.88889   0.52030   0.00000  Uiso   1.00
C990   C     0.22453   0.77779   0.97970   0.00000  Uiso   1.00
H991   H     0.11948   0.88181   0.88745   0.00000  Uiso   1.00
H992   H     0.21386   0.78486   0.61255   0.00000  Uiso   1.00
H993   H     0.08962   0.91056   0.95562   0.00000  Uiso   1.00
H994   H     0.24373   0.75613   0.54438   0.00000  Uiso   1.00
H995   H     0.08595   0.91118   0.53557   0.00000  Uiso   1.00
H996   H     0.24741   0.75552   0.96443   0.00000  Uiso   1.00
C997   C     0.02125   0.79082   0.75198   0.00000  Uiso   1.00
C998   C     0.31208   0.87584   0.74802   0.00000  Uiso   1.00
C999   C     0.31201   0.79084   0.75210   0.00000  Uiso   1.00
C1000  C     0.02132   0.87582   0.74790   0.00000  Uiso   1.00
H1001  H     0.03724   0.75760   0.75360   0.00000  Uiso   1.00
H1002  H     0.29609   0.90907   0.74640   0.00000  Uiso   1.00
H1003  H     0.29597   0.75763   0.75382   0.00000  Uiso   1.00
H1004  H     0.03737   0.90904   0.74618   0.00000  Uiso   1.00
C1005  C     0.29059   0.83335   0.75009   0.00000  Uiso   1.00
C1006  C     0.04274   0.83332   0.74991   0.00000  Uiso   1.00
C1007  C     0.14061   0.69141   0.72293   0.00000  Uiso   1.00
C1008  C     0.19273   0.97526   0.77707   0.00000  Uiso   1.00
C1009  C     0.19273   0.69154   0.77707   0.00000  Uiso   1.00
C1010  C     0.14061   0.97513   0.72293   0.00000  Uiso   1.00
H1011  H     0.11973   0.71005   0.70125   0.00000  Uiso   1.00
H1012  H     0.21360   0.95662   0.79875   0.00000  Uiso   1.00
H1013  H     0.21361   0.71029   0.79874   0.00000  Uiso   1.00
H1014  H     0.11972   0.95638   0.70126   0.00000  Uiso   1.00
N1015  N     0.16667   0.95069   0.75000   0.00000  Uiso   1.00
N1016  N     0.16667   0.71598   0.75000   0.00000  Uiso   1.00
C1017  C     0.23394   0.78107   0.88319   0.00000  Uiso   1.00
H1018  H     0.26415   0.79143   0.89748   0.00000  Uiso   1.00
H1019  H     0.22972   0.74265   0.88664   0.00000  Uiso   1.00
H1020  H     0.23594   0.78958   0.84740   0.00000  Uiso   1.00
C1021  C     0.09941   0.88561   0.61681   0.00000  Uiso   1.00
H1022  H     0.06919   0.87529   0.60251   0.00000  Uiso   1.00
H1023  H     0.09739   0.87710   0.65259   0.00000  Uiso   1.00
H1024  H     0.10366   0.92403   0.61337   0.00000  Uiso   1.00
O1025  O     0.43988   0.87291   0.75000   0.00000  Uiso   1.00
O1026  O     0.56012   0.79375   0.75001   0.00000  Uiso   1.00
O1027  O     0.56012   0.87291   0.75001   0.00000  Uiso   1.00
O1028  O     0.43988   0.79375   0.75000   0.00000  Uiso   1.00
C1029  C     0.42069   0.83332   0.74995   0.00000  Uiso   1.00
C1030  C     0.57931   0.83335   0.75005   0.00000  Uiso   1.00
O1031  O     0.49999   0.87293   0.68513   0.00000  Uiso   1.00
O1032  O     0.50001   0.79373   0.81487   0.00000  Uiso   1.00
O1033  O     0.50001   0.87293   0.81487   0.00000  Uiso   1.00
O1034  O     0.49999   0.79373   0.68513   0.00000  Uiso   1.00
C1035  C     0.49855   0.83330   0.66449   0.00000  Uiso   1.00
C1036  C     0.50145   0.83337   0.83551   0.00000  Uiso   1.00
Cu1037 Cu    0.50000   0.88022   0.75000   0.00000  Uiso   1.00
Cu1038 Cu    0.50000   0.78645   0.75000   0.00000  Uiso   1.00
C1039  C     0.53291   0.80663   0.90732   0.00000  Uiso   1.00
C1040  C     0.46710   0.86005   0.59268   0.00000  Uiso   1.00
C1041  C     0.50352   0.83354   0.88376   0.00000  Uiso   1.00
C1042  C     0.49649   0.83312   0.61624   0.00000  Uiso   1.00
C1043  C     0.47477   0.86106   0.90619   0.00000  Uiso   1.00
C1044  C     0.52524   0.80561   0.59381   0.00000  Uiso   1.00
C1045  C     0.47337   0.86130   0.95226   0.00000  Uiso   1.00
C1046  C     0.52664   0.80537   0.54775   0.00000  Uiso   1.00
C1047  C     0.50105   0.83335   0.97660   0.00000  Uiso   1.00
C1048  C     0.49896   0.83332   0.52340   0.00000  Uiso   1.00
C1049  C     0.53085   0.80562   0.95430   0.00000  Uiso   1.00
C1050  C     0.46916   0.86105   0.54570   0.00000  Uiso   1.00
C1051  C     0.44426   0.88889   0.97420   0.00000  Uiso   1.00
C1052  C     0.55576   0.77780   0.52580   0.00000  Uiso   1.00
C1053  C     0.44216   0.88889   0.52030   0.00000  Uiso   1.00
C1054  C     0.55786   0.77779   0.97970   0.00000  Uiso   1.00
H1055  H     0.45281   0.88181   0.88745   0.00000  Uiso   1.00
H1056  H     0.54720   0.78486   0.61255   0.00000  Uiso   1.00
H1057  H     0.42296   0.91056   0.95562   0.00000  Uiso   1.00
H1058  H     0.57706   0.75613   0.54438   0.00000  Uiso   1.00
H1059  H     0.41928   0.91118   0.53557   0.00000  Uiso   1.00
H1060  H     0.58074   0.75552   0.96443   0.00000  Uiso   1.00
C1061  C     0.35459   0.79082   0.75198   0.00000  Uiso   1.00
C1062  C     0.64541   0.87584   0.74802   0.00000  Uiso   1.00
C1063  C     0.64534   0.79084   0.75210   0.00000  Uiso   1.00
C1064  C     0.35466   0.87582   0.74790   0.00000  Uiso   1.00
H1065  H     0.37058   0.75760   0.75360   0.00000  Uiso   1.00
H1066  H     0.62942   0.90907   0.74640   0.00000  Uiso   1.00
H1067  H     0.62930   0.75763   0.75382   0.00000  Uiso   1.00
H1068  H     0.37070   0.90904   0.74618   0.00000  Uiso   1.00
C1069  C     0.62393   0.83335   0.75009   0.00000  Uiso   1.00
C1070  C     0.37607   0.83332   0.74991   0.00000  Uiso   1.00
C1071  C     0.47394   0.69141   0.72293   0.00000  Uiso   1.00
C1072  C     0.52606   0.97526   0.77707   0.00000  Uiso   1.00
C1073  C     0.52606   0.69154   0.77707   0.00000  Uiso   1.00
C1074  C     0.47394   0.97513   0.72293   0.00000  Uiso   1.00
H1075  H     0.45307   0.71005   0.70125   0.00000  Uiso   1.00
H1076  H     0.54693   0.95662   0.79875   0.00000  Uiso   1.00
H1077  H     0.54694   0.71029   0.79874   0.00000  Uiso   1.00
H1078  H     0.45306   0.95638   0.70126   0.00000  Uiso   1.00
N1079  N     0.50000   0.95069   0.75000   0.00000  Uiso   1.00
N1080  N     0.50000   0.71598   0.75000   0.00000  Uiso   1.00
C1081  C     0.56727   0.78107   0.88319   0.00000  Uiso   1.00
H1082  H     0.59748   0.79143   0.89748   0.00000  Uiso   1.00
H1083  H     0.56305   0.74265   0.88664   0.00000  Uiso   1.00
H1084  H     0.56927   0.78958   0.84740   0.00000  Uiso   1.00
C1085  C     0.43274   0.88561   0.61681   0.00000  Uiso   1.00
H1086  H     0.40253   0.87529   0.60251   0.00000  Uiso   1.00
H1087  H     0.43073   0.87710   0.65259   0.00000  Uiso   1.00
H1088  H     0.43699   0.92403   0.61337   0.00000  Uiso   1.00
O1089  O     0.77321   0.87291   0.75000   0.00000  Uiso   1.00
O1090  O     0.89345   0.79375   0.75001   0.00000  Uiso   1.00
O1091  O     0.89345   0.87291   0.75001   0.00000  Uiso   1.00
O1092  O     0.77321   0.79375   0.75000   0.00000  Uiso   1.00
C1093  C     0.75402   0.83332   0.74995   0.00000  Uiso   1.00
C1094  C     0.91265   0.83335   0.75005   0.00000  Uiso   1.00
O1095  O     0.83332   0.87293   0.68513   0.00000  Uiso   1.00
O1096  O     0.83334   0.79373   0.81487   0.00000  Uiso   1.00
O1097  O     0.83334   0.87293   0.81487   0.00000  Uiso   1.00
O1098  O     0.83332   0.79373   0.68513   0.00000  Uiso   1.00
C1099  C     0.83188   0.83330   0.66449   0.00000  Uiso   1.00
C1100  C     0.83478   0.83337   0.83551   0.00000  Uiso   1.00
Cu1101 Cu    0.83333   0.88022   0.75000   0.00000  Uiso   1.00
Cu1102 Cu    0.83333   0.78645   0.75000   0.00000  Uiso   1.00
C1103  C     0.86624   0.80663   0.90732   0.00000  Uiso   1.00
C1104  C     0.80043   0.86005   0.59268   0.00000  Uiso   1.00
C1105  C     0.83685   0.83354   0.88376   0.00000  Uiso   1.00
C1106  C     0.82982   0.83312   0.61624   0.00000  Uiso   1.00
C1107  C     0.80810   0.86106   0.90619   0.00000  Uiso   1.00
C1108  C     0.85857   0.80561   0.59381   0.00000  Uiso   1.00
C1109  C     0.80671   0.86130   0.95226   0.00000  Uiso   1.00
C1110  C     0.85997   0.80537   0.54775   0.00000  Uiso   1.00
C1111  C     0.83438   0.83335   0.97660   0.00000  Uiso   1.00
C1112  C     0.83230   0.83332   0.52340   0.00000  Uiso   1.00
C1113  C     0.86418   0.80562   0.95430   0.00000  Uiso   1.00
C1114  C     0.80250   0.86105   0.54570   0.00000  Uiso   1.00
C1115  C     0.77759   0.88889   0.97420   0.00000  Uiso   1.00
C1116  C     0.88909   0.77780   0.52580   0.00000  Uiso   1.00
C1117  C     0.77549   0.88889   0.52030   0.00000  Uiso   1.00
C1118  C     0.89119   0.77779   0.97970   0.00000  Uiso   1.00
H1119  H     0.78614   0.88181   0.88745   0.00000  Uiso   1.00
H1120  H     0.88053   0.78486   0.61255   0.00000  Uiso   1.00
H1121  H     0.75629   0.91056   0.95562   0.00000  Uiso   1.00
H1122  H     0.91040   0.75613   0.54438   0.00000  Uiso   1.00
H1123  H     0.75262   0.91118   0.53557   0.00000  Uiso   1.00
H1124  H     0.91408   0.75552   0.96443   0.00000  Uiso   1.00
C1125  C     0.68792   0.79082   0.75198   0.00000  Uiso   1.00
C1126  C     0.97875   0.87584   0.74802   0.00000  Uiso   1.00
C1127  C     0.97868   0.79084   0.75210   0.00000  Uiso   1.00
C1128  C     0.68799   0.87582   0.74790   0.00000  Uiso   1.00
H1129  H     0.70391   0.75760   0.75360   0.00000  Uiso   1.00
H1130  H     0.96276   0.90907   0.74640   0.00000  Uiso   1.00
H1131  H     0.96263   0.75763   0.75382   0.00000  Uiso   1.00
H1132  H     0.70403   0.90904   0.74618   0.00000  Uiso   1.00
C1133  C     0.95726   0.83335   0.75009   0.00000  Uiso   1.00
C1134  C     0.70941   0.83332   0.74991   0.00000  Uiso   1.00
C1135  C     0.80727   0.69141   0.72293   0.00000  Uiso   1.00
C1136  C     0.85939   0.97526   0.77707   0.00000  Uiso   1.00
C1137  C     0.85940   0.69154   0.77707   0.00000  Uiso   1.00
C1138  C     0.80727   0.97513   0.72293   0.00000  Uiso   1.00
H1139  H     0.78640   0.71005   0.70125   0.00000  Uiso   1.00
H1140  H     0.88027   0.95662   0.79875   0.00000  Uiso   1.00
H1141  H     0.88028   0.71029   0.79874   0.00000  Uiso   1.00
H1142  H     0.78639   0.95638   0.70126   0.00000  Uiso   1.00
N1143  N     0.83333   0.95069   0.75000   0.00000  Uiso   1.00
N1144  N     0.83333   0.71598   0.75000   0.00000  Uiso   1.00
C1145  C     0.90061   0.78107   0.88319   0.00000  Uiso   1.00
H1146  H     0.93082   0.79143   0.89748   0.00000  Uiso   1.00
H1147  H     0.89638   0.74265   0.88664   0.00000  Uiso   1.00
H1148  H     0.90261   0.78958   0.84740   0.00000  Uiso   1.00
C1149  C     0.76607   0.88561   0.61681   0.00000  Uiso   1.00
H1150  H     0.73586   0.87529   0.60251   0.00000  Uiso   1.00
H1151  H     0.76406   0.87710   0.65259   0.00000  Uiso   1.00
H1152  H     0.77032   0.92403   0.61337   0.00000  Uiso   1.00
loop_
_geom_bond_atom_site_label_1
_geom_bond_atom_site_label_2
_geom_bond_distance
_geom_bond_site_symmetry_2
_ccdc_geom_bond_type
O1     C5      1.291   .     A
O1     Cu13    1.964   .     S
O2     Cu14    1.964   .     S
O2     C6      1.291   .     A
O3     Cu13    1.965   .     S
O3     C6      1.291   .     A
O4     Cu14    1.965   .     S
O4     C5      1.291   .     A
C5     C46     1.450   .     S
C6     C45     1.450   .     S
O7     C11     1.291   .     A
O7     Cu13    1.963   .     S
O8     C12     1.291   .     A
O8     Cu14    1.963   .     S
O9     C12     1.291   .     A
O9     Cu13    1.964   .     S
O10    C11     1.291   .     A
O10    Cu14    1.964   .     S
C11    C18     1.454   .     S
C12    C17     1.454   .     S
Cu13   N55     2.012   .     S
Cu13   Cu14    2.678   .     S
Cu14   N56     2.012   .     S
C15    C57     1.519   .     S
C15    C25     1.416   .     A
C15    C17     1.417   .     A
C16    C18     1.417   .     A
C16    C61     1.519   .     S
C16    C26     1.416   .     A
C17    C19     1.395   .     A
C18    C20     1.395   .     A
C19    H31     1.086   .     S
C19    C21     1.388   .     A
C20    H32     1.086   .     S
C20    C22     1.388   .     A
C21    C27     1.397   .     A
C21    C23     1.409   .     A
C22    C28     1.397   .     A
C22    C24     1.409   .     A
C23    C25     1.420   .     A
C23    C600    1.410   .     S
C24    C26     1.420   .     A
C24    C599    1.410   1_554 S
C25    C30     1.410   .     A
C26    C29     1.410   .     A
C27    H33     1.084   .     S
C27    C605    1.390   .     S
C28    H34     1.084   .     S
C28    C606    1.390   1_554 S
C29    H35     1.081   .     S
C29    C603    1.390   1_554 S
C30    H36     1.081   .     S
C30    C604    1.390   .     S
C37    H41     1.083   .     S
C37    C46     1.401   .     A
C37    C167    1.383   1_455 S
C38    H42     1.083   .     S
C38    C45     1.401   .     A
C38    C104    1.383   .     S
C39    C45     1.401   .     A
C39    H43     1.083   .     S
C39    C101    1.383   .     S
C40    C46     1.401   .     A
C40    H44     1.083   .     S
C40    C166    1.383   1_455 S
C47    N56     1.367   .     A
C47    H51     1.082   .     S
C47    C434    1.417   1_545 S
C48    N55     1.367   .     A
C48    H52     1.082   .     S
C48    C241    1.417   .     S
C49    N56     1.367   .     A
C49    H53     1.082   .     S
C49    C432    1.417   1_545 S
C50    N55     1.367   .     A
C50    H54     1.082   .     S
C50    C239    1.417   .     S
C57    H58     1.111   .     S
C57    H59     1.111   .     S
C57    H60     1.107   .     S
C61    H64     1.111   .     S
C61    H62     1.111   .     S
C61    H63     1.107   .     S
O65    C69     1.291   .     A
O65    Cu77    1.964   .     S
O66    Cu78    1.964   .     S
O66    C70     1.291   .     A
O67    Cu77    1.965   .     S
O67    C70     1.291   .     A
O68    Cu78    1.965   .     S
O68    C69     1.291   .     A
C69    C110    1.450   .     S
C70    C109    1.450   .     S
O71    C75     1.291   .     A
O71    Cu77    1.963   .     S
O72    C76     1.291   .     A
O72    Cu78    1.963   .     S
O73    C76     1.291   .     A
O73    Cu77    1.964   .     S
O74    C75     1.291   .     A
O74    Cu78    1.964   .     S
C75    C82     1.454   .     S
C76    C81     1.454   .     S
Cu77   N119    2.012   .     S
Cu77   Cu78    2.678   .     S
Cu78   N120    2.012   .     S
C79    C121    1.519   .     S
C79    C89     1.416   .     A
C79    C81     1.417   .     A
C80    C82     1.417   .     A
C80    C125    1.519   .     S
C80    C90     1.416   .     A
C81    C83     1.395   .     A
C82    C84     1.395   .     A
C83    H95     1.086   .     S
C83    C85     1.388   .     A
C84    H96     1.086   .     S
C84    C86     1.388   .     A
C85    C91     1.397   .     A
C85    C87     1.409   .     A
C86    C92     1.397   .     A
C86    C88     1.409   .     A
C87    C89     1.420   .     A
C87    C664    1.410   .     S
C88    C90     1.420   .     A
C88    C663    1.410   1_554 S
C89    C94     1.410   .     A
C90    C93     1.410   .     A
C91    H97     1.084   .     S
C91    C669    1.390   .     S
C92    H98     1.084   .     S
C92    C670    1.390   1_554 S
C93    H99     1.081   .     S
C93    C667    1.390   1_554 S
C94    H100    1.081   .     S
C94    C668    1.390   .     S
C101   H105    1.083   .     S
C101   C110    1.401   .     A
C102   H106    1.083   .     S
C102   C109    1.401   .     A
C102   C168    1.383   .     S
C103   C109    1.401   .     A
C103   H107    1.083   .     S
C103   C165    1.383   .     S
C104   C110    1.401   .     A
C104   H108    1.083   .     S
C111   N120    1.367   .     A
C111   H115    1.082   .     S
C111   C498    1.417   1_545 S
C112   N119    1.367   .     A
C112   H116    1.082   .     S
C112   C305    1.417   .     S
C113   N120    1.367   .     A
C113   H117    1.082   .     S
C113   C496    1.417   1_545 S
C114   N119    1.367   .     A
C114   H118    1.082   .     S
C114   C303    1.417   .     S
C121   H122    1.111   .     S
C121   H123    1.111   .     S
C121   H124    1.107   .     S
C125   H128    1.111   .     S
C125   H126    1.111   .     S
C125   H127    1.107   .     S
O129   C133    1.291   .     A
O129   Cu141   1.964   .     S
O130   Cu142   1.964   .     S
O130   C134    1.291   .     A
O131   Cu141   1.965   .     S
O131   C134    1.291   .     A
O132   Cu142   1.965   .     S
O132   C133    1.291   .     A
C133   C174    1.450   .     S
C134   C173    1.450   .     S
O135   C139    1.291   .     A
O135   Cu141   1.963   .     S
O136   C140    1.291   .     A
O136   Cu142   1.963   .     S
O137   C140    1.291   .     A
O137   Cu141   1.964   .     S
O138   C139    1.291   .     A
O138   Cu142   1.964   .     S
C139   C146    1.454   .     S
C140   C145    1.454   .     S
Cu141  N183    2.012   .     S
Cu141  Cu142   2.678   .     S
Cu142  N184    2.012   .     S
C143   C185    1.519   .     S
C143   C153    1.416   .     A
C143   C145    1.417   .     A
C144   C146    1.417   .     A
C144   C189    1.519   .     S
C144   C154    1.416   .     A
C145   C147    1.395   .     A
C146   C148    1.395   .     A
C147   H159    1.086   .     S
C147   C149    1.388   .     A
C148   H160    1.086   .     S
C148   C150    1.388   .     A
C149   C155    1.397   .     A
C149   C151    1.409   .     A
C150   C156    1.397   .     A
C150   C152    1.409   .     A
C151   C153    1.420   .     A
C151   C728    1.410   .     S
C152   C154    1.420   .     A
C152   C727    1.410   1_554 S
C153   C158    1.410   .     A
C154   C157    1.410   .     A
C155   H161    1.084   .     S
C155   C733    1.390   .     S
C156   H162    1.084   .     S
C156   C734    1.390   1_554 S
C157   H163    1.081   .     S
C157   C731    1.390   1_554 S
C158   H164    1.081   .     S
C158   C732    1.390   .     S
C165   H169    1.083   .     S
C165   C174    1.401   .     A
C166   H170    1.083   .     S
C166   C173    1.401   .     A
C166   C40     1.383   1_655 S
C167   C173    1.401   .     A
C167   H171    1.083   .     S
C167   C37     1.383   1_655 S
C168   C174    1.401   .     A
C168   H172    1.083   .     S
C175   N184    1.367   .     A
C175   H179    1.082   .     S
C175   C562    1.417   1_545 S
C176   N183    1.367   .     A
C176   H180    1.082   .     S
C176   C369    1.417   .     S
C177   N184    1.367   .     A
C177   H181    1.082   .     S
C177   C560    1.417   1_545 S
C178   N183    1.367   .     A
C178   H182    1.082   .     S
C178   C367    1.417   .     S
C185   H186    1.111   .     S
C185   H187    1.111   .     S
C185   H188    1.107   .     S
C189   H192    1.111   .     S
C189   H190    1.111   .     S
C189   H191    1.107   .     S
O193   C197    1.291   .     A
O193   Cu205   1.964   .     S
O194   Cu206   1.964   .     S
O194   C198    1.291   .     A
O195   Cu205   1.965   .     S
O195   C198    1.291   .     A
O196   Cu206   1.965   .     S
O196   C197    1.291   .     A
C197   C238    1.450   .     S
C198   C237    1.450   .     S
O199   C203    1.291   .     A
O199   Cu205   1.963   .     S
O200   C204    1.291   .     A
O200   Cu206   1.963   .     S
O201   C204    1.291   .     A
O201   Cu205   1.964   .     S
O202   C203    1.291   .     A
O202   Cu206   1.964   .     S
C203   C210    1.454   .     S
C204   C209    1.454   .     S
Cu205  N247    2.012   .     S
Cu205  Cu206   2.678   .     S
Cu206  N248    2.012   .     S
C207   C249    1.519   .     S
C207   C217    1.416   .     A
C207   C209    1.417   .     A
C208   C210    1.417   .     A
C208   C253    1.519   .     S
C208   C218    1.416   .     A
C209   C211    1.395   .     A
C210   C212    1.395   .     A
C211   H223    1.086   .     S
C211   C213    1.388   .     A
C212   H224    1.086   .     S
C212   C214    1.388   .     A
C213   C219    1.397   .     A
C213   C215    1.409   .     A
C214   C220    1.397   .     A
C214   C216    1.409   .     A
C215   C217    1.420   .     A
C215   C792    1.410   .     S
C216   C218    1.420   .     A
C216   C791    1.410   1_554 S
C217   C222    1.410   .     A
C218   C221    1.410   .     A
C219   H225    1.084   .     S
C219   C797    1.390   .     S
C220   H226    1.084   .     S
C220   C798    1.390   1_554 S
C221   H227    1.081   .     S
C221   C795    1.390   1_554 S
C222   H228    1.081   .     S
C222   C796    1.390   .     S
C229   H233    1.083   .     S
C229   C238    1.401   .     A
C229   C359    1.383   1_455 S
C230   H234    1.083   .     S
C230   C237    1.401   .     A
C230   C296    1.383   .     S
C231   C237    1.401   .     A
C231   H235    1.083   .     S
C231   C293    1.383   .     S
C232   C238    1.401   .     A
C232   H236    1.083   .     S
C232   C358    1.383   1_455 S
C239   N248    1.367   .     A
C239   H243    1.082   .     S
C240   N247    1.367   .     A
C240   H244    1.082   .     S
C240   C433    1.417   .     S
C241   N248    1.367   .     A
C241   H245    1.082   .     S
C242   N247    1.367   .     A
C242   H246    1.082   .     S
C242   C431    1.417   .     S
C249   H250    1.111   .     S
C249   H251    1.111   .     S
C249   H252    1.107   .     S
C253   H256    1.111   .     S
C253   H254    1.111   .     S
C253   H255    1.107   .     S
O257   C261    1.291   .     A
O257   Cu269   1.964   .     S
O258   Cu270   1.964   .     S
O258   C262    1.291   .     A
O259   Cu269   1.965   .     S
O259   C262    1.291   .     A
O260   Cu270   1.965   .     S
O260   C261    1.291   .     A
C261   C302    1.450   .     S
C262   C301    1.450   .     S
O263   C267    1.291   .     A
O263   Cu269   1.963   .     S
O264   C268    1.291   .     A
O264   Cu270   1.963   .     S
O265   C268    1.291   .     A
O265   Cu269   1.964   .     S
O266   C267    1.291   .     A
O266   Cu270   1.964   .     S
C267   C274    1.454   .     S
C268   C273    1.454   .     S
Cu269  N311    2.012   .     S
Cu269  Cu270   2.678   .     S
Cu270  N312    2.012   .     S
C271   C313    1.519   .     S
C271   C281    1.416   .     A
C271   C273    1.417   .     A
C272   C274    1.417   .     A
C272   C317    1.519   .     S
C272   C282    1.416   .     A
C273   C275    1.395   .     A
C274   C276    1.395   .     A
C275   H287    1.086   .     S
C275   C277    1.388   .     A
C276   H288    1.086   .     S
C276   C278    1.388   .     A
C277   C283    1.397   .     A
C277   C279    1.409   .     A
C278   C284    1.397   .     A
C278   C280    1.409   .     A
C279   C281    1.420   .     A
C279   C856    1.410   .     S
C280   C282    1.420   .     A
C280   C855    1.410   1_554 S
C281   C286    1.410   .     A
C282   C285    1.410   .     A
C283   H289    1.084   .     S
C283   C861    1.390   .     S
C284   H290    1.084   .     S
C284   C862    1.390   1_554 S
C285   H291    1.081   .     S
C285   C859    1.390   1_554 S
C286   H292    1.081   .     S
C286   C860    1.390   .     S
C293   H297    1.083   .     S
C293   C302    1.401   .     A
C294   H298    1.083   .     S
C294   C301    1.401   .     A
C294   C360    1.383   .     S
C295   C301    1.401   .     A
C295   H299    1.083   .     S
C295   C357    1.383   .     S
C296   C302    1.401   .     A
C296   H300    1.083   .     S
C303   N312    1.367   .     A
C303   H307    1.082   .     S
C304   N311    1.367   .     A
C304   H308    1.082   .     S
C304   C497    1.417   .     S
C305   N312    1.367   .     A
C305   H309    1.082   .     S
C306   N311    1.367   .     A
C306   H310    1.082   .     S
C306   C495    1.417   .     S
C313   H314    1.111   .     S
C313   H315    1.111   .     S
C313   H316    1.107   .     S
C317   H320    1.111   .     S
C317   H318    1.111   .     S
C317   H319    1.107   .     S
O321   C325    1.291   .     A
O321   Cu333   1.964   .     S
O322   Cu334   1.964   .     S
O322   C326    1.291   .     A
O323   Cu333   1.965   .     S
O323   C326    1.291   .     A
O324   Cu334   1.965   .     S
O324   C325    1.291   .     A
C325   C366    1.450   .     S
C326   C365    1.450   .     S
O327   C331    1.291   .     A
O327   Cu333   1.963   .     S
O328   C332    1.291   .     A
O328   Cu334   1.963   .     S
O329   C332    1.291   .     A
O329   Cu333   1.964   .     S
O330   C331    1.291   .     A
O330   Cu334   1.964   .     S
C331   C338    1.454   .     S
C332   C337    1.454   .     S
Cu333  N375    2.012   .     S
Cu333  Cu334   2.678   .     S
Cu334  N376    2.012   .     S
C335   C377    1.519   .     S
C335   C345    1.416   .     A
C335   C337    1.417   .     A
C336   C338    1.417   .     A
C336   C381    1.519   .     S
C336   C346    1.416   .     A
C337   C339    1.395   .     A
C338   C340    1.395   .     A
C339   H351    1.086   .     S
C339   C341    1.388   .     A
C340   H352    1.086   .     S
C340   C342    1.388   .     A
C341   C347    1.397   .     A
C341   C343    1.409   .     A
C342   C348    1.397   .     A
C342   C344    1.409   .     A
C343   C345    1.420   .     A
C343   C920    1.410   .     S
C344   C346    1.420   .     A
C344   C919    1.410   1_554 S
C345   C350    1.410   .     A
C346   C349    1.410   .     A
C347   H353    1.084   .     S
C347   C925    1.390   .     S
C348   H354    1.084   .     S
C348   C926    1.390   1_554 S
C349   H355    1.081   .     S
C349   C923    1.390   1_554 S
C350   H356    1.081   .     S
C350   C924    1.390   .     S
C357   H361    1.083   .     S
C357   C366    1.401   .     A
C358   H362    1.083   .     S
C358   C365    1.401   .     A
C358   C232    1.383   1_655 S
C359   C365    1.401   .     A
C359   H363    1.083   .     S
C359   C229    1.383   1_655 S
C360   C366    1.401   .     A
C360   H364    1.083   .     S
C367   N376    1.367   .     A
C367   H371    1.082   .     S
C368   N375    1.367   .     A
C368   H372    1.082   .     S
C368   C561    1.417   .     S
C369   N376    1.367   .     A
C369   H373    1.082   .     S
C370   N375    1.367   .     A
C370   H374    1.082   .     S
C370   C559    1.417   .     S
C377   H378    1.111   .     S
C377   H379    1.111   .     S
C377   H380    1.107   .     S
C381   H384    1.111   .     S
C381   H382    1.111   .     S
C381   H383    1.107   .     S
O385   C389    1.291   .     A
O385   Cu397   1.964   .     S
O386   Cu398   1.964   .     S
O386   C390    1.291   .     A
O387   Cu397   1.965   .     S
O387   C390    1.291   .     A
O388   Cu398   1.965   .     S
O388   C389    1.291   .     A
C389   C430    1.450   .     S
C390   C429    1.450   .     S
O391   C395    1.291   .     A
O391   Cu397   1.963   .     S
O392   C396    1.291   .     A
O392   Cu398   1.963   .     S
O393   C396    1.291   .     A
O393   Cu397   1.964   .     S
O394   C395    1.291   .     A
O394   Cu398   1.964   .     S
C395   C402    1.454   .     S
C396   C401    1.454   .     S
Cu397  N439    2.012   .     S
Cu397  Cu398   2.678   .     S
Cu398  N440    2.012   .     S
C399   C441    1.519   .     S
C399   C409    1.416   .     A
C399   C401    1.417   .     A
C400   C402    1.417   .     A
C400   C445    1.519   .     S
C400   C410    1.416   .     A
C401   C403    1.395   .     A
C402   C404    1.395   .     A
C403   H415    1.086   .     S
C403   C405    1.388   .     A
C404   H416    1.086   .     S
C404   C406    1.388   .     A
C405   C411    1.397   .     A
C405   C407    1.409   .     A
C406   C412    1.397   .     A
C406   C408    1.409   .     A
C407   C409    1.420   .     A
C407   C984    1.410   .     S
C408   C410    1.420   .     A
C408   C983    1.410   1_554 S
C409   C414    1.410   .     A
C410   C413    1.410   .     A
C411   H417    1.084   .     S
C411   C989    1.390   .     S
C412   H418    1.084   .     S
C412   C990    1.390   1_554 S
C413   H419    1.081   .     S
C413   C987    1.390   1_554 S
C414   H420    1.081   .     S
C414   C988    1.390   .     S
C421   H425    1.083   .     S
C421   C430    1.401   .     A
C421   C551    1.383   1_455 S
C422   H426    1.083   .     S
C422   C429    1.401   .     A
C422   C488    1.383   .     S
C423   C429    1.401   .     A
C423   H427    1.083   .     S
C423   C485    1.383   .     S
C424   C430    1.401   .     A
C424   H428    1.083   .     S
C424   C550    1.383   1_455 S
C431   N440    1.367   .     A
C431   H435    1.082   .     S
C432   N439    1.367   .     A
C432   H436    1.082   .     S
C432   C49     1.417   1_565 S
C433   N440    1.367   .     A
C433   H437    1.082   .     S
C434   N439    1.367   .     A
C434   H438    1.082   .     S
C434   C47     1.417   1_565 S
C441   H442    1.111   .     S
C441   H443    1.111   .     S
C441   H444    1.107   .     S
C445   H448    1.111   .     S
C445   H446    1.111   .     S
C445   H447    1.107   .     S
O449   C453    1.291   .     A
O449   Cu461   1.964   .     S
O450   Cu462   1.964   .     S
O450   C454    1.291   .     A
O451   Cu461   1.965   .     S
O451   C454    1.291   .     A
O452   Cu462   1.965   .     S
O452   C453    1.291   .     A
C453   C494    1.450   .     S
C454   C493    1.450   .     S
O455   C459    1.291   .     A
O455   Cu461   1.963   .     S
O456   C460    1.291   .     A
O456   Cu462   1.963   .     S
O457   C460    1.291   .     A
O457   Cu461   1.964   .     S
O458   C459    1.291   .     A
O458   Cu462   1.964   .     S
C459   C466    1.454   .     S
C460   C465    1.454   .     S
Cu461  N503    2.012   .     S
Cu461  Cu462   2.678   .     S
Cu462  N504    2.012   .     S
C463   C505    1.519   .     S
C463   C473    1.416   .     A
C463   C465    1.417   .     A
C464   C466    1.417   .     A
C464   C509    1.519   .     S
C464   C474    1.416   .     A
C465   C467    1.395   .     A
C466   C468    1.395   .     A
C467   H479    1.086   .     S
C467   C469    1.388   .     A
C468   H480    1.086   .     S
C468   C470    1.388   .     A
C469   C475    1.397   .     A
C469   C471    1.409   .     A
C470   C476    1.397   .     A
C470   C472    1.409   .     A
C471   C473    1.420   .     A
C471   C1048   1.410   .     S
C472   C474    1.420   .     A
C472   C1047   1.410   1_554 S
C473   C478    1.410   .     A
C474   C477    1.410   .     A
C475   H481    1.084   .     S
C475   C1053   1.390   .     S
C476   H482    1.084   .     S
C476   C1054   1.390   1_554 S
C477   H483    1.081   .     S
C477   C1051   1.390   1_554 S
C478   H484    1.081   .     S
C478   C1052   1.390   .     S
C485   H489    1.083   .     S
C485   C494    1.401   .     A
C486   H490    1.083   .     S
C486   C493    1.401   .     A
C486   C552    1.383   .     S
C487   C493    1.401   .     A
C487   H491    1.083   .     S
C487   C549    1.383   .     S
C488   C494    1.401   .     A
C488   H492    1.083   .     S
C495   N504    1.367   .     A
C495   H499    1.082   .     S
C496   N503    1.367   .     A
C496   H500    1.082   .     S
C496   C113    1.417   1_565 S
C497   N504    1.367   .     A
C497   H501    1.082   .     S
C498   N503    1.367   .     A
C498   H502    1.082   .     S
C498   C111    1.417   1_565 S
C505   H506    1.111   .     S
C505   H507    1.111   .     S
C505   H508    1.107   .     S
C509   H512    1.111   .     S
C509   H510    1.111   .     S
C509   H511    1.107   .     S
O513   C517    1.291   .     A
O513   Cu525   1.964   .     S
O514   Cu526   1.964   .     S
O514   C518    1.291   .     A
O515   Cu525   1.965   .     S
O515   C518    1.291   .     A
O516   Cu526   1.965   .     S
O516   C517    1.291   .     A
C517   C558    1.450   .     S
C518   C557    1.450   .     S
O519   C523    1.291   .     A
O519   Cu525   1.963   .     S
O520   C524    1.291   .     A
O520   Cu526   1.963   .     S
O521   C524    1.291   .     A
O521   Cu525   1.964   .     S
O522   C523    1.291   .     A
O522   Cu526   1.964   .     S
C523   C530    1.454   .     S
C524   C529    1.454   .     S
Cu525  N567    2.012   .     S
Cu525  Cu526   2.678   .     S
Cu526  N568    2.012   .     S
C527   C569    1.519   .     S
C527   C537    1.416   .     A
C527   C529    1.417   .     A
C528   C530    1.417   .     A
C528   C573    1.519   .     S
C528   C538    1.416   .     A
C529   C531    1.395   .     A
C530   C532    1.395   .     A
C531   H543    1.086   .     S
C531   C533    1.388   .     A
C532   H544    1.086   .     S
C532   C534    1.388   .     A
C533   C539    1.397   .     A
C533   C535    1.409   .     A
C534   C540    1.397   .     A
C534   C536    1.409   .     A
C535   C537    1.420   .     A
C535   C1112   1.410   .     S
C536   C538    1.420   .     A
C536   C1111   1.410   1_554 S
C537   C542    1.410   .     A
C538   C541    1.410   .     A
C539   H545    1.084   .     S
C539   C1117   1.390   .     S
C540   H546    1.084   .     S
C540   C1118   1.390   1_554 S
C541   H547    1.081   .     S
C541   C1115   1.390   1_554 S
C542   H548    1.081   .     S
C542   C1116   1.390   .     S
C549   H553    1.083   .     S
C549   C558    1.401   .     A
C550   H554    1.083   .     S
C550   C557    1.401   .     A
C550   C424    1.383   1_655 S
C551   C557    1.401   .     A
C551   H555    1.083   .     S
C551   C421    1.383   1_655 S
C552   C558    1.401   .     A
C552   H556    1.083   .     S
C559   N568    1.367   .     A
C559   H563    1.082   .     S
C560   N567    1.367   .     A
C560   H564    1.082   .     S
C560   C177    1.417   1_565 S
C561   N568    1.367   .     A
C561   H565    1.082   .     S
C562   N567    1.367   .     A
C562   H566    1.082   .     S
C562   C175    1.417   1_565 S
C569   H570    1.111   .     S
C569   H571    1.111   .     S
C569   H572    1.107   .     S
C573   H576    1.111   .     S
C573   H574    1.111   .     S
C573   H575    1.107   .     S
O577   C581    1.291   .     A
O577   Cu589   1.964   .     S
O578   Cu590   1.964   .     S
O578   C582    1.291   .     A
O579   Cu589   1.965   .     S
O579   C582    1.291   .     A
O580   Cu590   1.965   .     S
O580   C581    1.291   .     A
C581   C622    1.450   .     S
C582   C621    1.450   .     S
O583   C587    1.291   .     A
O583   Cu589   1.963   .     S
O584   C588    1.291   .     A
O584   Cu590   1.963   .     S
O585   C588    1.291   .     A
O585   Cu589   1.964   .     S
O586   C587    1.291   .     A
O586   Cu590   1.964   .     S
C587   C594    1.454   .     S
C588   C593    1.454   .     S
Cu589  N631    2.012   .     S
Cu589  Cu590   2.678   .     S
Cu590  N632    2.012   .     S
C591   C633    1.519   .     S
C591   C601    1.416   .     A
C591   C593    1.417   .     A
C592   C594    1.417   .     A
C592   C637    1.519   .     S
C592   C602    1.416   .     A
C593   C595    1.395   .     A
C594   C596    1.395   .     A
C595   H607    1.086   .     S
C595   C597    1.388   .     A
C596   H608    1.086   .     S
C596   C598    1.388   .     A
C597   C603    1.397   .     A
C597   C599    1.409   .     A
C598   C604    1.397   .     A
C598   C600    1.409   .     A
C599   C601    1.420   .     A
C599   C24     1.410   1_556 S
C600   C602    1.420   .     A
C601   C606    1.410   .     A
C602   C605    1.410   .     A
C603   H609    1.084   .     S
C603   C29     1.390   1_556 S
C604   H610    1.084   .     S
C605   H611    1.081   .     S
C606   H612    1.081   .     S
C606   C28     1.390   1_556 S
C613   H617    1.083   .     S
C613   C622    1.401   .     A
C613   C743    1.383   1_455 S
C614   H618    1.083   .     S
C614   C621    1.401   .     A
C614   C680    1.383   .     S
C615   C621    1.401   .     A
C615   H619    1.083   .     S
C615   C677    1.383   .     S
C616   C622    1.401   .     A
C616   H620    1.083   .     S
C616   C742    1.383   1_455 S
C623   N632    1.367   .     A
C623   H627    1.082   .     S
C623   C1010   1.417   1_545 S
C624   N631    1.367   .     A
C624   H628    1.082   .     S
C624   C817    1.417   .     S
C625   N632    1.367   .     A
C625   H629    1.082   .     S
C625   C1008   1.417   1_545 S
C626   N631    1.367   .     A
C626   H630    1.082   .     S
C626   C815    1.417   .     S
C633   H634    1.111   .     S
C633   H635    1.111   .     S
C633   H636    1.107   .     S
C637   H640    1.111   .     S
C637   H638    1.111   .     S
C637   H639    1.107   .     S
O641   C645    1.291   .     A
O641   Cu653   1.964   .     S
O642   Cu654   1.964   .     S
O642   C646    1.291   .     A
O643   Cu653   1.965   .     S
O643   C646    1.291   .     A
O644   Cu654   1.965   .     S
O644   C645    1.291   .     A
C645   C686    1.450   .     S
C646   C685    1.450   .     S
O647   C651    1.291   .     A
O647   Cu653   1.963   .     S
O648   C652    1.291   .     A
O648   Cu654   1.963   .     S
O649   C652    1.291   .     A
O649   Cu653   1.964   .     S
O650   C651    1.291   .     A
O650   Cu654   1.964   .     S
C651   C658    1.454   .     S
C652   C657    1.454   .     S
Cu653  N695    2.012   .     S
Cu653  Cu654   2.678   .     S
Cu654  N696    2.012   .     S
C655   C697    1.519   .     S
C655   C665    1.416   .     A
C655   C657    1.417   .     A
C656   C658    1.417   .     A
C656   C701    1.519   .     S
C656   C666    1.416   .     A
C657   C659    1.395   .     A
C658   C660    1.395   .     A
C659   H671    1.086   .     S
C659   C661    1.388   .     A
C660   H672    1.086   .     S
C660   C662    1.388   .     A
C661   C667    1.397   .     A
C661   C663    1.409   .     A
C662   C668    1.397   .     A
C662   C664    1.409   .     A
C663   C665    1.420   .     A
C663   C88     1.410   1_556 S
C664   C666    1.420   .     A
C665   C670    1.410   .     A
C666   C669    1.410   .     A
C667   H673    1.084   .     S
C667   C93     1.390   1_556 S
C668   H674    1.084   .     S
C669   H675    1.081   .     S
C670   H676    1.081   .     S
C670   C92     1.390   1_556 S
C677   H681    1.083   .     S
C677   C686    1.401   .     A
C678   H682    1.083   .     S
C678   C685    1.401   .     A
C678   C744    1.383   .     S
C679   C685    1.401   .     A
C679   H683    1.083   .     S
C679   C741    1.383   .     S
C680   C686    1.401   .     A
C680   H684    1.083   .     S
C687   N696    1.367   .     A
C687   H691    1.082   .     S
C687   C1074   1.417   1_545 S
C688   N695    1.367   .     A
C688   H692    1.082   .     S
C688   C881    1.417   .     S
C689   N696    1.367   .     A
C689   H693    1.082   .     S
C689   C1072   1.417   1_545 S
C690   N695    1.367   .     A
C690   H694    1.082   .     S
C690   C879    1.417   .     S
C697   H698    1.111   .     S
C697   H699    1.111   .     S
C697   H700    1.107   .     S
C701   H704    1.111   .     S
C701   H702    1.111   .     S
C701   H703    1.107   .     S
O705   C709    1.291   .     A
O705   Cu717   1.964   .     S
O706   Cu718   1.964   .     S
O706   C710    1.291   .     A
O707   Cu717   1.965   .     S
O707   C710    1.291   .     A
O708   Cu718   1.965   .     S
O708   C709    1.291   .     A
C709   C750    1.450   .     S
C710   C749    1.450   .     S
O711   C715    1.291   .     A
O711   Cu717   1.963   .     S
O712   C716    1.291   .     A
O712   Cu718   1.963   .     S
O713   C716    1.291   .     A
O713   Cu717   1.964   .     S
O714   C715    1.291   .     A
O714   Cu718   1.964   .     S
C715   C722    1.454   .     S
C716   C721    1.454   .     S
Cu717  N759    2.012   .     S
Cu717  Cu718   2.678   .     S
Cu718  N760    2.012   .     S
C719   C761    1.519   .     S
C719   C729    1.416   .     A
C719   C721    1.417   .     A
C720   C722    1.417   .     A
C720   C765    1.519   .     S
C720   C730    1.416   .     A
C721   C723    1.395   .     A
C722   C724    1.395   .     A
C723   H735    1.086   .     S
C723   C725    1.388   .     A
C724   H736    1.086   .     S
C724   C726    1.388   .     A
C725   C731    1.397   .     A
C725   C727    1.409   .     A
C726   C732    1.397   .     A
C726   C728    1.409   .     A
C727   C729    1.420   .     A
C727   C152    1.410   1_556 S
C728   C730    1.420   .     A
C729   C734    1.410   .     A
C730   C733    1.410   .     A
C731   H737    1.084   .     S
C731   C157    1.390   1_556 S
C732   H738    1.084   .     S
C733   H739    1.081   .     S
C734   H740    1.081   .     S
C734   C156    1.390   1_556 S
C741   H745    1.083   .     S
C741   C750    1.401   .     A
C742   H746    1.083   .     S
C742   C749    1.401   .     A
C742   C616    1.383   1_655 S
C743   C749    1.401   .     A
C743   H747    1.083   .     S
C743   C613    1.383   1_655 S
C744   C750    1.401   .     A
C744   H748    1.083   .     S
C751   N760    1.367   .     A
C751   H755    1.082   .     S
C751   C1138   1.417   1_545 S
C752   N759    1.367   .     A
C752   H756    1.082   .     S
C752   C945    1.417   .     S
C753   N760    1.367   .     A
C753   H757    1.082   .     S
C753   C1136   1.417   1_545 S
C754   N759    1.367   .     A
C754   H758    1.082   .     S
C754   C943    1.417   .     S
C761   H762    1.111   .     S
C761   H763    1.111   .     S
C761   H764    1.107   .     S
C765   H768    1.111   .     S
C765   H766    1.111   .     S
C765   H767    1.107   .     S
O769   C773    1.291   .     A
O769   Cu781   1.964   .     S
O770   Cu782   1.964   .     S
O770   C774    1.291   .     A
O771   Cu781   1.965   .     S
O771   C774    1.291   .     A
O772   Cu782   1.965   .     S
O772   C773    1.291   .     A
C773   C814    1.450   .     S
C774   C813    1.450   .     S
O775   C779    1.291   .     A
O775   Cu781   1.963   .     S
O776   C780    1.291   .     A
O776   Cu782   1.963   .     S
O777   C780    1.291   .     A
O777   Cu781   1.964   .     S
O778   C779    1.291   .     A
O778   Cu782   1.964   .     S
C779   C786    1.454   .     S
C780   C785    1.454   .     S
Cu781  N823    2.012   .     S
Cu781  Cu782   2.678   .     S
Cu782  N824    2.012   .     S
C783   C825    1.519   .     S
C783   C793    1.416   .     A
C783   C785    1.417   .     A
C784   C786    1.417   .     A
C784   C829    1.519   .     S
C784   C794    1.416   .     A
C785   C787    1.395   .     A
C786   C788    1.395   .     A
C787   H799    1.086   .     S
C787   C789    1.388   .     A
C788   H800    1.086   .     S
C788   C790    1.388   .     A
C789   C795    1.397   .     A
C789   C791    1.409   .     A
C790   C796    1.397   .     A
C790   C792    1.409   .     A
C791   C793    1.420   .     A
C791   C216    1.410   1_556 S
C792   C794    1.420   .     A
C793   C798    1.410   .     A
C794   C797    1.410   .     A
C795   H801    1.084   .     S
C795   C221    1.390   1_556 S
C796   H802    1.084   .     S
C797   H803    1.081   .     S
C798   H804    1.081   .     S
C798   C220    1.390   1_556 S
C805   H809    1.083   .     S
C805   C814    1.401   .     A
C805   C935    1.383   1_455 S
C806   H810    1.083   .     S
C806   C813    1.401   .     A
C806   C872    1.383   .     S
C807   C813    1.401   .     A
C807   H811    1.083   .     S
C807   C869    1.383   .     S
C808   C814    1.401   .     A
C808   H812    1.083   .     S
C808   C934    1.383   1_455 S
C815   N824    1.367   .     A
C815   H819    1.082   .     S
C816   N823    1.367   .     A
C816   H820    1.082   .     S
C816   C1009   1.417   .     S
C817   N824    1.367   .     A
C817   H821    1.082   .     S
C818   N823    1.367   .     A
C818   H822    1.082   .     S
C818   C1007   1.417   .     S
C825   H826    1.111   .     S
C825   H827    1.111   .     S
C825   H828    1.107   .     S
C829   H832    1.111   .     S
C829   H830    1.111   .     S
C829   H831    1.107   .     S
O833   C837    1.291   .     A
O833   Cu845   1.964   .     S
O834   Cu846   1.964   .     S
O834   C838    1.291   .     A
O835   Cu845   1.965   .     S
O835   C838    1.291   .     A
O836   Cu846   1.965   .     S
O836   C837    1.291   .     A
C837   C878    1.450   .     S
C838   C877    1.450   .     S
O839   C843    1.291   .     A
O839   Cu845   1.963   .     S
O840   C844    1.291   .     A
O840   Cu846   1.963   .     S
O841   C844    1.291   .     A
O841   Cu845   1.964   .     S
O842   C843    1.291   .     A
O842   Cu846   1.964   .     S
C843   C850    1.454   .     S
C844   C849    1.454   .     S
Cu845  N887    2.012   .     S
Cu845  Cu846   2.678   .     S
Cu846  N888    2.012   .     S
C847   C889    1.519   .     S
C847   C857    1.416   .     A
C847   C849    1.417   .     A
C848   C850    1.417   .     A
C848   C893    1.519   .     S
C848   C858    1.416   .     A
C849   C851    1.395   .     A
C850   C852    1.395   .     A
C851   H863    1.086   .     S
C851   C853    1.388   .     A
C852   H864    1.086   .     S
C852   C854    1.388   .     A
C853   C859    1.397   .     A
C853   C855    1.409   .     A
C854   C860    1.397   .     A
C854   C856    1.409   .     A
C855   C857    1.420   .     A
C855   C280    1.410   1_556 S
C856   C858    1.420   .     A
C857   C862    1.410   .     A
C858   C861    1.410   .     A
C859   H865    1.084   .     S
C859   C285    1.390   1_556 S
C860   H866    1.084   .     S
C861   H867    1.081   .     S
C862   H868    1.081   .     S
C862   C284    1.390   1_556 S
C869   H873    1.083   .     S
C869   C878    1.401   .     A
C870   H874    1.083   .     S
C870   C877    1.401   .     A
C870   C936    1.383   .     S
C871   C877    1.401   .     A
C871   H875    1.083   .     S
C871   C933    1.383   .     S
C872   C878    1.401   .     A
C872   H876    1.083   .     S
C879   N888    1.367   .     A
C879   H883    1.082   .     S
C880   N887    1.367   .     A
C880   H884    1.082   .     S
C880   C1073   1.417   .     S
C881   N888    1.367   .     A
C881   H885    1.082   .     S
C882   N887    1.367   .     A
C882   H886    1.082   .     S
C882   C1071   1.417   .     S
C889   H890    1.111   .     S
C889   H891    1.111   .     S
C889   H892    1.107   .     S
C893   H896    1.111   .     S
C893   H894    1.111   .     S
C893   H895    1.107   .     S
O897   C901    1.291   .     A
O897   Cu909   1.964   .     S
O898   Cu910   1.964   .     S
O898   C902    1.291   .     A
O899   Cu909   1.965   .     S
O899   C902    1.291   .     A
O900   Cu910   1.965   .     S
O900   C901    1.291   .     A
C901   C942    1.450   .     S
C902   C941    1.450   .     S
O903   C907    1.291   .     A
O903   Cu909   1.963   .     S
O904   C908    1.291   .     A
O904   Cu910   1.963   .     S
O905   C908    1.291   .     A
O905   Cu909   1.964   .     S
O906   C907    1.291   .     A
O906   Cu910   1.964   .     S
C907   C914    1.454   .     S
C908   C913    1.454   .     S
Cu909  N951    2.012   .     S
Cu909  Cu910   2.678   .     S
Cu910  N952    2.012   .     S
C911   C953    1.519   .     S
C911   C921    1.416   .     A
C911   C913    1.417   .     A
C912   C914    1.417   .     A
C912   C957    1.519   .     S
C912   C922    1.416   .     A
C913   C915    1.395   .     A
C914   C916    1.395   .     A
C915   H927    1.086   .     S
C915   C917    1.388   .     A
C916   H928    1.086   .     S
C916   C918    1.388   .     A
C917   C923    1.397   .     A
C917   C919    1.409   .     A
C918   C924    1.397   .     A
C918   C920    1.409   .     A
C919   C921    1.420   .     A
C919   C344    1.410   1_556 S
C920   C922    1.420   .     A
C921   C926    1.410   .     A
C922   C925    1.410   .     A
C923   H929    1.084   .     S
C923   C349    1.390   1_556 S
C924   H930    1.084   .     S
C925   H931    1.081   .     S
C926   H932    1.081   .     S
C926   C348    1.390   1_556 S
C933   H937    1.083   .     S
C933   C942    1.401   .     A
C934   H938    1.083   .     S
C934   C941    1.401   .     A
C934   C808    1.383   1_655 S
C935   C941    1.401   .     A
C935   H939    1.083   .     S
C935   C805    1.383   1_655 S
C936   C942    1.401   .     A
C936   H940    1.083   .     S
C943   N952    1.367   .     A
C943   H947    1.082   .     S
C944   N951    1.367   .     A
C944   H948    1.082   .     S
C944   C1137   1.417   .     S
C945   N952    1.367   .     A
C945   H949    1.082   .     S
C946   N951    1.367   .     A
C946   H950    1.082   .     S
C946   C1135   1.417   .     S
C953   H954    1.111   .     S
C953   H955    1.111   .     S
C953   H956    1.107   .     S
C957   H960    1.111   .     S
C957   H958    1.111   .     S
C957   H959    1.107   .     S
O961   C965    1.291   .     A
O961   Cu973   1.964   .     S
O962   Cu974   1.964   .     S
O962   C966    1.291   .     A
O963   Cu973   1.965   .     S
O963   C966    1.291   .     A
O964   Cu974   1.965   .     S
O964   C965    1.291   .     A
C965   C1006   1.450   .     S
C966   C1005   1.450   .     S
O967   C971    1.291   .     A
O967   Cu973   1.963   .     S
O968   C972    1.291   .     A
O968   Cu974   1.963   .     S
O969   C972    1.291   .     A
O969   Cu973   1.964   .     S
O970   C971    1.291   .     A
O970   Cu974   1.964   .     S
C971   C978    1.454   .     S
C972   C977    1.454   .     S
Cu973  N1015   2.012   .     S
Cu973  Cu974   2.678   .     S
Cu974  N1016   2.012   .     S
C975   C1017   1.519   .     S
C975   C985    1.416   .     A
C975   C977    1.417   .     A
C976   C978    1.417   .     A
C976   C1021   1.519   .     S
C976   C986    1.416   .     A
C977   C979    1.395   .     A
C978   C980    1.395   .     A
C979   H991    1.086   .     S
C979   C981    1.388   .     A
C980   H992    1.086   .     S
C980   C982    1.388   .     A
C981   C987    1.397   .     A
C981   C983    1.409   .     A
C982   C988    1.397   .     A
C982   C984    1.409   .     A
C983   C985    1.420   .     A
C983   C408    1.410   1_556 S
C984   C986    1.420   .     A
C985   C990    1.410   .     A
C986   C989    1.410   .     A
C987   H993    1.084   .     S
C987   C413    1.390   1_556 S
C988   H994    1.084   .     S
C989   H995    1.081   .     S
C990   H996    1.081   .     S
C990   C412    1.390   1_556 S
C997   H1001   1.083   .     S
C997   C1006   1.401   .     A
C997   C1127   1.383   1_455 S
C998   H1002   1.083   .     S
C998   C1005   1.401   .     A
C998   C1064   1.383   .     S
C999   C1005   1.401   .     A
C999   H1003   1.083   .     S
C999   C1061   1.383   .     S
C1000  C1006   1.401   .     A
C1000  H1004   1.083   .     S
C1000  C1126   1.383   1_455 S
C1007  N1016   1.367   .     A
C1007  H1011   1.082   .     S
C1008  N1015   1.367   .     A
C1008  H1012   1.082   .     S
C1008  C625    1.417   1_565 S
C1009  N1016   1.367   .     A
C1009  H1013   1.082   .     S
C1010  N1015   1.367   .     A
C1010  H1014   1.082   .     S
C1010  C623    1.417   1_565 S
C1017  H1018   1.111   .     S
C1017  H1019   1.111   .     S
C1017  H1020   1.107   .     S
C1021  H1024   1.111   .     S
C1021  H1022   1.111   .     S
C1021  H1023   1.107   .     S
O1025  C1029   1.291   .     A
O1025  Cu1037  1.964   .     S
O1026  Cu1038  1.964   .     S
O1026  C1030   1.291   .     A
O1027  Cu1037  1.965   .     S
O1027  C1030   1.291   .     A
O1028  Cu1038  1.965   .     S
O1028  C1029   1.291   .     A
C1029  C1070   1.450   .     S
C1030  C1069   1.450   .     S
O1031  C1035   1.291   .     A
O1031  Cu1037  1.963   .     S
O1032  C1036   1.291   .     A
O1032  Cu1038  1.963   .     S
O1033  C1036   1.291   .     A
O1033  Cu1037  1.964   .     S
O1034  C1035   1.291   .     A
O1034  Cu1038  1.964   .     S
C1035  C1042   1.454   .     S
C1036  C1041   1.454   .     S
Cu1037 N1079   2.012   .     S
Cu1037 Cu1038  2.678   .     S
Cu1038 N1080   2.012   .     S
C1039  C1081   1.519   .     S
C1039  C1049   1.416   .     A
C1039  C1041   1.417   .     A
C1040  C1042   1.417   .     A
C1040  C1085   1.519   .     S
C1040  C1050   1.416   .     A
C1041  C1043   1.395   .     A
C1042  C1044   1.395   .     A
C1043  H1055   1.086   .     S
C1043  C1045   1.388   .     A
C1044  H1056   1.086   .     S
C1044  C1046   1.388   .     A
C1045  C1051   1.397   .     A
C1045  C1047   1.409   .     A
C1046  C1052   1.397   .     A
C1046  C1048   1.409   .     A
C1047  C1049   1.420   .     A
C1047  C472    1.410   1_556 S
C1048  C1050   1.420   .     A
C1049  C1054   1.410   .     A
C1050  C1053   1.410   .     A
C1051  H1057   1.084   .     S
C1051  C477    1.390   1_556 S
C1052  H1058   1.084   .     S
C1053  H1059   1.081   .     S
C1054  H1060   1.081   .     S
C1054  C476    1.390   1_556 S
C1061  H1065   1.083   .     S
C1061  C1070   1.401   .     A
C1062  H1066   1.083   .     S
C1062  C1069   1.401   .     A
C1062  C1128   1.383   .     S
C1063  C1069   1.401   .     A
C1063  H1067   1.083   .     S
C1063  C1125   1.383   .     S
C1064  C1070   1.401   .     A
C1064  H1068   1.083   .     S
C1071  N1080   1.367   .     A
C1071  H1075   1.082   .     S
C1072  N1079   1.367   .     A
C1072  H1076   1.082   .     S
C1072  C689    1.417   1_565 S
C1073  N1080   1.367   .     A
C1073  H1077   1.082   .     S
C1074  N1079   1.367   .     A
C1074  H1078   1.082   .     S
C1074  C687    1.417   1_565 S
C1081  H1082   1.111   .     S
C1081  H1083   1.111   .     S
C1081  H1084   1.107   .     S
C1085  H1088   1.111   .     S
C1085  H1086   1.111   .     S
C1085  H1087   1.107   .     S
O1089  C1093   1.291   .     A
O1089  Cu1101  1.964   .     S
O1090  Cu1102  1.964   .     S
O1090  C1094   1.291   .     A
O1091  Cu1101  1.965   .     S
O1091  C1094   1.291   .     A
O1092  Cu1102  1.965   .     S
O1092  C1093   1.291   .     A
C1093  C1134   1.450   .     S
C1094  C1133   1.450   .     S
O1095  C1099   1.291   .     A
O1095  Cu1101  1.963   .     S
O1096  C1100   1.291   .     A
O1096  Cu1102  1.963   .     S
O1097  C1100   1.291   .     A
O1097  Cu1101  1.964   .     S
O1098  C1099   1.291   .     A
O1098  Cu1102  1.964   .     S
C1099  C1106   1.454   .     S
C1100  C1105   1.454   .     S
Cu1101 N1143   2.012   .     S
Cu1101 Cu1102  2.678   .     S
Cu1102 N1144   2.012   .     S
C1103  C1145   1.519   .     S
C1103  C1113   1.416   .     A
C1103  C1105   1.417   .     A
C1104  C1106   1.417   .     A
C1104  C1149   1.519   .     S
C1104  C1114   1.416   .     A
C1105  C1107   1.395   .     A
C1106  C1108   1.395   .     A
C1107  H1119   1.086   .     S
C1107  C1109   1.388   .     A
C1108  H1120   1.086   .     S
C1108  C1110   1.388   .     A
C1109  C1115   1.397   .     A
C1109  C1111   1.409   .     A
C1110  C1116   1.397   .     A
C1110  C1112   1.409   .     A
C1111  C1113   1.420   .     A
C1111  C536    1.410   1_556 S
C1112  C1114   1.420   .     A
C1113  C1118   1.410   .     A
C1114  C1117   1.410   .     A
C1115  H1121   1.084   .     S
C1115  C541    1.390   1_556 S
C1116  H1122   1.084   .     S
C1117  H1123   1.081   .     S
C1118  H1124   1.081   .     S
C1118  C540    1.390   1_556 S
C1125  H1129   1.083   .     S
C1125  C1134   1.401   .     A
C1126  H1130   1.083   .     S
C1126  C1133   1.401   .     A
C1126  C1000   1.383   1_655 S
C1127  C1133   1.401   .     A
C1127  H1131   1.083   .     S
C1127  C997    1.383   1_655 S
C1128  C1134   1.401   .     A
C1128  H1132   1.083   .     S
C1135  N1144   1.367   .     A
C1135  H1139   1.082   .     S
C1136  N1143   1.367   .     A
C1136  H1140   1.082   .     S
C1136  C753    1.417   1_565 S
C1137  N1144   1.367   .     A
C1137  H1141   1.082   .     S
C1138  N1143   1.367   .     A
C1138  H1142   1.082   .     S
C1138  C751    1.417   1_565 S
C1145  H1146   1.111   .     S
C1145  H1147   1.111   .     S
C1145  H1148   1.107   .     S
C1149  H1152   1.111   .     S
C1149  H1150   1.111   .     S
C1149  H1151   1.107   .     S
