data_str_m2_o10_o17_pcu_sym.229
_audit_creation_date              2020-01-03
_audit_creation_method            'Materials Studio'
_symmetry_space_group_name_H-M    'P1'
_symmetry_Int_Tables_number       1
_symmetry_cell_setting            triclinic
loop_
_symmetry_equiv_pos_as_xyz
  x,y,z
_cell_length_a                    30.0678
_cell_length_b                    26.1872
_cell_length_c                    22.4983
_cell_angle_alpha                 102.7587
_cell_angle_beta                  95.1087
_cell_angle_gamma                 93.6443
loop_
_atom_site_label
_atom_site_type_symbol
_atom_site_fract_x
_atom_site_fract_y
_atom_site_fract_z
_atom_site_U_iso_or_equiv
_atom_site_adp_type
_atom_site_occupancy
C1     C     0.24805   0.06679   0.15148   0.00000  Uiso   1.00
C2     C     0.25195   0.26654   0.18185   0.00000  Uiso   1.00
C3     C     0.01395   0.13037   0.05643   0.00000  Uiso   1.00
C4     C     0.48605   0.20297   0.27690   0.00000  Uiso   1.00
C5     C     0.24105   0.01132   0.14469   0.00000  Uiso   1.00
C6     C     0.25894   0.32202   0.18864   0.00000  Uiso   1.00
C7     C     0.16441   0.16634   0.16691   0.00000  Uiso   1.00
C8     C     0.33559   0.16700   0.16642   0.00000  Uiso   1.00
C9     C     0.41181   0.18498   0.22138   0.00000  Uiso   1.00
C10    C     0.08819   0.14835   0.11195   0.00000  Uiso   1.00
C11    C     0.38402   0.16739   0.16614   0.00000  Uiso   1.00
C12    C     0.11598   0.16595   0.16719   0.00000  Uiso   1.00
C13    C     0.40256   0.14985   0.11101   0.00000  Uiso   1.00
C14    C     0.09744   0.18348   0.22232   0.00000  Uiso   1.00
C15    C     0.44882   0.14919   0.11087   0.00000  Uiso   1.00
C16    C     0.05118   0.18414   0.22246   0.00000  Uiso   1.00
C17    C     0.47672   0.16690   0.16653   0.00000  Uiso   1.00
C18    C     0.02328   0.16643   0.16680   0.00000  Uiso   1.00
C19    C     0.45810   0.18508   0.22193   0.00000  Uiso   1.00
C20    C     0.04189   0.14826   0.11140   0.00000  Uiso   1.00
C21    C     0.46762   0.13090   0.05614   0.00000  Uiso   1.00
C22    C     0.03238   0.20243   0.27719   0.00000  Uiso   1.00
Cu23   Cu    0.25500   0.17246   0.22813   0.00000  Uiso   1.00
Cu24   Cu    0.24499   0.16087   0.10521   0.00000  Uiso   1.00
H25    H     0.39746   0.19889   0.26398   0.00000  Uiso   1.00
H26    H     0.10254   0.13444   0.06935   0.00000  Uiso   1.00
H27    H     0.38102   0.13608   0.06837   0.00000  Uiso   1.00
H28    H     0.11898   0.19725   0.26496   0.00000  Uiso   1.00
H29    H     0.44653   0.11713   0.01317   0.00000  Uiso   1.00
H30    H     0.05347   0.21620   0.32016   0.00000  Uiso   1.00
H31    H     0.02794   0.11610   0.01369   0.00000  Uiso   1.00
H32    H     0.47206   0.21723   0.31964   0.00000  Uiso   1.00
N33    N     0.23744   0.15214   0.01284   0.00000  Uiso   1.00
N34    N     0.26255   0.18119   0.32049   0.00000  Uiso   1.00
O35    O     0.25325   0.09538   0.20659   0.00000  Uiso   1.00
O36    O     0.24674   0.23796   0.12674   0.00000  Uiso   1.00
O37    O     0.24480   0.08559   0.10279   0.00000  Uiso   1.00
O38    O     0.25520   0.24774   0.23055   0.00000  Uiso   1.00
O39    O     0.18935   0.17155   0.21857   0.00000  Uiso   1.00
O40    O     0.31064   0.16179   0.11476   0.00000  Uiso   1.00
O41    O     0.18090   0.16176   0.11477   0.00000  Uiso   1.00
O42    O     0.31910   0.17157   0.21857   0.00000  Uiso   1.00
Cl43   Cl    0.20232   0.31153   0.08147   0.00000  Uiso   1.00
Cl44   Cl    0.29768   0.02181   0.25186   0.00000  Uiso   1.00
Cl45   Cl    0.19721   0.10588   0.30228   0.00000  Uiso   1.00
Cl46   Cl    0.30279   0.22745   0.03106   0.00000  Uiso   1.00
C47    C     0.74805   0.06679   0.15148   0.00000  Uiso   1.00
C48    C     0.75195   0.26654   0.18185   0.00000  Uiso   1.00
C49    C     0.51395   0.13037   0.05643   0.00000  Uiso   1.00
C50    C     0.98605   0.20297   0.27690   0.00000  Uiso   1.00
C51    C     0.74105   0.01132   0.14469   0.00000  Uiso   1.00
C52    C     0.75894   0.32202   0.18864   0.00000  Uiso   1.00
C53    C     0.66441   0.16634   0.16691   0.00000  Uiso   1.00
C54    C     0.83559   0.16700   0.16642   0.00000  Uiso   1.00
C55    C     0.91181   0.18498   0.22138   0.00000  Uiso   1.00
C56    C     0.58819   0.14835   0.11195   0.00000  Uiso   1.00
C57    C     0.88402   0.16739   0.16614   0.00000  Uiso   1.00
C58    C     0.61598   0.16595   0.16719   0.00000  Uiso   1.00
C59    C     0.90256   0.14985   0.11101   0.00000  Uiso   1.00
C60    C     0.59744   0.18348   0.22232   0.00000  Uiso   1.00
C61    C     0.94882   0.14919   0.11087   0.00000  Uiso   1.00
C62    C     0.55118   0.18414   0.22246   0.00000  Uiso   1.00
C63    C     0.97672   0.16690   0.16653   0.00000  Uiso   1.00
C64    C     0.52328   0.16643   0.16680   0.00000  Uiso   1.00
C65    C     0.95810   0.18508   0.22193   0.00000  Uiso   1.00
C66    C     0.54189   0.14826   0.11140   0.00000  Uiso   1.00
C67    C     0.96762   0.13090   0.05614   0.00000  Uiso   1.00
C68    C     0.53238   0.20243   0.27719   0.00000  Uiso   1.00
Cu69   Cu    0.75500   0.17246   0.22813   0.00000  Uiso   1.00
Cu70   Cu    0.74499   0.16087   0.10521   0.00000  Uiso   1.00
H71    H     0.89746   0.19889   0.26398   0.00000  Uiso   1.00
H72    H     0.60254   0.13444   0.06935   0.00000  Uiso   1.00
H73    H     0.88102   0.13608   0.06837   0.00000  Uiso   1.00
H74    H     0.61898   0.19725   0.26496   0.00000  Uiso   1.00
H75    H     0.94653   0.11713   0.01317   0.00000  Uiso   1.00
H76    H     0.55347   0.21620   0.32016   0.00000  Uiso   1.00
H77    H     0.52794   0.11610   0.01369   0.00000  Uiso   1.00
H78    H     0.97206   0.21723   0.31964   0.00000  Uiso   1.00
N79    N     0.73744   0.15214   0.01284   0.00000  Uiso   1.00
N80    N     0.76255   0.18119   0.32049   0.00000  Uiso   1.00
O81    O     0.75325   0.09538   0.20659   0.00000  Uiso   1.00
O82    O     0.74674   0.23796   0.12674   0.00000  Uiso   1.00
O83    O     0.74480   0.08559   0.10279   0.00000  Uiso   1.00
O84    O     0.75520   0.24774   0.23055   0.00000  Uiso   1.00
O85    O     0.68935   0.17155   0.21857   0.00000  Uiso   1.00
O86    O     0.81064   0.16179   0.11476   0.00000  Uiso   1.00
O87    O     0.68090   0.16176   0.11477   0.00000  Uiso   1.00
O88    O     0.81910   0.17157   0.21857   0.00000  Uiso   1.00
Cl89   Cl    0.70232   0.31153   0.08147   0.00000  Uiso   1.00
Cl90   Cl    0.79768   0.02181   0.25186   0.00000  Uiso   1.00
Cl91   Cl    0.69721   0.10588   0.30228   0.00000  Uiso   1.00
Cl92   Cl    0.80279   0.22745   0.03106   0.00000  Uiso   1.00
C93    C     0.24805   0.40012   0.15148   0.00000  Uiso   1.00
C94    C     0.25195   0.59988   0.18185   0.00000  Uiso   1.00
C95    C     0.01395   0.46370   0.05643   0.00000  Uiso   1.00
C96    C     0.48605   0.53630   0.27690   0.00000  Uiso   1.00
C97    C     0.24105   0.34465   0.14469   0.00000  Uiso   1.00
C98    C     0.25894   0.65535   0.18864   0.00000  Uiso   1.00
C99    C     0.16441   0.49967   0.16691   0.00000  Uiso   1.00
C100   C     0.33559   0.50033   0.16642   0.00000  Uiso   1.00
C101   C     0.41181   0.51832   0.22138   0.00000  Uiso   1.00
C102   C     0.08819   0.48168   0.11195   0.00000  Uiso   1.00
C103   C     0.38402   0.50072   0.16614   0.00000  Uiso   1.00
C104   C     0.11598   0.49928   0.16719   0.00000  Uiso   1.00
C105   C     0.40256   0.48319   0.11101   0.00000  Uiso   1.00
C106   C     0.09744   0.51681   0.22232   0.00000  Uiso   1.00
C107   C     0.44882   0.48253   0.11087   0.00000  Uiso   1.00
C108   C     0.05118   0.51747   0.22246   0.00000  Uiso   1.00
C109   C     0.47672   0.50024   0.16653   0.00000  Uiso   1.00
C110   C     0.02328   0.49976   0.16680   0.00000  Uiso   1.00
C111   C     0.45810   0.51841   0.22193   0.00000  Uiso   1.00
C112   C     0.04189   0.48159   0.11140   0.00000  Uiso   1.00
C113   C     0.46762   0.46424   0.05614   0.00000  Uiso   1.00
C114   C     0.03238   0.53576   0.27719   0.00000  Uiso   1.00
Cu115  Cu    0.25500   0.50579   0.22813   0.00000  Uiso   1.00
Cu116  Cu    0.24499   0.49421   0.10521   0.00000  Uiso   1.00
H117   H     0.39746   0.53222   0.26398   0.00000  Uiso   1.00
H118   H     0.10254   0.46778   0.06935   0.00000  Uiso   1.00
H119   H     0.38102   0.46941   0.06837   0.00000  Uiso   1.00
H120   H     0.11898   0.53058   0.26496   0.00000  Uiso   1.00
H121   H     0.44653   0.45047   0.01317   0.00000  Uiso   1.00
H122   H     0.05347   0.54953   0.32016   0.00000  Uiso   1.00
H123   H     0.02794   0.44944   0.01369   0.00000  Uiso   1.00
H124   H     0.47206   0.55056   0.31964   0.00000  Uiso   1.00
N125   N     0.23744   0.48547   0.01284   0.00000  Uiso   1.00
N126   N     0.26255   0.51453   0.32049   0.00000  Uiso   1.00
O127   O     0.25325   0.42871   0.20659   0.00000  Uiso   1.00
O128   O     0.24674   0.57129   0.12674   0.00000  Uiso   1.00
O129   O     0.24480   0.41892   0.10279   0.00000  Uiso   1.00
O130   O     0.25520   0.58108   0.23055   0.00000  Uiso   1.00
O131   O     0.18935   0.50488   0.21857   0.00000  Uiso   1.00
O132   O     0.31064   0.49512   0.11476   0.00000  Uiso   1.00
O133   O     0.18090   0.49510   0.11477   0.00000  Uiso   1.00
O134   O     0.31910   0.50490   0.21857   0.00000  Uiso   1.00
Cl135  Cl    0.20232   0.64486   0.08147   0.00000  Uiso   1.00
Cl136  Cl    0.29768   0.35514   0.25186   0.00000  Uiso   1.00
Cl137  Cl    0.19721   0.43921   0.30228   0.00000  Uiso   1.00
Cl138  Cl    0.30279   0.56079   0.03106   0.00000  Uiso   1.00
C139   C     0.74805   0.40012   0.15148   0.00000  Uiso   1.00
C140   C     0.75195   0.59988   0.18185   0.00000  Uiso   1.00
C141   C     0.51395   0.46370   0.05643   0.00000  Uiso   1.00
C142   C     0.98605   0.53630   0.27690   0.00000  Uiso   1.00
C143   C     0.74105   0.34465   0.14469   0.00000  Uiso   1.00
C144   C     0.75894   0.65535   0.18864   0.00000  Uiso   1.00
C145   C     0.66441   0.49967   0.16691   0.00000  Uiso   1.00
C146   C     0.83559   0.50033   0.16642   0.00000  Uiso   1.00
C147   C     0.91181   0.51832   0.22138   0.00000  Uiso   1.00
C148   C     0.58819   0.48168   0.11195   0.00000  Uiso   1.00
C149   C     0.88402   0.50072   0.16614   0.00000  Uiso   1.00
C150   C     0.61598   0.49928   0.16719   0.00000  Uiso   1.00
C151   C     0.90256   0.48319   0.11101   0.00000  Uiso   1.00
C152   C     0.59744   0.51681   0.22232   0.00000  Uiso   1.00
C153   C     0.94882   0.48253   0.11087   0.00000  Uiso   1.00
C154   C     0.55118   0.51747   0.22246   0.00000  Uiso   1.00
C155   C     0.97672   0.50024   0.16653   0.00000  Uiso   1.00
C156   C     0.52328   0.49976   0.16680   0.00000  Uiso   1.00
C157   C     0.95810   0.51841   0.22193   0.00000  Uiso   1.00
C158   C     0.54189   0.48159   0.11140   0.00000  Uiso   1.00
C159   C     0.96762   0.46424   0.05614   0.00000  Uiso   1.00
C160   C     0.53238   0.53576   0.27719   0.00000  Uiso   1.00
Cu161  Cu    0.75500   0.50579   0.22813   0.00000  Uiso   1.00
Cu162  Cu    0.74499   0.49421   0.10521   0.00000  Uiso   1.00
H163   H     0.89746   0.53222   0.26398   0.00000  Uiso   1.00
H164   H     0.60254   0.46778   0.06935   0.00000  Uiso   1.00
H165   H     0.88102   0.46941   0.06837   0.00000  Uiso   1.00
H166   H     0.61898   0.53058   0.26496   0.00000  Uiso   1.00
H167   H     0.94653   0.45047   0.01317   0.00000  Uiso   1.00
H168   H     0.55347   0.54953   0.32016   0.00000  Uiso   1.00
H169   H     0.52794   0.44944   0.01369   0.00000  Uiso   1.00
H170   H     0.97206   0.55056   0.31964   0.00000  Uiso   1.00
N171   N     0.73744   0.48547   0.01284   0.00000  Uiso   1.00
N172   N     0.76255   0.51453   0.32049   0.00000  Uiso   1.00
O173   O     0.75325   0.42871   0.20659   0.00000  Uiso   1.00
O174   O     0.74674   0.57129   0.12674   0.00000  Uiso   1.00
O175   O     0.74480   0.41892   0.10279   0.00000  Uiso   1.00
O176   O     0.75520   0.58108   0.23055   0.00000  Uiso   1.00
O177   O     0.68935   0.50488   0.21857   0.00000  Uiso   1.00
O178   O     0.81064   0.49512   0.11476   0.00000  Uiso   1.00
O179   O     0.68090   0.49510   0.11477   0.00000  Uiso   1.00
O180   O     0.81910   0.50490   0.21857   0.00000  Uiso   1.00
Cl181  Cl    0.70232   0.64486   0.08147   0.00000  Uiso   1.00
Cl182  Cl    0.79768   0.35514   0.25186   0.00000  Uiso   1.00
Cl183  Cl    0.69721   0.43921   0.30228   0.00000  Uiso   1.00
Cl184  Cl    0.80279   0.56079   0.03106   0.00000  Uiso   1.00
C185   C     0.24805   0.73346   0.15148   0.00000  Uiso   1.00
C186   C     0.25195   0.93321   0.18185   0.00000  Uiso   1.00
C187   C     0.01395   0.79703   0.05643   0.00000  Uiso   1.00
C188   C     0.48605   0.86963   0.27690   0.00000  Uiso   1.00
C189   C     0.24105   0.67798   0.14469   0.00000  Uiso   1.00
C190   C     0.25894   0.98868   0.18864   0.00000  Uiso   1.00
C191   C     0.16441   0.83300   0.16691   0.00000  Uiso   1.00
C192   C     0.33559   0.83366   0.16642   0.00000  Uiso   1.00
C193   C     0.41181   0.85165   0.22138   0.00000  Uiso   1.00
C194   C     0.08819   0.81502   0.11195   0.00000  Uiso   1.00
C195   C     0.38402   0.83405   0.16614   0.00000  Uiso   1.00
C196   C     0.11598   0.83261   0.16719   0.00000  Uiso   1.00
C197   C     0.40256   0.81652   0.11101   0.00000  Uiso   1.00
C198   C     0.09744   0.85015   0.22232   0.00000  Uiso   1.00
C199   C     0.44882   0.81586   0.11087   0.00000  Uiso   1.00
C200   C     0.05118   0.85081   0.22246   0.00000  Uiso   1.00
C201   C     0.47672   0.83357   0.16653   0.00000  Uiso   1.00
C202   C     0.02328   0.83310   0.16680   0.00000  Uiso   1.00
C203   C     0.45810   0.85174   0.22193   0.00000  Uiso   1.00
C204   C     0.04189   0.81492   0.11140   0.00000  Uiso   1.00
C205   C     0.46762   0.79757   0.05614   0.00000  Uiso   1.00
C206   C     0.03238   0.86909   0.27719   0.00000  Uiso   1.00
Cu207  Cu    0.25500   0.83913   0.22813   0.00000  Uiso   1.00
Cu208  Cu    0.24499   0.82754   0.10521   0.00000  Uiso   1.00
H209   H     0.39746   0.86556   0.26398   0.00000  Uiso   1.00
H210   H     0.10254   0.80111   0.06935   0.00000  Uiso   1.00
H211   H     0.38102   0.80275   0.06837   0.00000  Uiso   1.00
H212   H     0.11898   0.86392   0.26496   0.00000  Uiso   1.00
H213   H     0.44653   0.78380   0.01317   0.00000  Uiso   1.00
H214   H     0.05347   0.88287   0.32016   0.00000  Uiso   1.00
H215   H     0.02794   0.78277   0.01369   0.00000  Uiso   1.00
H216   H     0.47206   0.88390   0.31964   0.00000  Uiso   1.00
N217   N     0.23744   0.81881   0.01284   0.00000  Uiso   1.00
N218   N     0.26255   0.84786   0.32049   0.00000  Uiso   1.00
O219   O     0.25325   0.76204   0.20659   0.00000  Uiso   1.00
O220   O     0.24674   0.90462   0.12674   0.00000  Uiso   1.00
O221   O     0.24480   0.75226   0.10279   0.00000  Uiso   1.00
O222   O     0.25520   0.91441   0.23055   0.00000  Uiso   1.00
O223   O     0.18935   0.83821   0.21857   0.00000  Uiso   1.00
O224   O     0.31064   0.82845   0.11476   0.00000  Uiso   1.00
O225   O     0.18090   0.82843   0.11477   0.00000  Uiso   1.00
O226   O     0.31910   0.83824   0.21857   0.00000  Uiso   1.00
Cl227  Cl    0.20232   0.97819   0.08147   0.00000  Uiso   1.00
Cl228  Cl    0.29768   0.68847   0.25186   0.00000  Uiso   1.00
Cl229  Cl    0.19721   0.77255   0.30228   0.00000  Uiso   1.00
Cl230  Cl    0.30279   0.89412   0.03106   0.00000  Uiso   1.00
C231   C     0.74805   0.73346   0.15148   0.00000  Uiso   1.00
C232   C     0.75195   0.93321   0.18185   0.00000  Uiso   1.00
C233   C     0.51395   0.79703   0.05643   0.00000  Uiso   1.00
C234   C     0.98605   0.86963   0.27690   0.00000  Uiso   1.00
C235   C     0.74105   0.67798   0.14469   0.00000  Uiso   1.00
C236   C     0.75894   0.98868   0.18864   0.00000  Uiso   1.00
C237   C     0.66441   0.83300   0.16691   0.00000  Uiso   1.00
C238   C     0.83559   0.83366   0.16642   0.00000  Uiso   1.00
C239   C     0.91181   0.85165   0.22138   0.00000  Uiso   1.00
C240   C     0.58819   0.81502   0.11195   0.00000  Uiso   1.00
C241   C     0.88402   0.83405   0.16614   0.00000  Uiso   1.00
C242   C     0.61598   0.83261   0.16719   0.00000  Uiso   1.00
C243   C     0.90256   0.81652   0.11101   0.00000  Uiso   1.00
C244   C     0.59744   0.85015   0.22232   0.00000  Uiso   1.00
C245   C     0.94882   0.81586   0.11087   0.00000  Uiso   1.00
C246   C     0.55118   0.85081   0.22246   0.00000  Uiso   1.00
C247   C     0.97672   0.83357   0.16653   0.00000  Uiso   1.00
C248   C     0.52328   0.83310   0.16680   0.00000  Uiso   1.00
C249   C     0.95810   0.85174   0.22193   0.00000  Uiso   1.00
C250   C     0.54189   0.81492   0.11140   0.00000  Uiso   1.00
C251   C     0.96762   0.79757   0.05614   0.00000  Uiso   1.00
C252   C     0.53238   0.86909   0.27719   0.00000  Uiso   1.00
Cu253  Cu    0.75500   0.83913   0.22813   0.00000  Uiso   1.00
Cu254  Cu    0.74499   0.82754   0.10521   0.00000  Uiso   1.00
H255   H     0.89746   0.86556   0.26398   0.00000  Uiso   1.00
H256   H     0.60254   0.80111   0.06935   0.00000  Uiso   1.00
H257   H     0.88102   0.80275   0.06837   0.00000  Uiso   1.00
H258   H     0.61898   0.86392   0.26496   0.00000  Uiso   1.00
H259   H     0.94653   0.78380   0.01317   0.00000  Uiso   1.00
H260   H     0.55347   0.88287   0.32016   0.00000  Uiso   1.00
H261   H     0.52794   0.78277   0.01369   0.00000  Uiso   1.00
H262   H     0.97206   0.88390   0.31964   0.00000  Uiso   1.00
N263   N     0.73744   0.81881   0.01284   0.00000  Uiso   1.00
N264   N     0.76255   0.84786   0.32049   0.00000  Uiso   1.00
O265   O     0.75325   0.76204   0.20659   0.00000  Uiso   1.00
O266   O     0.74674   0.90462   0.12674   0.00000  Uiso   1.00
O267   O     0.74480   0.75226   0.10279   0.00000  Uiso   1.00
O268   O     0.75520   0.91441   0.23055   0.00000  Uiso   1.00
O269   O     0.68935   0.83821   0.21857   0.00000  Uiso   1.00
O270   O     0.81064   0.82845   0.11476   0.00000  Uiso   1.00
O271   O     0.68090   0.82843   0.11477   0.00000  Uiso   1.00
O272   O     0.81910   0.83824   0.21857   0.00000  Uiso   1.00
Cl273  Cl    0.70232   0.97819   0.08147   0.00000  Uiso   1.00
Cl274  Cl    0.79768   0.68847   0.25186   0.00000  Uiso   1.00
Cl275  Cl    0.69721   0.77255   0.30228   0.00000  Uiso   1.00
Cl276  Cl    0.80279   0.89412   0.03106   0.00000  Uiso   1.00
C277   C     0.24805   0.06679   0.48482   0.00000  Uiso   1.00
C278   C     0.25195   0.26654   0.51518   0.00000  Uiso   1.00
C279   C     0.01395   0.13037   0.38977   0.00000  Uiso   1.00
C280   C     0.48605   0.20297   0.61023   0.00000  Uiso   1.00
C281   C     0.24105   0.01132   0.47803   0.00000  Uiso   1.00
C282   C     0.25894   0.32202   0.52197   0.00000  Uiso   1.00
C283   C     0.16441   0.16634   0.50024   0.00000  Uiso   1.00
C284   C     0.33559   0.16700   0.49976   0.00000  Uiso   1.00
C285   C     0.41181   0.18498   0.55472   0.00000  Uiso   1.00
C286   C     0.08819   0.14835   0.44528   0.00000  Uiso   1.00
C287   C     0.38402   0.16739   0.49948   0.00000  Uiso   1.00
C288   C     0.11598   0.16595   0.50052   0.00000  Uiso   1.00
C289   C     0.40256   0.14985   0.44434   0.00000  Uiso   1.00
C290   C     0.09744   0.18348   0.55566   0.00000  Uiso   1.00
C291   C     0.44882   0.14919   0.44421   0.00000  Uiso   1.00
C292   C     0.05118   0.18414   0.55579   0.00000  Uiso   1.00
C293   C     0.47672   0.16690   0.49986   0.00000  Uiso   1.00
C294   C     0.02328   0.16643   0.50014   0.00000  Uiso   1.00
C295   C     0.45810   0.18508   0.55526   0.00000  Uiso   1.00
C296   C     0.04189   0.14826   0.44474   0.00000  Uiso   1.00
C297   C     0.46762   0.13090   0.38948   0.00000  Uiso   1.00
C298   C     0.03238   0.20243   0.61052   0.00000  Uiso   1.00
Cu299  Cu    0.25500   0.17246   0.56146   0.00000  Uiso   1.00
Cu300  Cu    0.24499   0.16087   0.43854   0.00000  Uiso   1.00
H301   H     0.39746   0.19889   0.59732   0.00000  Uiso   1.00
H302   H     0.10254   0.13444   0.40268   0.00000  Uiso   1.00
H303   H     0.38102   0.13608   0.40171   0.00000  Uiso   1.00
H304   H     0.11898   0.19725   0.59829   0.00000  Uiso   1.00
H305   H     0.44653   0.11713   0.34650   0.00000  Uiso   1.00
H306   H     0.05347   0.21620   0.65350   0.00000  Uiso   1.00
H307   H     0.02794   0.11610   0.34702   0.00000  Uiso   1.00
H308   H     0.47206   0.21723   0.65298   0.00000  Uiso   1.00
N309   N     0.23744   0.15214   0.34617   0.00000  Uiso   1.00
N310   N     0.26255   0.18119   0.65383   0.00000  Uiso   1.00
O311   O     0.25325   0.09538   0.53992   0.00000  Uiso   1.00
O312   O     0.24674   0.23796   0.46008   0.00000  Uiso   1.00
O313   O     0.24480   0.08559   0.43612   0.00000  Uiso   1.00
O314   O     0.25520   0.24774   0.56388   0.00000  Uiso   1.00
O315   O     0.18935   0.17155   0.55191   0.00000  Uiso   1.00
O316   O     0.31064   0.16179   0.44809   0.00000  Uiso   1.00
O317   O     0.18090   0.16176   0.44810   0.00000  Uiso   1.00
O318   O     0.31910   0.17157   0.55190   0.00000  Uiso   1.00
Cl319  Cl    0.20232   0.31153   0.41481   0.00000  Uiso   1.00
Cl320  Cl    0.29768   0.02181   0.58519   0.00000  Uiso   1.00
Cl321  Cl    0.19721   0.10588   0.63561   0.00000  Uiso   1.00
Cl322  Cl    0.30279   0.22745   0.36439   0.00000  Uiso   1.00
C323   C     0.74805   0.06679   0.48482   0.00000  Uiso   1.00
C324   C     0.75195   0.26654   0.51518   0.00000  Uiso   1.00
C325   C     0.51395   0.13037   0.38977   0.00000  Uiso   1.00
C326   C     0.98605   0.20297   0.61023   0.00000  Uiso   1.00
C327   C     0.74105   0.01132   0.47803   0.00000  Uiso   1.00
C328   C     0.75894   0.32202   0.52197   0.00000  Uiso   1.00
C329   C     0.66441   0.16634   0.50024   0.00000  Uiso   1.00
C330   C     0.83559   0.16700   0.49976   0.00000  Uiso   1.00
C331   C     0.91181   0.18498   0.55472   0.00000  Uiso   1.00
C332   C     0.58819   0.14835   0.44528   0.00000  Uiso   1.00
C333   C     0.88402   0.16739   0.49948   0.00000  Uiso   1.00
C334   C     0.61598   0.16595   0.50052   0.00000  Uiso   1.00
C335   C     0.90256   0.14985   0.44434   0.00000  Uiso   1.00
C336   C     0.59744   0.18348   0.55566   0.00000  Uiso   1.00
C337   C     0.94882   0.14919   0.44421   0.00000  Uiso   1.00
C338   C     0.55118   0.18414   0.55579   0.00000  Uiso   1.00
C339   C     0.97672   0.16690   0.49986   0.00000  Uiso   1.00
C340   C     0.52328   0.16643   0.50014   0.00000  Uiso   1.00
C341   C     0.95810   0.18508   0.55526   0.00000  Uiso   1.00
C342   C     0.54189   0.14826   0.44474   0.00000  Uiso   1.00
C343   C     0.96762   0.13090   0.38948   0.00000  Uiso   1.00
C344   C     0.53238   0.20243   0.61052   0.00000  Uiso   1.00
Cu345  Cu    0.75500   0.17246   0.56146   0.00000  Uiso   1.00
Cu346  Cu    0.74499   0.16087   0.43854   0.00000  Uiso   1.00
H347   H     0.89746   0.19889   0.59732   0.00000  Uiso   1.00
H348   H     0.60254   0.13444   0.40268   0.00000  Uiso   1.00
H349   H     0.88102   0.13608   0.40171   0.00000  Uiso   1.00
H350   H     0.61898   0.19725   0.59829   0.00000  Uiso   1.00
H351   H     0.94653   0.11713   0.34650   0.00000  Uiso   1.00
H352   H     0.55347   0.21620   0.65350   0.00000  Uiso   1.00
H353   H     0.52794   0.11610   0.34702   0.00000  Uiso   1.00
H354   H     0.97206   0.21723   0.65298   0.00000  Uiso   1.00
N355   N     0.73744   0.15214   0.34617   0.00000  Uiso   1.00
N356   N     0.76255   0.18119   0.65383   0.00000  Uiso   1.00
O357   O     0.75325   0.09538   0.53992   0.00000  Uiso   1.00
O358   O     0.74674   0.23796   0.46008   0.00000  Uiso   1.00
O359   O     0.74480   0.08559   0.43612   0.00000  Uiso   1.00
O360   O     0.75520   0.24774   0.56388   0.00000  Uiso   1.00
O361   O     0.68935   0.17155   0.55191   0.00000  Uiso   1.00
O362   O     0.81064   0.16179   0.44809   0.00000  Uiso   1.00
O363   O     0.68090   0.16176   0.44810   0.00000  Uiso   1.00
O364   O     0.81910   0.17157   0.55190   0.00000  Uiso   1.00
Cl365  Cl    0.70232   0.31153   0.41481   0.00000  Uiso   1.00
Cl366  Cl    0.79768   0.02181   0.58519   0.00000  Uiso   1.00
Cl367  Cl    0.69721   0.10588   0.63561   0.00000  Uiso   1.00
Cl368  Cl    0.80279   0.22745   0.36439   0.00000  Uiso   1.00
C369   C     0.24805   0.40012   0.48482   0.00000  Uiso   1.00
C370   C     0.25195   0.59988   0.51518   0.00000  Uiso   1.00
C371   C     0.01395   0.46370   0.38977   0.00000  Uiso   1.00
C372   C     0.48605   0.53630   0.61023   0.00000  Uiso   1.00
C373   C     0.24105   0.34465   0.47803   0.00000  Uiso   1.00
C374   C     0.25894   0.65535   0.52197   0.00000  Uiso   1.00
C375   C     0.16441   0.49967   0.50024   0.00000  Uiso   1.00
C376   C     0.33559   0.50033   0.49976   0.00000  Uiso   1.00
C377   C     0.41181   0.51832   0.55472   0.00000  Uiso   1.00
C378   C     0.08819   0.48168   0.44528   0.00000  Uiso   1.00
C379   C     0.38402   0.50072   0.49948   0.00000  Uiso   1.00
C380   C     0.11598   0.49928   0.50052   0.00000  Uiso   1.00
C381   C     0.40256   0.48319   0.44434   0.00000  Uiso   1.00
C382   C     0.09744   0.51681   0.55566   0.00000  Uiso   1.00
C383   C     0.44882   0.48253   0.44421   0.00000  Uiso   1.00
C384   C     0.05118   0.51747   0.55579   0.00000  Uiso   1.00
C385   C     0.47672   0.50024   0.49986   0.00000  Uiso   1.00
C386   C     0.02328   0.49976   0.50014   0.00000  Uiso   1.00
C387   C     0.45810   0.51841   0.55526   0.00000  Uiso   1.00
C388   C     0.04189   0.48159   0.44474   0.00000  Uiso   1.00
C389   C     0.46762   0.46424   0.38948   0.00000  Uiso   1.00
C390   C     0.03238   0.53576   0.61052   0.00000  Uiso   1.00
Cu391  Cu    0.25500   0.50579   0.56146   0.00000  Uiso   1.00
Cu392  Cu    0.24499   0.49421   0.43854   0.00000  Uiso   1.00
H393   H     0.39746   0.53222   0.59732   0.00000  Uiso   1.00
H394   H     0.10254   0.46778   0.40268   0.00000  Uiso   1.00
H395   H     0.38102   0.46941   0.40171   0.00000  Uiso   1.00
H396   H     0.11898   0.53058   0.59829   0.00000  Uiso   1.00
H397   H     0.44653   0.45047   0.34650   0.00000  Uiso   1.00
H398   H     0.05347   0.54953   0.65350   0.00000  Uiso   1.00
H399   H     0.02794   0.44944   0.34702   0.00000  Uiso   1.00
H400   H     0.47206   0.55056   0.65298   0.00000  Uiso   1.00
N401   N     0.23744   0.48547   0.34617   0.00000  Uiso   1.00
N402   N     0.26255   0.51453   0.65383   0.00000  Uiso   1.00
O403   O     0.25325   0.42871   0.53992   0.00000  Uiso   1.00
O404   O     0.24674   0.57129   0.46008   0.00000  Uiso   1.00
O405   O     0.24480   0.41892   0.43612   0.00000  Uiso   1.00
O406   O     0.25520   0.58108   0.56388   0.00000  Uiso   1.00
O407   O     0.18935   0.50488   0.55191   0.00000  Uiso   1.00
O408   O     0.31064   0.49512   0.44809   0.00000  Uiso   1.00
O409   O     0.18090   0.49510   0.44810   0.00000  Uiso   1.00
O410   O     0.31910   0.50490   0.55190   0.00000  Uiso   1.00
Cl411  Cl    0.20232   0.64486   0.41481   0.00000  Uiso   1.00
Cl412  Cl    0.29768   0.35514   0.58519   0.00000  Uiso   1.00
Cl413  Cl    0.19721   0.43921   0.63561   0.00000  Uiso   1.00
Cl414  Cl    0.30279   0.56079   0.36439   0.00000  Uiso   1.00
C415   C     0.74805   0.40012   0.48482   0.00000  Uiso   1.00
C416   C     0.75195   0.59988   0.51518   0.00000  Uiso   1.00
C417   C     0.51395   0.46370   0.38977   0.00000  Uiso   1.00
C418   C     0.98605   0.53630   0.61023   0.00000  Uiso   1.00
C419   C     0.74105   0.34465   0.47803   0.00000  Uiso   1.00
C420   C     0.75894   0.65535   0.52197   0.00000  Uiso   1.00
C421   C     0.66441   0.49967   0.50024   0.00000  Uiso   1.00
C422   C     0.83559   0.50033   0.49976   0.00000  Uiso   1.00
C423   C     0.91181   0.51832   0.55472   0.00000  Uiso   1.00
C424   C     0.58819   0.48168   0.44528   0.00000  Uiso   1.00
C425   C     0.88402   0.50072   0.49948   0.00000  Uiso   1.00
C426   C     0.61598   0.49928   0.50052   0.00000  Uiso   1.00
C427   C     0.90256   0.48319   0.44434   0.00000  Uiso   1.00
C428   C     0.59744   0.51681   0.55566   0.00000  Uiso   1.00
C429   C     0.94882   0.48253   0.44421   0.00000  Uiso   1.00
C430   C     0.55118   0.51747   0.55579   0.00000  Uiso   1.00
C431   C     0.97672   0.50024   0.49986   0.00000  Uiso   1.00
C432   C     0.52328   0.49976   0.50014   0.00000  Uiso   1.00
C433   C     0.95810   0.51841   0.55526   0.00000  Uiso   1.00
C434   C     0.54189   0.48159   0.44474   0.00000  Uiso   1.00
C435   C     0.96762   0.46424   0.38948   0.00000  Uiso   1.00
C436   C     0.53238   0.53576   0.61052   0.00000  Uiso   1.00
Cu437  Cu    0.75500   0.50579   0.56146   0.00000  Uiso   1.00
Cu438  Cu    0.74499   0.49421   0.43854   0.00000  Uiso   1.00
H439   H     0.89746   0.53222   0.59732   0.00000  Uiso   1.00
H440   H     0.60254   0.46778   0.40268   0.00000  Uiso   1.00
H441   H     0.88102   0.46941   0.40171   0.00000  Uiso   1.00
H442   H     0.61898   0.53058   0.59829   0.00000  Uiso   1.00
H443   H     0.94653   0.45047   0.34650   0.00000  Uiso   1.00
H444   H     0.55347   0.54953   0.65350   0.00000  Uiso   1.00
H445   H     0.52794   0.44944   0.34702   0.00000  Uiso   1.00
H446   H     0.97206   0.55056   0.65298   0.00000  Uiso   1.00
N447   N     0.73744   0.48547   0.34617   0.00000  Uiso   1.00
N448   N     0.76255   0.51453   0.65383   0.00000  Uiso   1.00
O449   O     0.75325   0.42871   0.53992   0.00000  Uiso   1.00
O450   O     0.74674   0.57129   0.46008   0.00000  Uiso   1.00
O451   O     0.74480   0.41892   0.43612   0.00000  Uiso   1.00
O452   O     0.75520   0.58108   0.56388   0.00000  Uiso   1.00
O453   O     0.68935   0.50488   0.55191   0.00000  Uiso   1.00
O454   O     0.81064   0.49512   0.44809   0.00000  Uiso   1.00
O455   O     0.68090   0.49510   0.44810   0.00000  Uiso   1.00
O456   O     0.81910   0.50490   0.55190   0.00000  Uiso   1.00
Cl457  Cl    0.70232   0.64486   0.41481   0.00000  Uiso   1.00
Cl458  Cl    0.79768   0.35514   0.58519   0.00000  Uiso   1.00
Cl459  Cl    0.69721   0.43921   0.63561   0.00000  Uiso   1.00
Cl460  Cl    0.80279   0.56079   0.36439   0.00000  Uiso   1.00
C461   C     0.24805   0.73346   0.48482   0.00000  Uiso   1.00
C462   C     0.25195   0.93321   0.51518   0.00000  Uiso   1.00
C463   C     0.01395   0.79703   0.38977   0.00000  Uiso   1.00
C464   C     0.48605   0.86963   0.61023   0.00000  Uiso   1.00
C465   C     0.24105   0.67798   0.47803   0.00000  Uiso   1.00
C466   C     0.25894   0.98868   0.52197   0.00000  Uiso   1.00
C467   C     0.16441   0.83300   0.50024   0.00000  Uiso   1.00
C468   C     0.33559   0.83366   0.49976   0.00000  Uiso   1.00
C469   C     0.41181   0.85165   0.55472   0.00000  Uiso   1.00
C470   C     0.08819   0.81502   0.44528   0.00000  Uiso   1.00
C471   C     0.38402   0.83405   0.49948   0.00000  Uiso   1.00
C472   C     0.11598   0.83261   0.50052   0.00000  Uiso   1.00
C473   C     0.40256   0.81652   0.44434   0.00000  Uiso   1.00
C474   C     0.09744   0.85015   0.55566   0.00000  Uiso   1.00
C475   C     0.44882   0.81586   0.44421   0.00000  Uiso   1.00
C476   C     0.05118   0.85081   0.55579   0.00000  Uiso   1.00
C477   C     0.47672   0.83357   0.49986   0.00000  Uiso   1.00
C478   C     0.02328   0.83310   0.50014   0.00000  Uiso   1.00
C479   C     0.45810   0.85174   0.55526   0.00000  Uiso   1.00
C480   C     0.04189   0.81492   0.44474   0.00000  Uiso   1.00
C481   C     0.46762   0.79757   0.38948   0.00000  Uiso   1.00
C482   C     0.03238   0.86909   0.61052   0.00000  Uiso   1.00
Cu483  Cu    0.25500   0.83913   0.56146   0.00000  Uiso   1.00
Cu484  Cu    0.24499   0.82754   0.43854   0.00000  Uiso   1.00
H485   H     0.39746   0.86556   0.59732   0.00000  Uiso   1.00
H486   H     0.10254   0.80111   0.40268   0.00000  Uiso   1.00
H487   H     0.38102   0.80275   0.40171   0.00000  Uiso   1.00
H488   H     0.11898   0.86392   0.59829   0.00000  Uiso   1.00
H489   H     0.44653   0.78380   0.34650   0.00000  Uiso   1.00
H490   H     0.05347   0.88287   0.65350   0.00000  Uiso   1.00
H491   H     0.02794   0.78277   0.34702   0.00000  Uiso   1.00
H492   H     0.47206   0.88390   0.65298   0.00000  Uiso   1.00
N493   N     0.23744   0.81881   0.34617   0.00000  Uiso   1.00
N494   N     0.26255   0.84786   0.65383   0.00000  Uiso   1.00
O495   O     0.25325   0.76204   0.53992   0.00000  Uiso   1.00
O496   O     0.24674   0.90462   0.46008   0.00000  Uiso   1.00
O497   O     0.24480   0.75226   0.43612   0.00000  Uiso   1.00
O498   O     0.25520   0.91441   0.56388   0.00000  Uiso   1.00
O499   O     0.18935   0.83821   0.55191   0.00000  Uiso   1.00
O500   O     0.31064   0.82845   0.44809   0.00000  Uiso   1.00
O501   O     0.18090   0.82843   0.44810   0.00000  Uiso   1.00
O502   O     0.31910   0.83824   0.55190   0.00000  Uiso   1.00
Cl503  Cl    0.20232   0.97819   0.41481   0.00000  Uiso   1.00
Cl504  Cl    0.29768   0.68847   0.58519   0.00000  Uiso   1.00
Cl505  Cl    0.19721   0.77255   0.63561   0.00000  Uiso   1.00
Cl506  Cl    0.30279   0.89412   0.36439   0.00000  Uiso   1.00
C507   C     0.74805   0.73346   0.48482   0.00000  Uiso   1.00
C508   C     0.75195   0.93321   0.51518   0.00000  Uiso   1.00
C509   C     0.51395   0.79703   0.38977   0.00000  Uiso   1.00
C510   C     0.98605   0.86963   0.61023   0.00000  Uiso   1.00
C511   C     0.74105   0.67798   0.47803   0.00000  Uiso   1.00
C512   C     0.75894   0.98868   0.52197   0.00000  Uiso   1.00
C513   C     0.66441   0.83300   0.50024   0.00000  Uiso   1.00
C514   C     0.83559   0.83366   0.49976   0.00000  Uiso   1.00
C515   C     0.91181   0.85165   0.55472   0.00000  Uiso   1.00
C516   C     0.58819   0.81502   0.44528   0.00000  Uiso   1.00
C517   C     0.88402   0.83405   0.49948   0.00000  Uiso   1.00
C518   C     0.61598   0.83261   0.50052   0.00000  Uiso   1.00
C519   C     0.90256   0.81652   0.44434   0.00000  Uiso   1.00
C520   C     0.59744   0.85015   0.55566   0.00000  Uiso   1.00
C521   C     0.94882   0.81586   0.44421   0.00000  Uiso   1.00
C522   C     0.55118   0.85081   0.55579   0.00000  Uiso   1.00
C523   C     0.97672   0.83357   0.49986   0.00000  Uiso   1.00
C524   C     0.52328   0.83310   0.50014   0.00000  Uiso   1.00
C525   C     0.95810   0.85174   0.55526   0.00000  Uiso   1.00
C526   C     0.54189   0.81492   0.44474   0.00000  Uiso   1.00
C527   C     0.96762   0.79757   0.38948   0.00000  Uiso   1.00
C528   C     0.53238   0.86909   0.61052   0.00000  Uiso   1.00
Cu529  Cu    0.75500   0.83913   0.56146   0.00000  Uiso   1.00
Cu530  Cu    0.74499   0.82754   0.43854   0.00000  Uiso   1.00
H531   H     0.89746   0.86556   0.59732   0.00000  Uiso   1.00
H532   H     0.60254   0.80111   0.40268   0.00000  Uiso   1.00
H533   H     0.88102   0.80275   0.40171   0.00000  Uiso   1.00
H534   H     0.61898   0.86392   0.59829   0.00000  Uiso   1.00
H535   H     0.94653   0.78380   0.34650   0.00000  Uiso   1.00
H536   H     0.55347   0.88287   0.65350   0.00000  Uiso   1.00
H537   H     0.52794   0.78277   0.34702   0.00000  Uiso   1.00
H538   H     0.97206   0.88390   0.65298   0.00000  Uiso   1.00
N539   N     0.73744   0.81881   0.34617   0.00000  Uiso   1.00
N540   N     0.76255   0.84786   0.65383   0.00000  Uiso   1.00
O541   O     0.75325   0.76204   0.53992   0.00000  Uiso   1.00
O542   O     0.74674   0.90462   0.46008   0.00000  Uiso   1.00
O543   O     0.74480   0.75226   0.43612   0.00000  Uiso   1.00
O544   O     0.75520   0.91441   0.56388   0.00000  Uiso   1.00
O545   O     0.68935   0.83821   0.55191   0.00000  Uiso   1.00
O546   O     0.81064   0.82845   0.44809   0.00000  Uiso   1.00
O547   O     0.68090   0.82843   0.44810   0.00000  Uiso   1.00
O548   O     0.81910   0.83824   0.55190   0.00000  Uiso   1.00
Cl549  Cl    0.70232   0.97819   0.41481   0.00000  Uiso   1.00
Cl550  Cl    0.79768   0.68847   0.58519   0.00000  Uiso   1.00
Cl551  Cl    0.69721   0.77255   0.63561   0.00000  Uiso   1.00
Cl552  Cl    0.80279   0.89412   0.36439   0.00000  Uiso   1.00
C553   C     0.24805   0.06679   0.81815   0.00000  Uiso   1.00
C554   C     0.25195   0.26654   0.84852   0.00000  Uiso   1.00
C555   C     0.01395   0.13037   0.72310   0.00000  Uiso   1.00
C556   C     0.48605   0.20297   0.94357   0.00000  Uiso   1.00
C557   C     0.24105   0.01132   0.81136   0.00000  Uiso   1.00
C558   C     0.25894   0.32202   0.85531   0.00000  Uiso   1.00
C559   C     0.16441   0.16634   0.83358   0.00000  Uiso   1.00
C560   C     0.33559   0.16700   0.83309   0.00000  Uiso   1.00
C561   C     0.41181   0.18498   0.88805   0.00000  Uiso   1.00
C562   C     0.08819   0.14835   0.77862   0.00000  Uiso   1.00
C563   C     0.38402   0.16739   0.83281   0.00000  Uiso   1.00
C564   C     0.11598   0.16595   0.83386   0.00000  Uiso   1.00
C565   C     0.40256   0.14985   0.77768   0.00000  Uiso   1.00
C566   C     0.09744   0.18348   0.88899   0.00000  Uiso   1.00
C567   C     0.44882   0.14919   0.77754   0.00000  Uiso   1.00
C568   C     0.05118   0.18414   0.88913   0.00000  Uiso   1.00
C569   C     0.47672   0.16690   0.83320   0.00000  Uiso   1.00
C570   C     0.02328   0.16643   0.83347   0.00000  Uiso   1.00
C571   C     0.45810   0.18508   0.88860   0.00000  Uiso   1.00
C572   C     0.04189   0.14826   0.77807   0.00000  Uiso   1.00
C573   C     0.46762   0.13090   0.72281   0.00000  Uiso   1.00
C574   C     0.03238   0.20243   0.94386   0.00000  Uiso   1.00
Cu575  Cu    0.25500   0.17246   0.89479   0.00000  Uiso   1.00
Cu576  Cu    0.24499   0.16087   0.77187   0.00000  Uiso   1.00
H577   H     0.39746   0.19889   0.93065   0.00000  Uiso   1.00
H578   H     0.10254   0.13444   0.73602   0.00000  Uiso   1.00
H579   H     0.38102   0.13608   0.73504   0.00000  Uiso   1.00
H580   H     0.11898   0.19725   0.93163   0.00000  Uiso   1.00
H581   H     0.44653   0.11713   0.67984   0.00000  Uiso   1.00
H582   H     0.05347   0.21620   0.98683   0.00000  Uiso   1.00
H583   H     0.02794   0.11610   0.68036   0.00000  Uiso   1.00
H584   H     0.47206   0.21723   0.98631   0.00000  Uiso   1.00
N585   N     0.23744   0.15214   0.67951   0.00000  Uiso   1.00
N586   N     0.26255   0.18119   0.98716   0.00000  Uiso   1.00
O587   O     0.25325   0.09538   0.87326   0.00000  Uiso   1.00
O588   O     0.24674   0.23796   0.79341   0.00000  Uiso   1.00
O589   O     0.24480   0.08559   0.76945   0.00000  Uiso   1.00
O590   O     0.25520   0.24774   0.89721   0.00000  Uiso   1.00
O591   O     0.18935   0.17155   0.88524   0.00000  Uiso   1.00
O592   O     0.31064   0.16179   0.78143   0.00000  Uiso   1.00
O593   O     0.18090   0.16176   0.78143   0.00000  Uiso   1.00
O594   O     0.31910   0.17157   0.88523   0.00000  Uiso   1.00
Cl595  Cl    0.20232   0.31153   0.74814   0.00000  Uiso   1.00
Cl596  Cl    0.29768   0.02181   0.91853   0.00000  Uiso   1.00
Cl597  Cl    0.19721   0.10588   0.96894   0.00000  Uiso   1.00
Cl598  Cl    0.30279   0.22745   0.69772   0.00000  Uiso   1.00
C599   C     0.74805   0.06679   0.81815   0.00000  Uiso   1.00
C600   C     0.75195   0.26654   0.84852   0.00000  Uiso   1.00
C601   C     0.51395   0.13037   0.72310   0.00000  Uiso   1.00
C602   C     0.98605   0.20297   0.94357   0.00000  Uiso   1.00
C603   C     0.74105   0.01132   0.81136   0.00000  Uiso   1.00
C604   C     0.75894   0.32202   0.85531   0.00000  Uiso   1.00
C605   C     0.66441   0.16634   0.83358   0.00000  Uiso   1.00
C606   C     0.83559   0.16700   0.83309   0.00000  Uiso   1.00
C607   C     0.91181   0.18498   0.88805   0.00000  Uiso   1.00
C608   C     0.58819   0.14835   0.77862   0.00000  Uiso   1.00
C609   C     0.88402   0.16739   0.83281   0.00000  Uiso   1.00
C610   C     0.61598   0.16595   0.83386   0.00000  Uiso   1.00
C611   C     0.90256   0.14985   0.77768   0.00000  Uiso   1.00
C612   C     0.59744   0.18348   0.88899   0.00000  Uiso   1.00
C613   C     0.94882   0.14919   0.77754   0.00000  Uiso   1.00
C614   C     0.55118   0.18414   0.88913   0.00000  Uiso   1.00
C615   C     0.97672   0.16690   0.83320   0.00000  Uiso   1.00
C616   C     0.52328   0.16643   0.83347   0.00000  Uiso   1.00
C617   C     0.95810   0.18508   0.88860   0.00000  Uiso   1.00
C618   C     0.54189   0.14826   0.77807   0.00000  Uiso   1.00
C619   C     0.96762   0.13090   0.72281   0.00000  Uiso   1.00
C620   C     0.53238   0.20243   0.94386   0.00000  Uiso   1.00
Cu621  Cu    0.75500   0.17246   0.89479   0.00000  Uiso   1.00
Cu622  Cu    0.74499   0.16087   0.77187   0.00000  Uiso   1.00
H623   H     0.89746   0.19889   0.93065   0.00000  Uiso   1.00
H624   H     0.60254   0.13444   0.73602   0.00000  Uiso   1.00
H625   H     0.88102   0.13608   0.73504   0.00000  Uiso   1.00
H626   H     0.61898   0.19725   0.93163   0.00000  Uiso   1.00
H627   H     0.94653   0.11713   0.67984   0.00000  Uiso   1.00
H628   H     0.55347   0.21620   0.98683   0.00000  Uiso   1.00
H629   H     0.52794   0.11610   0.68036   0.00000  Uiso   1.00
H630   H     0.97206   0.21723   0.98631   0.00000  Uiso   1.00
N631   N     0.73744   0.15214   0.67951   0.00000  Uiso   1.00
N632   N     0.76255   0.18119   0.98716   0.00000  Uiso   1.00
O633   O     0.75325   0.09538   0.87326   0.00000  Uiso   1.00
O634   O     0.74674   0.23796   0.79341   0.00000  Uiso   1.00
O635   O     0.74480   0.08559   0.76945   0.00000  Uiso   1.00
O636   O     0.75520   0.24774   0.89721   0.00000  Uiso   1.00
O637   O     0.68935   0.17155   0.88524   0.00000  Uiso   1.00
O638   O     0.81064   0.16179   0.78143   0.00000  Uiso   1.00
O639   O     0.68090   0.16176   0.78143   0.00000  Uiso   1.00
O640   O     0.81910   0.17157   0.88523   0.00000  Uiso   1.00
Cl641  Cl    0.70232   0.31153   0.74814   0.00000  Uiso   1.00
Cl642  Cl    0.79768   0.02181   0.91853   0.00000  Uiso   1.00
Cl643  Cl    0.69721   0.10588   0.96894   0.00000  Uiso   1.00
Cl644  Cl    0.80279   0.22745   0.69772   0.00000  Uiso   1.00
C645   C     0.24805   0.40012   0.81815   0.00000  Uiso   1.00
C646   C     0.25195   0.59988   0.84852   0.00000  Uiso   1.00
C647   C     0.01395   0.46370   0.72310   0.00000  Uiso   1.00
C648   C     0.48605   0.53630   0.94357   0.00000  Uiso   1.00
C649   C     0.24105   0.34465   0.81136   0.00000  Uiso   1.00
C650   C     0.25894   0.65535   0.85531   0.00000  Uiso   1.00
C651   C     0.16441   0.49967   0.83358   0.00000  Uiso   1.00
C652   C     0.33559   0.50033   0.83309   0.00000  Uiso   1.00
C653   C     0.41181   0.51832   0.88805   0.00000  Uiso   1.00
C654   C     0.08819   0.48168   0.77862   0.00000  Uiso   1.00
C655   C     0.38402   0.50072   0.83281   0.00000  Uiso   1.00
C656   C     0.11598   0.49928   0.83386   0.00000  Uiso   1.00
C657   C     0.40256   0.48319   0.77768   0.00000  Uiso   1.00
C658   C     0.09744   0.51681   0.88899   0.00000  Uiso   1.00
C659   C     0.44882   0.48253   0.77754   0.00000  Uiso   1.00
C660   C     0.05118   0.51747   0.88913   0.00000  Uiso   1.00
C661   C     0.47672   0.50024   0.83320   0.00000  Uiso   1.00
C662   C     0.02328   0.49976   0.83347   0.00000  Uiso   1.00
C663   C     0.45810   0.51841   0.88860   0.00000  Uiso   1.00
C664   C     0.04189   0.48159   0.77807   0.00000  Uiso   1.00
C665   C     0.46762   0.46424   0.72281   0.00000  Uiso   1.00
C666   C     0.03238   0.53576   0.94386   0.00000  Uiso   1.00
Cu667  Cu    0.25500   0.50579   0.89479   0.00000  Uiso   1.00
Cu668  Cu    0.24499   0.49421   0.77187   0.00000  Uiso   1.00
H669   H     0.39746   0.53222   0.93065   0.00000  Uiso   1.00
H670   H     0.10254   0.46778   0.73602   0.00000  Uiso   1.00
H671   H     0.38102   0.46941   0.73504   0.00000  Uiso   1.00
H672   H     0.11898   0.53058   0.93163   0.00000  Uiso   1.00
H673   H     0.44653   0.45047   0.67984   0.00000  Uiso   1.00
H674   H     0.05347   0.54953   0.98683   0.00000  Uiso   1.00
H675   H     0.02794   0.44944   0.68036   0.00000  Uiso   1.00
H676   H     0.47206   0.55056   0.98631   0.00000  Uiso   1.00
N677   N     0.23744   0.48547   0.67951   0.00000  Uiso   1.00
N678   N     0.26255   0.51453   0.98716   0.00000  Uiso   1.00
O679   O     0.25325   0.42871   0.87326   0.00000  Uiso   1.00
O680   O     0.24674   0.57129   0.79341   0.00000  Uiso   1.00
O681   O     0.24480   0.41892   0.76945   0.00000  Uiso   1.00
O682   O     0.25520   0.58108   0.89721   0.00000  Uiso   1.00
O683   O     0.18935   0.50488   0.88524   0.00000  Uiso   1.00
O684   O     0.31064   0.49512   0.78143   0.00000  Uiso   1.00
O685   O     0.18090   0.49510   0.78143   0.00000  Uiso   1.00
O686   O     0.31910   0.50490   0.88523   0.00000  Uiso   1.00
Cl687  Cl    0.20232   0.64486   0.74814   0.00000  Uiso   1.00
Cl688  Cl    0.29768   0.35514   0.91853   0.00000  Uiso   1.00
Cl689  Cl    0.19721   0.43921   0.96894   0.00000  Uiso   1.00
Cl690  Cl    0.30279   0.56079   0.69772   0.00000  Uiso   1.00
C691   C     0.74805   0.40012   0.81815   0.00000  Uiso   1.00
C692   C     0.75195   0.59988   0.84852   0.00000  Uiso   1.00
C693   C     0.51395   0.46370   0.72310   0.00000  Uiso   1.00
C694   C     0.98605   0.53630   0.94357   0.00000  Uiso   1.00
C695   C     0.74105   0.34465   0.81136   0.00000  Uiso   1.00
C696   C     0.75894   0.65535   0.85531   0.00000  Uiso   1.00
C697   C     0.66441   0.49967   0.83358   0.00000  Uiso   1.00
C698   C     0.83559   0.50033   0.83309   0.00000  Uiso   1.00
C699   C     0.91181   0.51832   0.88805   0.00000  Uiso   1.00
C700   C     0.58819   0.48168   0.77862   0.00000  Uiso   1.00
C701   C     0.88402   0.50072   0.83281   0.00000  Uiso   1.00
C702   C     0.61598   0.49928   0.83386   0.00000  Uiso   1.00
C703   C     0.90256   0.48319   0.77768   0.00000  Uiso   1.00
C704   C     0.59744   0.51681   0.88899   0.00000  Uiso   1.00
C705   C     0.94882   0.48253   0.77754   0.00000  Uiso   1.00
C706   C     0.55118   0.51747   0.88913   0.00000  Uiso   1.00
C707   C     0.97672   0.50024   0.83320   0.00000  Uiso   1.00
C708   C     0.52328   0.49976   0.83347   0.00000  Uiso   1.00
C709   C     0.95810   0.51841   0.88860   0.00000  Uiso   1.00
C710   C     0.54189   0.48159   0.77807   0.00000  Uiso   1.00
C711   C     0.96762   0.46424   0.72281   0.00000  Uiso   1.00
C712   C     0.53238   0.53576   0.94386   0.00000  Uiso   1.00
Cu713  Cu    0.75500   0.50579   0.89479   0.00000  Uiso   1.00
Cu714  Cu    0.74499   0.49421   0.77187   0.00000  Uiso   1.00
H715   H     0.89746   0.53222   0.93065   0.00000  Uiso   1.00
H716   H     0.60254   0.46778   0.73602   0.00000  Uiso   1.00
H717   H     0.88102   0.46941   0.73504   0.00000  Uiso   1.00
H718   H     0.61898   0.53058   0.93163   0.00000  Uiso   1.00
H719   H     0.94653   0.45047   0.67984   0.00000  Uiso   1.00
H720   H     0.55347   0.54953   0.98683   0.00000  Uiso   1.00
H721   H     0.52794   0.44944   0.68036   0.00000  Uiso   1.00
H722   H     0.97206   0.55056   0.98631   0.00000  Uiso   1.00
N723   N     0.73744   0.48547   0.67951   0.00000  Uiso   1.00
N724   N     0.76255   0.51453   0.98716   0.00000  Uiso   1.00
O725   O     0.75325   0.42871   0.87326   0.00000  Uiso   1.00
O726   O     0.74674   0.57129   0.79341   0.00000  Uiso   1.00
O727   O     0.74480   0.41892   0.76945   0.00000  Uiso   1.00
O728   O     0.75520   0.58108   0.89721   0.00000  Uiso   1.00
O729   O     0.68935   0.50488   0.88524   0.00000  Uiso   1.00
O730   O     0.81064   0.49512   0.78143   0.00000  Uiso   1.00
O731   O     0.68090   0.49510   0.78143   0.00000  Uiso   1.00
O732   O     0.81910   0.50490   0.88523   0.00000  Uiso   1.00
Cl733  Cl    0.70232   0.64486   0.74814   0.00000  Uiso   1.00
Cl734  Cl    0.79768   0.35514   0.91853   0.00000  Uiso   1.00
Cl735  Cl    0.69721   0.43921   0.96894   0.00000  Uiso   1.00
Cl736  Cl    0.80279   0.56079   0.69772   0.00000  Uiso   1.00
C737   C     0.24805   0.73346   0.81815   0.00000  Uiso   1.00
C738   C     0.25195   0.93321   0.84852   0.00000  Uiso   1.00
C739   C     0.01395   0.79703   0.72310   0.00000  Uiso   1.00
C740   C     0.48605   0.86963   0.94357   0.00000  Uiso   1.00
C741   C     0.24105   0.67798   0.81136   0.00000  Uiso   1.00
C742   C     0.25894   0.98868   0.85531   0.00000  Uiso   1.00
C743   C     0.16441   0.83300   0.83358   0.00000  Uiso   1.00
C744   C     0.33559   0.83366   0.83309   0.00000  Uiso   1.00
C745   C     0.41181   0.85165   0.88805   0.00000  Uiso   1.00
C746   C     0.08819   0.81502   0.77862   0.00000  Uiso   1.00
C747   C     0.38402   0.83405   0.83281   0.00000  Uiso   1.00
C748   C     0.11598   0.83261   0.83386   0.00000  Uiso   1.00
C749   C     0.40256   0.81652   0.77768   0.00000  Uiso   1.00
C750   C     0.09744   0.85015   0.88899   0.00000  Uiso   1.00
C751   C     0.44882   0.81586   0.77754   0.00000  Uiso   1.00
C752   C     0.05118   0.85081   0.88913   0.00000  Uiso   1.00
C753   C     0.47672   0.83357   0.83320   0.00000  Uiso   1.00
C754   C     0.02328   0.83310   0.83347   0.00000  Uiso   1.00
C755   C     0.45810   0.85174   0.88860   0.00000  Uiso   1.00
C756   C     0.04189   0.81492   0.77807   0.00000  Uiso   1.00
C757   C     0.46762   0.79757   0.72281   0.00000  Uiso   1.00
C758   C     0.03238   0.86909   0.94386   0.00000  Uiso   1.00
Cu759  Cu    0.25500   0.83913   0.89479   0.00000  Uiso   1.00
Cu760  Cu    0.24499   0.82754   0.77187   0.00000  Uiso   1.00
H761   H     0.39746   0.86556   0.93065   0.00000  Uiso   1.00
H762   H     0.10254   0.80111   0.73602   0.00000  Uiso   1.00
H763   H     0.38102   0.80275   0.73504   0.00000  Uiso   1.00
H764   H     0.11898   0.86392   0.93163   0.00000  Uiso   1.00
H765   H     0.44653   0.78380   0.67984   0.00000  Uiso   1.00
H766   H     0.05347   0.88287   0.98683   0.00000  Uiso   1.00
H767   H     0.02794   0.78277   0.68036   0.00000  Uiso   1.00
H768   H     0.47206   0.88390   0.98631   0.00000  Uiso   1.00
N769   N     0.23744   0.81881   0.67951   0.00000  Uiso   1.00
N770   N     0.26255   0.84786   0.98716   0.00000  Uiso   1.00
O771   O     0.25325   0.76204   0.87326   0.00000  Uiso   1.00
O772   O     0.24674   0.90462   0.79341   0.00000  Uiso   1.00
O773   O     0.24480   0.75226   0.76945   0.00000  Uiso   1.00
O774   O     0.25520   0.91441   0.89721   0.00000  Uiso   1.00
O775   O     0.18935   0.83821   0.88524   0.00000  Uiso   1.00
O776   O     0.31064   0.82845   0.78143   0.00000  Uiso   1.00
O777   O     0.18090   0.82843   0.78143   0.00000  Uiso   1.00
O778   O     0.31910   0.83824   0.88523   0.00000  Uiso   1.00
Cl779  Cl    0.20232   0.97819   0.74814   0.00000  Uiso   1.00
Cl780  Cl    0.29768   0.68847   0.91853   0.00000  Uiso   1.00
Cl781  Cl    0.19721   0.77255   0.96894   0.00000  Uiso   1.00
Cl782  Cl    0.30279   0.89412   0.69772   0.00000  Uiso   1.00
C783   C     0.74805   0.73346   0.81815   0.00000  Uiso   1.00
C784   C     0.75195   0.93321   0.84852   0.00000  Uiso   1.00
C785   C     0.51395   0.79703   0.72310   0.00000  Uiso   1.00
C786   C     0.98605   0.86963   0.94357   0.00000  Uiso   1.00
C787   C     0.74105   0.67798   0.81136   0.00000  Uiso   1.00
C788   C     0.75894   0.98868   0.85531   0.00000  Uiso   1.00
C789   C     0.66441   0.83300   0.83358   0.00000  Uiso   1.00
C790   C     0.83559   0.83366   0.83309   0.00000  Uiso   1.00
C791   C     0.91181   0.85165   0.88805   0.00000  Uiso   1.00
C792   C     0.58819   0.81502   0.77862   0.00000  Uiso   1.00
C793   C     0.88402   0.83405   0.83281   0.00000  Uiso   1.00
C794   C     0.61598   0.83261   0.83386   0.00000  Uiso   1.00
C795   C     0.90256   0.81652   0.77768   0.00000  Uiso   1.00
C796   C     0.59744   0.85015   0.88899   0.00000  Uiso   1.00
C797   C     0.94882   0.81586   0.77754   0.00000  Uiso   1.00
C798   C     0.55118   0.85081   0.88913   0.00000  Uiso   1.00
C799   C     0.97672   0.83357   0.83320   0.00000  Uiso   1.00
C800   C     0.52328   0.83310   0.83347   0.00000  Uiso   1.00
C801   C     0.95810   0.85174   0.88860   0.00000  Uiso   1.00
C802   C     0.54189   0.81492   0.77807   0.00000  Uiso   1.00
C803   C     0.96762   0.79757   0.72281   0.00000  Uiso   1.00
C804   C     0.53238   0.86909   0.94386   0.00000  Uiso   1.00
Cu805  Cu    0.75500   0.83913   0.89479   0.00000  Uiso   1.00
Cu806  Cu    0.74499   0.82754   0.77187   0.00000  Uiso   1.00
H807   H     0.89746   0.86556   0.93065   0.00000  Uiso   1.00
H808   H     0.60254   0.80111   0.73602   0.00000  Uiso   1.00
H809   H     0.88102   0.80275   0.73504   0.00000  Uiso   1.00
H810   H     0.61898   0.86392   0.93163   0.00000  Uiso   1.00
H811   H     0.94653   0.78380   0.67984   0.00000  Uiso   1.00
H812   H     0.55347   0.88287   0.98683   0.00000  Uiso   1.00
H813   H     0.52794   0.78277   0.68036   0.00000  Uiso   1.00
H814   H     0.97206   0.88390   0.98631   0.00000  Uiso   1.00
N815   N     0.73744   0.81881   0.67951   0.00000  Uiso   1.00
N816   N     0.76255   0.84786   0.98716   0.00000  Uiso   1.00
O817   O     0.75325   0.76204   0.87326   0.00000  Uiso   1.00
O818   O     0.74674   0.90462   0.79341   0.00000  Uiso   1.00
O819   O     0.74480   0.75226   0.76945   0.00000  Uiso   1.00
O820   O     0.75520   0.91441   0.89721   0.00000  Uiso   1.00
O821   O     0.68935   0.83821   0.88524   0.00000  Uiso   1.00
O822   O     0.81064   0.82845   0.78143   0.00000  Uiso   1.00
O823   O     0.68090   0.82843   0.78143   0.00000  Uiso   1.00
O824   O     0.81910   0.83824   0.88523   0.00000  Uiso   1.00
Cl825  Cl    0.70232   0.97819   0.74814   0.00000  Uiso   1.00
Cl826  Cl    0.79768   0.68847   0.91853   0.00000  Uiso   1.00
Cl827  Cl    0.69721   0.77255   0.96894   0.00000  Uiso   1.00
Cl828  Cl    0.80279   0.89412   0.69772   0.00000  Uiso   1.00
loop_
_geom_bond_atom_site_label_1
_geom_bond_atom_site_label_2
_geom_bond_distance
_geom_bond_site_symmetry_2
_ccdc_geom_bond_type
C1     O37     1.295   .     A
C1     C5      1.427   .     S
C1     O35     1.289   .     A
C2     O38     1.295   .     A
C2     O36     1.289   .     A
C2     C6      1.427   .     S
C3     C20     1.401   .     A
C3     H31     1.084   .     S
C3     C67     1.393   1_455 S
C4     H32     1.084   .     S
C4     C19     1.401   .     A
C4     C68     1.393   .     S
C5     C190    1.350   1_545 S
C5     Cl227   1.779   1_545 S
C6     C97     1.350   .     S
C6     Cl136   1.779   .     S
C7     O41     1.298   .     A
C7     C12     1.456   .     S
C7     O39     1.302   .     A
C8     C11     1.456   .     S
C8     O42     1.298   .     A
C8     O40     1.302   .     A
C9     H25     1.085   .     S
C9     C11     1.403   .     A
C9     C19     1.391   .     A
C10    H26     1.085   .     S
C10    C12     1.403   .     A
C10    C20     1.391   .     A
C11    C13     1.402   .     A
C12    C14     1.402   .     A
C13    C15     1.392   .     A
C13    H27     1.085   .     S
C14    H28     1.085   .     S
C14    C16     1.392   .     A
C15    C21     1.401   .     A
C15    C17     1.412   .     A
C16    C18     1.412   .     A
C16    C22     1.401   .     A
C17    C19     1.410   .     A
C17    C64     1.400   .     S
C18    C20     1.410   .     A
C18    C63     1.400   1_455 S
C21    H29     1.084   .     S
C21    C49     1.393   .     S
C22    H30     1.084   .     S
C22    C50     1.393   1_455 S
Cu23   Cu24    2.702   .     S
Cu23   O38     1.960   .     S
Cu23   O35     1.965   .     S
Cu23   N34     2.030   .     S
Cu23   O42     1.959   .     S
Cu23   O39     1.965   .     S
Cu24   N33     2.030   .     S
Cu24   O36     1.965   .     S
Cu24   O37     1.960   .     S
Cu24   O41     1.959   .     S
Cu24   O40     1.965   .     S
N33    N586    1.297   1_554 S
N33    Cl597   1.726   1_554 S
N34    N309    1.297   .     S
N34    Cl322   1.726   .     S
Cl43   C97     1.779   .     S
Cl44   C190    1.779   1_545 S
Cl45   N309    1.726   .     S
Cl46   N586    1.726   1_554 S
C47    O83     1.295   .     A
C47    C51     1.427   .     S
C47    O81     1.289   .     A
C48    O84     1.295   .     A
C48    O82     1.289   .     A
C48    C52     1.427   .     S
C49    C66     1.401   .     A
C49    H77     1.084   .     S
C50    H78     1.084   .     S
C50    C65     1.401   .     A
C50    C22     1.393   1_655 S
C51    C236    1.350   1_545 S
C51    Cl273   1.779   1_545 S
C52    C143    1.350   .     S
C52    Cl182   1.779   .     S
C53    O87     1.298   .     A
C53    C58     1.456   .     S
C53    O85     1.302   .     A
C54    C57     1.456   .     S
C54    O88     1.298   .     A
C54    O86     1.302   .     A
C55    H71     1.085   .     S
C55    C57     1.403   .     A
C55    C65     1.391   .     A
C56    H72     1.085   .     S
C56    C58     1.403   .     A
C56    C66     1.391   .     A
C57    C59     1.402   .     A
C58    C60     1.402   .     A
C59    C61     1.392   .     A
C59    H73     1.085   .     S
C60    H74     1.085   .     S
C60    C62     1.392   .     A
C61    C67     1.401   .     A
C61    C63     1.412   .     A
C62    C64     1.412   .     A
C62    C68     1.401   .     A
C63    C65     1.410   .     A
C63    C18     1.400   1_655 S
C64    C66     1.410   .     A
C67    H75     1.084   .     S
C67    C3      1.393   1_655 S
C68    H76     1.084   .     S
Cu69   Cu70    2.702   .     S
Cu69   O84     1.960   .     S
Cu69   O81     1.965   .     S
Cu69   N80     2.030   .     S
Cu69   O88     1.959   .     S
Cu69   O85     1.965   .     S
Cu70   N79     2.030   .     S
Cu70   O82     1.965   .     S
Cu70   O83     1.960   .     S
Cu70   O87     1.959   .     S
Cu70   O86     1.965   .     S
N79    N632    1.297   1_554 S
N79    Cl643   1.726   1_554 S
N80    N355    1.297   .     S
N80    Cl368   1.726   .     S
Cl89   C143    1.779   .     S
Cl90   C236    1.779   1_545 S
Cl91   N355    1.726   .     S
Cl92   N632    1.726   1_554 S
C93    O129    1.295   .     A
C93    C97     1.427   .     S
C93    O127    1.289   .     A
C94    O130    1.295   .     A
C94    O128    1.289   .     A
C94    C98     1.427   .     S
C95    C112    1.401   .     A
C95    H123    1.084   .     S
C95    C159    1.393   1_455 S
C96    H124    1.084   .     S
C96    C111    1.401   .     A
C96    C160    1.393   .     S
C98    C189    1.350   .     S
C98    Cl228   1.779   .     S
C99    O133    1.298   .     A
C99    C104    1.456   .     S
C99    O131    1.302   .     A
C100   C103    1.456   .     S
C100   O134    1.298   .     A
C100   O132    1.302   .     A
C101   H117    1.085   .     S
C101   C103    1.403   .     A
C101   C111    1.391   .     A
C102   H118    1.085   .     S
C102   C104    1.403   .     A
C102   C112    1.391   .     A
C103   C105    1.402   .     A
C104   C106    1.402   .     A
C105   C107    1.392   .     A
C105   H119    1.085   .     S
C106   H120    1.085   .     S
C106   C108    1.392   .     A
C107   C113    1.401   .     A
C107   C109    1.412   .     A
C108   C110    1.412   .     A
C108   C114    1.401   .     A
C109   C111    1.410   .     A
C109   C156    1.400   .     S
C110   C112    1.410   .     A
C110   C155    1.400   1_455 S
C113   H121    1.084   .     S
C113   C141    1.393   .     S
C114   H122    1.084   .     S
C114   C142    1.393   1_455 S
Cu115  Cu116   2.702   .     S
Cu115  O130    1.960   .     S
Cu115  O127    1.965   .     S
Cu115  N126    2.030   .     S
Cu115  O134    1.959   .     S
Cu115  O131    1.965   .     S
Cu116  N125    2.030   .     S
Cu116  O128    1.965   .     S
Cu116  O129    1.960   .     S
Cu116  O133    1.959   .     S
Cu116  O132    1.965   .     S
N125   N678    1.297   1_554 S
N125   Cl689   1.726   1_554 S
N126   N401    1.297   .     S
N126   Cl414   1.726   .     S
Cl135  C189    1.779   .     S
Cl137  N401    1.726   .     S
Cl138  N678    1.726   1_554 S
C139   O175    1.295   .     A
C139   C143    1.427   .     S
C139   O173    1.289   .     A
C140   O176    1.295   .     A
C140   O174    1.289   .     A
C140   C144    1.427   .     S
C141   C158    1.401   .     A
C141   H169    1.084   .     S
C142   H170    1.084   .     S
C142   C157    1.401   .     A
C142   C114    1.393   1_655 S
C144   C235    1.350   .     S
C144   Cl274   1.779   .     S
C145   O179    1.298   .     A
C145   C150    1.456   .     S
C145   O177    1.302   .     A
C146   C149    1.456   .     S
C146   O180    1.298   .     A
C146   O178    1.302   .     A
C147   H163    1.085   .     S
C147   C149    1.403   .     A
C147   C157    1.391   .     A
C148   H164    1.085   .     S
C148   C150    1.403   .     A
C148   C158    1.391   .     A
C149   C151    1.402   .     A
C150   C152    1.402   .     A
C151   C153    1.392   .     A
C151   H165    1.085   .     S
C152   H166    1.085   .     S
C152   C154    1.392   .     A
C153   C159    1.401   .     A
C153   C155    1.412   .     A
C154   C156    1.412   .     A
C154   C160    1.401   .     A
C155   C157    1.410   .     A
C155   C110    1.400   1_655 S
C156   C158    1.410   .     A
C159   H167    1.084   .     S
C159   C95     1.393   1_655 S
C160   H168    1.084   .     S
Cu161  Cu162   2.702   .     S
Cu161  O176    1.960   .     S
Cu161  O173    1.965   .     S
Cu161  N172    2.030   .     S
Cu161  O180    1.959   .     S
Cu161  O177    1.965   .     S
Cu162  N171    2.030   .     S
Cu162  O174    1.965   .     S
Cu162  O175    1.960   .     S
Cu162  O179    1.959   .     S
Cu162  O178    1.965   .     S
N171   N724    1.297   1_554 S
N171   Cl735   1.726   1_554 S
N172   N447    1.297   .     S
N172   Cl460   1.726   .     S
Cl181  C235    1.779   .     S
Cl183  N447    1.726   .     S
Cl184  N724    1.726   1_554 S
C185   O221    1.295   .     A
C185   C189    1.427   .     S
C185   O219    1.289   .     A
C186   O222    1.295   .     A
C186   O220    1.289   .     A
C186   C190    1.427   .     S
C187   C204    1.401   .     A
C187   H215    1.084   .     S
C187   C251    1.393   1_455 S
C188   H216    1.084   .     S
C188   C203    1.401   .     A
C188   C252    1.393   .     S
C190   C5      1.350   1_565 S
C190   Cl44    1.779   1_565 S
C191   O225    1.298   .     A
C191   C196    1.456   .     S
C191   O223    1.302   .     A
C192   C195    1.456   .     S
C192   O226    1.298   .     A
C192   O224    1.302   .     A
C193   H209    1.085   .     S
C193   C195    1.403   .     A
C193   C203    1.391   .     A
C194   H210    1.085   .     S
C194   C196    1.403   .     A
C194   C204    1.391   .     A
C195   C197    1.402   .     A
C196   C198    1.402   .     A
C197   C199    1.392   .     A
C197   H211    1.085   .     S
C198   H212    1.085   .     S
C198   C200    1.392   .     A
C199   C205    1.401   .     A
C199   C201    1.412   .     A
C200   C202    1.412   .     A
C200   C206    1.401   .     A
C201   C203    1.410   .     A
C201   C248    1.400   .     S
C202   C204    1.410   .     A
C202   C247    1.400   1_455 S
C205   H213    1.084   .     S
C205   C233    1.393   .     S
C206   H214    1.084   .     S
C206   C234    1.393   1_455 S
Cu207  Cu208   2.702   .     S
Cu207  O222    1.960   .     S
Cu207  O219    1.965   .     S
Cu207  N218    2.030   .     S
Cu207  O226    1.959   .     S
Cu207  O223    1.965   .     S
Cu208  N217    2.030   .     S
Cu208  O220    1.965   .     S
Cu208  O221    1.960   .     S
Cu208  O225    1.959   .     S
Cu208  O224    1.965   .     S
N217   N770    1.297   1_554 S
N217   Cl781   1.726   1_554 S
N218   N493    1.297   .     S
N218   Cl506   1.726   .     S
Cl227  C5      1.779   1_565 S
Cl229  N493    1.726   .     S
Cl230  N770    1.726   1_554 S
C231   O267    1.295   .     A
C231   C235    1.427   .     S
C231   O265    1.289   .     A
C232   O268    1.295   .     A
C232   O266    1.289   .     A
C232   C236    1.427   .     S
C233   C250    1.401   .     A
C233   H261    1.084   .     S
C234   H262    1.084   .     S
C234   C249    1.401   .     A
C234   C206    1.393   1_655 S
C236   C51     1.350   1_565 S
C236   Cl90    1.779   1_565 S
C237   O271    1.298   .     A
C237   C242    1.456   .     S
C237   O269    1.302   .     A
C238   C241    1.456   .     S
C238   O272    1.298   .     A
C238   O270    1.302   .     A
C239   H255    1.085   .     S
C239   C241    1.403   .     A
C239   C249    1.391   .     A
C240   H256    1.085   .     S
C240   C242    1.403   .     A
C240   C250    1.391   .     A
C241   C243    1.402   .     A
C242   C244    1.402   .     A
C243   C245    1.392   .     A
C243   H257    1.085   .     S
C244   H258    1.085   .     S
C244   C246    1.392   .     A
C245   C251    1.401   .     A
C245   C247    1.412   .     A
C246   C248    1.412   .     A
C246   C252    1.401   .     A
C247   C249    1.410   .     A
C247   C202    1.400   1_655 S
C248   C250    1.410   .     A
C251   H259    1.084   .     S
C251   C187    1.393   1_655 S
C252   H260    1.084   .     S
Cu253  Cu254   2.702   .     S
Cu253  O268    1.960   .     S
Cu253  O265    1.965   .     S
Cu253  N264    2.030   .     S
Cu253  O272    1.959   .     S
Cu253  O269    1.965   .     S
Cu254  N263    2.030   .     S
Cu254  O266    1.965   .     S
Cu254  O267    1.960   .     S
Cu254  O271    1.959   .     S
Cu254  O270    1.965   .     S
N263   N816    1.297   1_554 S
N263   Cl827   1.726   1_554 S
N264   N539    1.297   .     S
N264   Cl552   1.726   .     S
Cl273  C51     1.779   1_565 S
Cl275  N539    1.726   .     S
Cl276  N816    1.726   1_554 S
C277   O313    1.295   .     A
C277   C281    1.427   .     S
C277   O311    1.289   .     A
C278   O314    1.295   .     A
C278   O312    1.289   .     A
C278   C282    1.427   .     S
C279   C296    1.401   .     A
C279   H307    1.084   .     S
C279   C343    1.393   1_455 S
C280   H308    1.084   .     S
C280   C295    1.401   .     A
C280   C344    1.393   .     S
C281   C466    1.350   1_545 S
C281   Cl503   1.779   1_545 S
C282   C373    1.350   .     S
C282   Cl412   1.779   .     S
C283   O317    1.298   .     A
C283   C288    1.456   .     S
C283   O315    1.302   .     A
C284   C287    1.456   .     S
C284   O318    1.298   .     A
C284   O316    1.302   .     A
C285   H301    1.085   .     S
C285   C287    1.403   .     A
C285   C295    1.391   .     A
C286   H302    1.085   .     S
C286   C288    1.403   .     A
C286   C296    1.391   .     A
C287   C289    1.402   .     A
C288   C290    1.402   .     A
C289   C291    1.392   .     A
C289   H303    1.085   .     S
C290   H304    1.085   .     S
C290   C292    1.392   .     A
C291   C297    1.401   .     A
C291   C293    1.412   .     A
C292   C294    1.412   .     A
C292   C298    1.401   .     A
C293   C295    1.410   .     A
C293   C340    1.400   .     S
C294   C296    1.410   .     A
C294   C339    1.400   1_455 S
C297   H305    1.084   .     S
C297   C325    1.393   .     S
C298   H306    1.084   .     S
C298   C326    1.393   1_455 S
Cu299  Cu300   2.702   .     S
Cu299  O314    1.960   .     S
Cu299  O311    1.965   .     S
Cu299  N310    2.030   .     S
Cu299  O318    1.959   .     S
Cu299  O315    1.965   .     S
Cu300  N309    2.030   .     S
Cu300  O312    1.965   .     S
Cu300  O313    1.960   .     S
Cu300  O317    1.959   .     S
Cu300  O316    1.965   .     S
N310   N585    1.297   .     S
N310   Cl598   1.726   .     S
Cl319  C373    1.779   .     S
Cl320  C466    1.779   1_545 S
Cl321  N585    1.726   .     S
C323   O359    1.295   .     A
C323   C327    1.427   .     S
C323   O357    1.289   .     A
C324   O360    1.295   .     A
C324   O358    1.289   .     A
C324   C328    1.427   .     S
C325   C342    1.401   .     A
C325   H353    1.084   .     S
C326   H354    1.084   .     S
C326   C341    1.401   .     A
C326   C298    1.393   1_655 S
C327   C512    1.350   1_545 S
C327   Cl549   1.779   1_545 S
C328   C419    1.350   .     S
C328   Cl458   1.779   .     S
C329   O363    1.298   .     A
C329   C334    1.456   .     S
C329   O361    1.302   .     A
C330   C333    1.456   .     S
C330   O364    1.298   .     A
C330   O362    1.302   .     A
C331   H347    1.085   .     S
C331   C333    1.403   .     A
C331   C341    1.391   .     A
C332   H348    1.085   .     S
C332   C334    1.403   .     A
C332   C342    1.391   .     A
C333   C335    1.402   .     A
C334   C336    1.402   .     A
C335   C337    1.392   .     A
C335   H349    1.085   .     S
C336   H350    1.085   .     S
C336   C338    1.392   .     A
C337   C343    1.401   .     A
C337   C339    1.412   .     A
C338   C340    1.412   .     A
C338   C344    1.401   .     A
C339   C341    1.410   .     A
C339   C294    1.400   1_655 S
C340   C342    1.410   .     A
C343   H351    1.084   .     S
C343   C279    1.393   1_655 S
C344   H352    1.084   .     S
Cu345  Cu346   2.702   .     S
Cu345  O360    1.960   .     S
Cu345  O357    1.965   .     S
Cu345  N356    2.030   .     S
Cu345  O364    1.959   .     S
Cu345  O361    1.965   .     S
Cu346  N355    2.030   .     S
Cu346  O358    1.965   .     S
Cu346  O359    1.960   .     S
Cu346  O363    1.959   .     S
Cu346  O362    1.965   .     S
N356   N631    1.297   .     S
N356   Cl644   1.726   .     S
Cl365  C419    1.779   .     S
Cl366  C512    1.779   1_545 S
Cl367  N631    1.726   .     S
C369   O405    1.295   .     A
C369   C373    1.427   .     S
C369   O403    1.289   .     A
C370   O406    1.295   .     A
C370   O404    1.289   .     A
C370   C374    1.427   .     S
C371   C388    1.401   .     A
C371   H399    1.084   .     S
C371   C435    1.393   1_455 S
C372   H400    1.084   .     S
C372   C387    1.401   .     A
C372   C436    1.393   .     S
C374   C465    1.350   .     S
C374   Cl504   1.779   .     S
C375   O409    1.298   .     A
C375   C380    1.456   .     S
C375   O407    1.302   .     A
C376   C379    1.456   .     S
C376   O410    1.298   .     A
C376   O408    1.302   .     A
C377   H393    1.085   .     S
C377   C379    1.403   .     A
C377   C387    1.391   .     A
C378   H394    1.085   .     S
C378   C380    1.403   .     A
C378   C388    1.391   .     A
C379   C381    1.402   .     A
C380   C382    1.402   .     A
C381   C383    1.392   .     A
C381   H395    1.085   .     S
C382   H396    1.085   .     S
C382   C384    1.392   .     A
C383   C389    1.401   .     A
C383   C385    1.412   .     A
C384   C386    1.412   .     A
C384   C390    1.401   .     A
C385   C387    1.410   .     A
C385   C432    1.400   .     S
C386   C388    1.410   .     A
C386   C431    1.400   1_455 S
C389   H397    1.084   .     S
C389   C417    1.393   .     S
C390   H398    1.084   .     S
C390   C418    1.393   1_455 S
Cu391  Cu392   2.702   .     S
Cu391  O406    1.960   .     S
Cu391  O403    1.965   .     S
Cu391  N402    2.030   .     S
Cu391  O410    1.959   .     S
Cu391  O407    1.965   .     S
Cu392  N401    2.030   .     S
Cu392  O404    1.965   .     S
Cu392  O405    1.960   .     S
Cu392  O409    1.959   .     S
Cu392  O408    1.965   .     S
N402   N677    1.297   .     S
N402   Cl690   1.726   .     S
Cl411  C465    1.779   .     S
Cl413  N677    1.726   .     S
C415   O451    1.295   .     A
C415   C419    1.427   .     S
C415   O449    1.289   .     A
C416   O452    1.295   .     A
C416   O450    1.289   .     A
C416   C420    1.427   .     S
C417   C434    1.401   .     A
C417   H445    1.084   .     S
C418   H446    1.084   .     S
C418   C433    1.401   .     A
C418   C390    1.393   1_655 S
C420   C511    1.350   .     S
C420   Cl550   1.779   .     S
C421   O455    1.298   .     A
C421   C426    1.456   .     S
C421   O453    1.302   .     A
C422   C425    1.456   .     S
C422   O456    1.298   .     A
C422   O454    1.302   .     A
C423   H439    1.085   .     S
C423   C425    1.403   .     A
C423   C433    1.391   .     A
C424   H440    1.085   .     S
C424   C426    1.403   .     A
C424   C434    1.391   .     A
C425   C427    1.402   .     A
C426   C428    1.402   .     A
C427   C429    1.392   .     A
C427   H441    1.085   .     S
C428   H442    1.085   .     S
C428   C430    1.392   .     A
C429   C435    1.401   .     A
C429   C431    1.412   .     A
C430   C432    1.412   .     A
C430   C436    1.401   .     A
C431   C433    1.410   .     A
C431   C386    1.400   1_655 S
C432   C434    1.410   .     A
C435   H443    1.084   .     S
C435   C371    1.393   1_655 S
C436   H444    1.084   .     S
Cu437  Cu438   2.702   .     S
Cu437  O452    1.960   .     S
Cu437  O449    1.965   .     S
Cu437  N448    2.030   .     S
Cu437  O456    1.959   .     S
Cu437  O453    1.965   .     S
Cu438  N447    2.030   .     S
Cu438  O450    1.965   .     S
Cu438  O451    1.960   .     S
Cu438  O455    1.959   .     S
Cu438  O454    1.965   .     S
N448   N723    1.297   .     S
N448   Cl736   1.726   .     S
Cl457  C511    1.779   .     S
Cl459  N723    1.726   .     S
C461   O497    1.295   .     A
C461   C465    1.427   .     S
C461   O495    1.289   .     A
C462   O498    1.295   .     A
C462   O496    1.289   .     A
C462   C466    1.427   .     S
C463   C480    1.401   .     A
C463   H491    1.084   .     S
C463   C527    1.393   1_455 S
C464   H492    1.084   .     S
C464   C479    1.401   .     A
C464   C528    1.393   .     S
C466   C281    1.350   1_565 S
C466   Cl320   1.779   1_565 S
C467   O501    1.298   .     A
C467   C472    1.456   .     S
C467   O499    1.302   .     A
C468   C471    1.456   .     S
C468   O502    1.298   .     A
C468   O500    1.302   .     A
C469   H485    1.085   .     S
C469   C471    1.403   .     A
C469   C479    1.391   .     A
C470   H486    1.085   .     S
C470   C472    1.403   .     A
C470   C480    1.391   .     A
C471   C473    1.402   .     A
C472   C474    1.402   .     A
C473   C475    1.392   .     A
C473   H487    1.085   .     S
C474   H488    1.085   .     S
C474   C476    1.392   .     A
C475   C481    1.401   .     A
C475   C477    1.412   .     A
C476   C478    1.412   .     A
C476   C482    1.401   .     A
C477   C479    1.410   .     A
C477   C524    1.400   .     S
C478   C480    1.410   .     A
C478   C523    1.400   1_455 S
C481   H489    1.084   .     S
C481   C509    1.393   .     S
C482   H490    1.084   .     S
C482   C510    1.393   1_455 S
Cu483  Cu484   2.702   .     S
Cu483  O498    1.960   .     S
Cu483  O495    1.965   .     S
Cu483  N494    2.030   .     S
Cu483  O502    1.959   .     S
Cu483  O499    1.965   .     S
Cu484  N493    2.030   .     S
Cu484  O496    1.965   .     S
Cu484  O497    1.960   .     S
Cu484  O501    1.959   .     S
Cu484  O500    1.965   .     S
N494   N769    1.297   .     S
N494   Cl782   1.726   .     S
Cl503  C281    1.779   1_565 S
Cl505  N769    1.726   .     S
C507   O543    1.295   .     A
C507   C511    1.427   .     S
C507   O541    1.289   .     A
C508   O544    1.295   .     A
C508   O542    1.289   .     A
C508   C512    1.427   .     S
C509   C526    1.401   .     A
C509   H537    1.084   .     S
C510   H538    1.084   .     S
C510   C525    1.401   .     A
C510   C482    1.393   1_655 S
C512   C327    1.350   1_565 S
C512   Cl366   1.779   1_565 S
C513   O547    1.298   .     A
C513   C518    1.456   .     S
C513   O545    1.302   .     A
C514   C517    1.456   .     S
C514   O548    1.298   .     A
C514   O546    1.302   .     A
C515   H531    1.085   .     S
C515   C517    1.403   .     A
C515   C525    1.391   .     A
C516   H532    1.085   .     S
C516   C518    1.403   .     A
C516   C526    1.391   .     A
C517   C519    1.402   .     A
C518   C520    1.402   .     A
C519   C521    1.392   .     A
C519   H533    1.085   .     S
C520   H534    1.085   .     S
C520   C522    1.392   .     A
C521   C527    1.401   .     A
C521   C523    1.412   .     A
C522   C524    1.412   .     A
C522   C528    1.401   .     A
C523   C525    1.410   .     A
C523   C478    1.400   1_655 S
C524   C526    1.410   .     A
C527   H535    1.084   .     S
C527   C463    1.393   1_655 S
C528   H536    1.084   .     S
Cu529  Cu530   2.702   .     S
Cu529  O544    1.960   .     S
Cu529  O541    1.965   .     S
Cu529  N540    2.030   .     S
Cu529  O548    1.959   .     S
Cu529  O545    1.965   .     S
Cu530  N539    2.030   .     S
Cu530  O542    1.965   .     S
Cu530  O543    1.960   .     S
Cu530  O547    1.959   .     S
Cu530  O546    1.965   .     S
N540   N815    1.297   .     S
N540   Cl828   1.726   .     S
Cl549  C327    1.779   1_565 S
Cl551  N815    1.726   .     S
C553   O589    1.295   .     A
C553   C557    1.427   .     S
C553   O587    1.289   .     A
C554   O590    1.295   .     A
C554   O588    1.289   .     A
C554   C558    1.427   .     S
C555   C572    1.401   .     A
C555   H583    1.084   .     S
C555   C619    1.393   1_455 S
C556   H584    1.084   .     S
C556   C571    1.401   .     A
C556   C620    1.393   .     S
C557   C742    1.350   1_545 S
C557   Cl779   1.779   1_545 S
C558   C649    1.350   .     S
C558   Cl688   1.779   .     S
C559   O593    1.298   .     A
C559   C564    1.456   .     S
C559   O591    1.302   .     A
C560   C563    1.456   .     S
C560   O594    1.298   .     A
C560   O592    1.302   .     A
C561   H577    1.085   .     S
C561   C563    1.403   .     A
C561   C571    1.391   .     A
C562   H578    1.085   .     S
C562   C564    1.403   .     A
C562   C572    1.391   .     A
C563   C565    1.402   .     A
C564   C566    1.402   .     A
C565   C567    1.392   .     A
C565   H579    1.085   .     S
C566   H580    1.085   .     S
C566   C568    1.392   .     A
C567   C573    1.401   .     A
C567   C569    1.412   .     A
C568   C570    1.412   .     A
C568   C574    1.401   .     A
C569   C571    1.410   .     A
C569   C616    1.400   .     S
C570   C572    1.410   .     A
C570   C615    1.400   1_455 S
C573   H581    1.084   .     S
C573   C601    1.393   .     S
C574   H582    1.084   .     S
C574   C602    1.393   1_455 S
Cu575  Cu576   2.702   .     S
Cu575  O590    1.960   .     S
Cu575  O587    1.965   .     S
Cu575  N586    2.030   .     S
Cu575  O594    1.959   .     S
Cu575  O591    1.965   .     S
Cu576  N585    2.030   .     S
Cu576  O588    1.965   .     S
Cu576  O589    1.960   .     S
Cu576  O593    1.959   .     S
Cu576  O592    1.965   .     S
N586   N33     1.297   1_556 S
N586   Cl46    1.726   1_556 S
Cl595  C649    1.779   .     S
Cl596  C742    1.779   1_545 S
Cl597  N33     1.726   1_556 S
C599   O635    1.295   .     A
C599   C603    1.427   .     S
C599   O633    1.289   .     A
C600   O636    1.295   .     A
C600   O634    1.289   .     A
C600   C604    1.427   .     S
C601   C618    1.401   .     A
C601   H629    1.084   .     S
C602   H630    1.084   .     S
C602   C617    1.401   .     A
C602   C574    1.393   1_655 S
C603   C788    1.350   1_545 S
C603   Cl825   1.779   1_545 S
C604   C695    1.350   .     S
C604   Cl734   1.779   .     S
C605   O639    1.298   .     A
C605   C610    1.456   .     S
C605   O637    1.302   .     A
C606   C609    1.456   .     S
C606   O640    1.298   .     A
C606   O638    1.302   .     A
C607   H623    1.085   .     S
C607   C609    1.403   .     A
C607   C617    1.391   .     A
C608   H624    1.085   .     S
C608   C610    1.403   .     A
C608   C618    1.391   .     A
C609   C611    1.402   .     A
C610   C612    1.402   .     A
C611   C613    1.392   .     A
C611   H625    1.085   .     S
C612   H626    1.085   .     S
C612   C614    1.392   .     A
C613   C619    1.401   .     A
C613   C615    1.412   .     A
C614   C616    1.412   .     A
C614   C620    1.401   .     A
C615   C617    1.410   .     A
C615   C570    1.400   1_655 S
C616   C618    1.410   .     A
C619   H627    1.084   .     S
C619   C555    1.393   1_655 S
C620   H628    1.084   .     S
Cu621  Cu622   2.702   .     S
Cu621  O636    1.960   .     S
Cu621  O633    1.965   .     S
Cu621  N632    2.030   .     S
Cu621  O640    1.959   .     S
Cu621  O637    1.965   .     S
Cu622  N631    2.030   .     S
Cu622  O634    1.965   .     S
Cu622  O635    1.960   .     S
Cu622  O639    1.959   .     S
Cu622  O638    1.965   .     S
N632   N79     1.297   1_556 S
N632   Cl92    1.726   1_556 S
Cl641  C695    1.779   .     S
Cl642  C788    1.779   1_545 S
Cl643  N79     1.726   1_556 S
C645   O681    1.295   .     A
C645   C649    1.427   .     S
C645   O679    1.289   .     A
C646   O682    1.295   .     A
C646   O680    1.289   .     A
C646   C650    1.427   .     S
C647   C664    1.401   .     A
C647   H675    1.084   .     S
C647   C711    1.393   1_455 S
C648   H676    1.084   .     S
C648   C663    1.401   .     A
C648   C712    1.393   .     S
C650   C741    1.350   .     S
C650   Cl780   1.779   .     S
C651   O685    1.298   .     A
C651   C656    1.456   .     S
C651   O683    1.302   .     A
C652   C655    1.456   .     S
C652   O686    1.298   .     A
C652   O684    1.302   .     A
C653   H669    1.085   .     S
C653   C655    1.403   .     A
C653   C663    1.391   .     A
C654   H670    1.085   .     S
C654   C656    1.403   .     A
C654   C664    1.391   .     A
C655   C657    1.402   .     A
C656   C658    1.402   .     A
C657   C659    1.392   .     A
C657   H671    1.085   .     S
C658   H672    1.085   .     S
C658   C660    1.392   .     A
C659   C665    1.401   .     A
C659   C661    1.412   .     A
C660   C662    1.412   .     A
C660   C666    1.401   .     A
C661   C663    1.410   .     A
C661   C708    1.400   .     S
C662   C664    1.410   .     A
C662   C707    1.400   1_455 S
C665   H673    1.084   .     S
C665   C693    1.393   .     S
C666   H674    1.084   .     S
C666   C694    1.393   1_455 S
Cu667  Cu668   2.702   .     S
Cu667  O682    1.960   .     S
Cu667  O679    1.965   .     S
Cu667  N678    2.030   .     S
Cu667  O686    1.959   .     S
Cu667  O683    1.965   .     S
Cu668  N677    2.030   .     S
Cu668  O680    1.965   .     S
Cu668  O681    1.960   .     S
Cu668  O685    1.959   .     S
Cu668  O684    1.965   .     S
N678   N125    1.297   1_556 S
N678   Cl138   1.726   1_556 S
Cl687  C741    1.779   .     S
Cl689  N125    1.726   1_556 S
C691   O727    1.295   .     A
C691   C695    1.427   .     S
C691   O725    1.289   .     A
C692   O728    1.295   .     A
C692   O726    1.289   .     A
C692   C696    1.427   .     S
C693   C710    1.401   .     A
C693   H721    1.084   .     S
C694   H722    1.084   .     S
C694   C709    1.401   .     A
C694   C666    1.393   1_655 S
C696   C787    1.350   .     S
C696   Cl826   1.779   .     S
C697   O731    1.298   .     A
C697   C702    1.456   .     S
C697   O729    1.302   .     A
C698   C701    1.456   .     S
C698   O732    1.298   .     A
C698   O730    1.302   .     A
C699   H715    1.085   .     S
C699   C701    1.403   .     A
C699   C709    1.391   .     A
C700   H716    1.085   .     S
C700   C702    1.403   .     A
C700   C710    1.391   .     A
C701   C703    1.402   .     A
C702   C704    1.402   .     A
C703   C705    1.392   .     A
C703   H717    1.085   .     S
C704   H718    1.085   .     S
C704   C706    1.392   .     A
C705   C711    1.401   .     A
C705   C707    1.412   .     A
C706   C708    1.412   .     A
C706   C712    1.401   .     A
C707   C709    1.410   .     A
C707   C662    1.400   1_655 S
C708   C710    1.410   .     A
C711   H719    1.084   .     S
C711   C647    1.393   1_655 S
C712   H720    1.084   .     S
Cu713  Cu714   2.702   .     S
Cu713  O728    1.960   .     S
Cu713  O725    1.965   .     S
Cu713  N724    2.030   .     S
Cu713  O732    1.959   .     S
Cu713  O729    1.965   .     S
Cu714  N723    2.030   .     S
Cu714  O726    1.965   .     S
Cu714  O727    1.960   .     S
Cu714  O731    1.959   .     S
Cu714  O730    1.965   .     S
N724   N171    1.297   1_556 S
N724   Cl184   1.726   1_556 S
Cl733  C787    1.779   .     S
Cl735  N171    1.726   1_556 S
C737   O773    1.295   .     A
C737   C741    1.427   .     S
C737   O771    1.289   .     A
C738   O774    1.295   .     A
C738   O772    1.289   .     A
C738   C742    1.427   .     S
C739   C756    1.401   .     A
C739   H767    1.084   .     S
C739   C803    1.393   1_455 S
C740   H768    1.084   .     S
C740   C755    1.401   .     A
C740   C804    1.393   .     S
C742   C557    1.350   1_565 S
C742   Cl596   1.779   1_565 S
C743   O777    1.298   .     A
C743   C748    1.456   .     S
C743   O775    1.302   .     A
C744   C747    1.456   .     S
C744   O778    1.298   .     A
C744   O776    1.302   .     A
C745   H761    1.085   .     S
C745   C747    1.403   .     A
C745   C755    1.391   .     A
C746   H762    1.085   .     S
C746   C748    1.403   .     A
C746   C756    1.391   .     A
C747   C749    1.402   .     A
C748   C750    1.402   .     A
C749   C751    1.392   .     A
C749   H763    1.085   .     S
C750   H764    1.085   .     S
C750   C752    1.392   .     A
C751   C757    1.401   .     A
C751   C753    1.412   .     A
C752   C754    1.412   .     A
C752   C758    1.401   .     A
C753   C755    1.410   .     A
C753   C800    1.400   .     S
C754   C756    1.410   .     A
C754   C799    1.400   1_455 S
C757   H765    1.084   .     S
C757   C785    1.393   .     S
C758   H766    1.084   .     S
C758   C786    1.393   1_455 S
Cu759  Cu760   2.702   .     S
Cu759  O774    1.960   .     S
Cu759  O771    1.965   .     S
Cu759  N770    2.030   .     S
Cu759  O778    1.959   .     S
Cu759  O775    1.965   .     S
Cu760  N769    2.030   .     S
Cu760  O772    1.965   .     S
Cu760  O773    1.960   .     S
Cu760  O777    1.959   .     S
Cu760  O776    1.965   .     S
N770   N217    1.297   1_556 S
N770   Cl230   1.726   1_556 S
Cl779  C557    1.779   1_565 S
Cl781  N217    1.726   1_556 S
C783   O819    1.295   .     A
C783   C787    1.427   .     S
C783   O817    1.289   .     A
C784   O820    1.295   .     A
C784   O818    1.289   .     A
C784   C788    1.427   .     S
C785   C802    1.401   .     A
C785   H813    1.084   .     S
C786   H814    1.084   .     S
C786   C801    1.401   .     A
C786   C758    1.393   1_655 S
C788   C603    1.350   1_565 S
C788   Cl642   1.779   1_565 S
C789   O823    1.298   .     A
C789   C794    1.456   .     S
C789   O821    1.302   .     A
C790   C793    1.456   .     S
C790   O824    1.298   .     A
C790   O822    1.302   .     A
C791   H807    1.085   .     S
C791   C793    1.403   .     A
C791   C801    1.391   .     A
C792   H808    1.085   .     S
C792   C794    1.403   .     A
C792   C802    1.391   .     A
C793   C795    1.402   .     A
C794   C796    1.402   .     A
C795   C797    1.392   .     A
C795   H809    1.085   .     S
C796   H810    1.085   .     S
C796   C798    1.392   .     A
C797   C803    1.401   .     A
C797   C799    1.412   .     A
C798   C800    1.412   .     A
C798   C804    1.401   .     A
C799   C801    1.410   .     A
C799   C754    1.400   1_655 S
C800   C802    1.410   .     A
C803   H811    1.084   .     S
C803   C739    1.393   1_655 S
C804   H812    1.084   .     S
Cu805  Cu806   2.702   .     S
Cu805  O820    1.960   .     S
Cu805  O817    1.965   .     S
Cu805  N816    2.030   .     S
Cu805  O824    1.959   .     S
Cu805  O821    1.965   .     S
Cu806  N815    2.030   .     S
Cu806  O818    1.965   .     S
Cu806  O819    1.960   .     S
Cu806  O823    1.959   .     S
Cu806  O822    1.965   .     S
N816   N263    1.297   1_556 S
N816   Cl276   1.726   1_556 S
Cl825  C603    1.779   1_565 S
Cl827  N263    1.726   1_556 S
