data_str_m2_o1_o18_pcu_sym.142
_audit_creation_date              2020-01-03
_audit_creation_method            'Materials Studio'
_symmetry_space_group_name_H-M    'P1'
_symmetry_Int_Tables_number       1
_symmetry_cell_setting            triclinic
loop_
_symmetry_equiv_pos_as_xyz
  x,y,z
_cell_length_a                    28.4733
_cell_length_b                    32.4956
_cell_length_c                    31.4873
_cell_angle_alpha                 89.8155
_cell_angle_beta                  73.0910
_cell_angle_gamma                 89.9885
loop_
_atom_site_label
_atom_site_type_symbol
_atom_site_fract_x
_atom_site_fract_y
_atom_site_fract_z
_atom_site_U_iso_or_equiv
_atom_site_adp_type
_atom_site_occupancy
C1     C     0.33333   0.08733   0.25000   0.00000  Uiso   1.00
C2     C     0.00001   0.24601   0.24999   0.00000  Uiso   1.00
C3     C     0.18913   0.10491   0.03416   0.00000  Uiso   1.00
C4     C     0.13840   0.15560   0.45210   0.00000  Uiso   1.00
C5     C     0.23929   0.10490   0.01263   0.00000  Uiso   1.00
C6     C     0.08962   0.16038   0.47632   0.00000  Uiso   1.00
C7     C     0.29069   0.02132   0.24988   0.00000  Uiso   1.00
C8     C     0.04267   0.31207   0.25007   0.00000  Uiso   1.00
C9     C     0.29067   0.31208   0.24994   0.00000  Uiso   1.00
C10    C     0.04266   0.02131   0.25008   0.00000  Uiso   1.00
C11    C     0.33333   0.29062   0.25001   0.00000  Uiso   1.00
C12    C    -0.00000   0.04275   0.25000   0.00000  Uiso   1.00
C13    C     0.18532   0.13506   0.26900   0.00000  Uiso   1.00
C14    C     0.14817   0.19798   0.23036   0.00000  Uiso   1.00
C15    C     0.13560   0.13525   0.26938   0.00000  Uiso   1.00
C16    C     0.19775   0.19805   0.23053   0.00000  Uiso   1.00
C17    C     0.30555   0.16152   0.33524   0.00000  Uiso   1.00
C18    C     0.02846   0.16410   0.16398   0.00000  Uiso   1.00
C19    C     0.28896   0.14740   0.38175   0.00000  Uiso   1.00
C20    C     0.04632   0.15759   0.11519   0.00000  Uiso   1.00
C21    C     0.30668   0.12651   0.44939   0.00000  Uiso   1.00
C22    C     0.02605   0.16156   0.04579   0.00000  Uiso   1.00
C23    C     0.32246   0.14295   0.40657   0.00000  Uiso   1.00
C24    C     0.01174   0.16193   0.09165   0.00000  Uiso   1.00
C25    C     0.23978   0.13403   0.40053   0.00000  Uiso   1.00
C26    C     0.09668   0.14774   0.09166   0.00000  Uiso   1.00
C27    C     0.22216   0.13156   0.44712   0.00000  Uiso   1.00
C28    C     0.10929   0.14139   0.04441   0.00000  Uiso   1.00
C29    C     0.25637   0.12144   0.47012   0.00000  Uiso   1.00
C30    C     0.07466   0.15347   0.02210   0.00000  Uiso   1.00
C31    C     0.17220   0.13785   0.47154   0.00000  Uiso   1.00
C32    C     0.15667   0.12821   0.01748   0.00000  Uiso   1.00
Cu33   Cu    0.04689   0.16667   0.25000   0.00000  Uiso   1.00
Cu34   Cu    0.28645   0.16666   0.25000   0.00000  Uiso   1.00
H35    H     0.26446   0.09164   0.02892   0.00000  Uiso   1.00
H36    H     0.06420   0.17259   0.45969   0.00000  Uiso   1.00
H37    H     0.30700   0.16877   0.10866   0.00000  Uiso   1.00
H38    H     0.02772   0.14975   0.39202   0.00000  Uiso   1.00
H39    H     0.33328   0.11933   0.46684   0.00000  Uiso   1.00
H40    H     0.33244   0.16904   0.02872   0.00000  Uiso   1.00
H41    H     0.17641   0.08803   0.06445   0.00000  Uiso   1.00
H42    H     0.14919   0.16650   0.41830   0.00000  Uiso   1.00
H43    H     0.25739   0.03735   0.24970   0.00000  Uiso   1.00
H44    H     0.07602   0.29605   0.25010   0.00000  Uiso   1.00
H45    H     0.25731   0.29608   0.24988   0.00000  Uiso   1.00
H46    H     0.07602   0.03732   0.25012   0.00000  Uiso   1.00
H47    H     0.19911   0.10951   0.28379   0.00000  Uiso   1.00
H48    H     0.13466   0.22288   0.21430   0.00000  Uiso   1.00
H49    H     0.11190   0.11014   0.28508   0.00000  Uiso   1.00
H50    H     0.22154   0.22303   0.21462   0.00000  Uiso   1.00
N51    N     0.11736   0.16668   0.24999   0.00000  Uiso   1.00
N52    N     0.21597   0.16666   0.25001   0.00000  Uiso   1.00
O53    O     0.03958   0.10655   0.25000   0.00000  Uiso   1.00
O54    O     0.29375   0.22678   0.25000   0.00000  Uiso   1.00
O55    O     0.29372   0.10654   0.25001   0.00000  Uiso   1.00
O56    O     0.03961   0.22679   0.25000   0.00000  Uiso   1.00
O57    O     0.01852   0.16668   0.31492   0.00000  Uiso   1.00
O58    O     0.31481   0.16666   0.18509   0.00000  Uiso   1.00
O59    O     0.27267   0.16667   0.31492   0.00000  Uiso   1.00
O60    O     0.06067   0.16667   0.18508   0.00000  Uiso   1.00
C61    C     0.13799   0.15347   0.11387   0.00000  Uiso   1.00
C62    C     0.14473   0.11671   0.14337   0.00000  Uiso   1.00
C63    C     0.19763   0.11354   0.14545   0.00000  Uiso   1.00
H64    H     0.22326   0.10654   0.11238   0.00000  Uiso   1.00
H65    H     0.20906   0.14291   0.15735   0.00000  Uiso   1.00
H66    H     0.20039   0.08859   0.16880   0.00000  Uiso   1.00
H67    H     0.12162   0.11973   0.17796   0.00000  Uiso   1.00
H68    H     0.13320   0.08716   0.13197   0.00000  Uiso   1.00
H69    H     0.17317   0.16087   0.08874   0.00000  Uiso   1.00
H70    H     0.13292   0.18258   0.13293   0.00000  Uiso   1.00
C71    C     0.21395   0.10995   0.37183   0.00000  Uiso   1.00
C72    C     0.18942   0.06966   0.39316   0.00000  Uiso   1.00
C73    C     0.17084   0.04456   0.36040   0.00000  Uiso   1.00
H74    H     0.14360   0.06262   0.34902   0.00000  Uiso   1.00
H75    H     0.20182   0.03580   0.33125   0.00000  Uiso   1.00
H76    H     0.15287   0.01603   0.37685   0.00000  Uiso   1.00
H77    H     0.21636   0.05085   0.40420   0.00000  Uiso   1.00
H78    H     0.15759   0.07609   0.42238   0.00000  Uiso   1.00
H79    H     0.18717   0.12963   0.36186   0.00000  Uiso   1.00
H80    H     0.24175   0.10011   0.34086   0.00000  Uiso   1.00
C81    C     0.66666   0.08733   0.25000   0.00000  Uiso   1.00
C82    C     0.33334   0.24601   0.24999   0.00000  Uiso   1.00
C83    C     0.52246   0.10491   0.03416   0.00000  Uiso   1.00
C84    C     0.47173   0.15560   0.45210   0.00000  Uiso   1.00
C85    C     0.57263   0.10490   0.01263   0.00000  Uiso   1.00
C86    C     0.42295   0.16038   0.47632   0.00000  Uiso   1.00
C87    C     0.62402   0.02132   0.24988   0.00000  Uiso   1.00
C88    C     0.37600   0.31207   0.25007   0.00000  Uiso   1.00
C89    C     0.62400   0.31208   0.24994   0.00000  Uiso   1.00
C90    C     0.37600   0.02131   0.25008   0.00000  Uiso   1.00
C91    C     0.66666   0.29062   0.25001   0.00000  Uiso   1.00
C92    C     0.33333   0.04275   0.25000   0.00000  Uiso   1.00
C93    C     0.51865   0.13506   0.26900   0.00000  Uiso   1.00
C94    C     0.48150   0.19798   0.23036   0.00000  Uiso   1.00
C95    C     0.46893   0.13525   0.26938   0.00000  Uiso   1.00
C96    C     0.53109   0.19805   0.23053   0.00000  Uiso   1.00
C97    C     0.63889   0.16152   0.33524   0.00000  Uiso   1.00
C98    C     0.36179   0.16410   0.16398   0.00000  Uiso   1.00
C99    C     0.62229   0.14740   0.38175   0.00000  Uiso   1.00
C100   C     0.37965   0.15759   0.11519   0.00000  Uiso   1.00
C101   C     0.64001   0.12651   0.44939   0.00000  Uiso   1.00
C102   C     0.35938   0.16156   0.04579   0.00000  Uiso   1.00
C103   C     0.65579   0.14295   0.40657   0.00000  Uiso   1.00
C104   C     0.34507   0.16193   0.09165   0.00000  Uiso   1.00
C105   C     0.57312   0.13403   0.40053   0.00000  Uiso   1.00
C106   C     0.43002   0.14774   0.09166   0.00000  Uiso   1.00
C107   C     0.55549   0.13156   0.44712   0.00000  Uiso   1.00
C108   C     0.44262   0.14139   0.04441   0.00000  Uiso   1.00
C109   C     0.58971   0.12144   0.47012   0.00000  Uiso   1.00
C110   C     0.40799   0.15347   0.02210   0.00000  Uiso   1.00
C111   C     0.50553   0.13785   0.47154   0.00000  Uiso   1.00
C112   C     0.49000   0.12821   0.01748   0.00000  Uiso   1.00
Cu113  Cu    0.38022   0.16667   0.25000   0.00000  Uiso   1.00
Cu114  Cu    0.61978   0.16666   0.25000   0.00000  Uiso   1.00
H115   H     0.59779   0.09164   0.02892   0.00000  Uiso   1.00
H116   H     0.39753   0.17259   0.45969   0.00000  Uiso   1.00
H117   H     0.64034   0.16877   0.10866   0.00000  Uiso   1.00
H118   H     0.36105   0.14975   0.39202   0.00000  Uiso   1.00
H119   H     0.66662   0.11933   0.46684   0.00000  Uiso   1.00
H120   H     0.66577   0.16904   0.02872   0.00000  Uiso   1.00
H121   H     0.50974   0.08803   0.06445   0.00000  Uiso   1.00
H122   H     0.48252   0.16650   0.41830   0.00000  Uiso   1.00
H123   H     0.59072   0.03735   0.24970   0.00000  Uiso   1.00
H124   H     0.40936   0.29605   0.25010   0.00000  Uiso   1.00
H125   H     0.59065   0.29608   0.24988   0.00000  Uiso   1.00
H126   H     0.40935   0.03732   0.25012   0.00000  Uiso   1.00
H127   H     0.53245   0.10951   0.28379   0.00000  Uiso   1.00
H128   H     0.46800   0.22288   0.21430   0.00000  Uiso   1.00
H129   H     0.44523   0.11014   0.28508   0.00000  Uiso   1.00
H130   H     0.55487   0.22303   0.21462   0.00000  Uiso   1.00
N131   N     0.45069   0.16668   0.24999   0.00000  Uiso   1.00
N132   N     0.54931   0.16666   0.25001   0.00000  Uiso   1.00
O133   O     0.37291   0.10655   0.25000   0.00000  Uiso   1.00
O134   O     0.62709   0.22678   0.25000   0.00000  Uiso   1.00
O135   O     0.62706   0.10654   0.25001   0.00000  Uiso   1.00
O136   O     0.37294   0.22679   0.25000   0.00000  Uiso   1.00
O137   O     0.35186   0.16668   0.31492   0.00000  Uiso   1.00
O138   O     0.64814   0.16666   0.18509   0.00000  Uiso   1.00
O139   O     0.60600   0.16667   0.31492   0.00000  Uiso   1.00
O140   O     0.39400   0.16667   0.18508   0.00000  Uiso   1.00
C141   C     0.47133   0.15347   0.11387   0.00000  Uiso   1.00
C142   C     0.47807   0.11671   0.14337   0.00000  Uiso   1.00
C143   C     0.53097   0.11354   0.14545   0.00000  Uiso   1.00
H144   H     0.55660   0.10654   0.11238   0.00000  Uiso   1.00
H145   H     0.54240   0.14291   0.15735   0.00000  Uiso   1.00
H146   H     0.53372   0.08859   0.16880   0.00000  Uiso   1.00
H147   H     0.45496   0.11973   0.17796   0.00000  Uiso   1.00
H148   H     0.46654   0.08716   0.13197   0.00000  Uiso   1.00
H149   H     0.50650   0.16087   0.08874   0.00000  Uiso   1.00
H150   H     0.46625   0.18258   0.13293   0.00000  Uiso   1.00
C151   C     0.54729   0.10995   0.37183   0.00000  Uiso   1.00
C152   C     0.52276   0.06966   0.39316   0.00000  Uiso   1.00
C153   C     0.50417   0.04456   0.36040   0.00000  Uiso   1.00
H154   H     0.47694   0.06262   0.34902   0.00000  Uiso   1.00
H155   H     0.53516   0.03580   0.33125   0.00000  Uiso   1.00
H156   H     0.48620   0.01603   0.37685   0.00000  Uiso   1.00
H157   H     0.54969   0.05085   0.40420   0.00000  Uiso   1.00
H158   H     0.49093   0.07609   0.42238   0.00000  Uiso   1.00
H159   H     0.52051   0.12963   0.36186   0.00000  Uiso   1.00
H160   H     0.57509   0.10011   0.34086   0.00000  Uiso   1.00
C161   C     0.99999   0.08733   0.25000   0.00000  Uiso   1.00
C162   C     0.66668   0.24601   0.24999   0.00000  Uiso   1.00
C163   C     0.85580   0.10491   0.03416   0.00000  Uiso   1.00
C164   C     0.80506   0.15560   0.45210   0.00000  Uiso   1.00
C165   C     0.90596   0.10490   0.01263   0.00000  Uiso   1.00
C166   C     0.75628   0.16038   0.47632   0.00000  Uiso   1.00
C167   C     0.95736   0.02132   0.24988   0.00000  Uiso   1.00
C168   C     0.70933   0.31207   0.25007   0.00000  Uiso   1.00
C169   C     0.95733   0.31208   0.24994   0.00000  Uiso   1.00
C170   C     0.70933   0.02131   0.25008   0.00000  Uiso   1.00
C171   C     1.00000   0.29062   0.25001   0.00000  Uiso   1.00
C172   C     0.66667   0.04275   0.25000   0.00000  Uiso   1.00
C173   C     0.85199   0.13506   0.26900   0.00000  Uiso   1.00
C174   C     0.81483   0.19798   0.23036   0.00000  Uiso   1.00
C175   C     0.80226   0.13525   0.26938   0.00000  Uiso   1.00
C176   C     0.86442   0.19805   0.23053   0.00000  Uiso   1.00
C177   C     0.97222   0.16152   0.33524   0.00000  Uiso   1.00
C178   C     0.69513   0.16410   0.16398   0.00000  Uiso   1.00
C179   C     0.95562   0.14740   0.38175   0.00000  Uiso   1.00
C180   C     0.71299   0.15759   0.11519   0.00000  Uiso   1.00
C181   C     0.97334   0.12651   0.44939   0.00000  Uiso   1.00
C182   C     0.69271   0.16156   0.04579   0.00000  Uiso   1.00
C183   C     0.98912   0.14295   0.40657   0.00000  Uiso   1.00
C184   C     0.67841   0.16193   0.09165   0.00000  Uiso   1.00
C185   C     0.90645   0.13403   0.40053   0.00000  Uiso   1.00
C186   C     0.76335   0.14774   0.09166   0.00000  Uiso   1.00
C187   C     0.88882   0.13156   0.44712   0.00000  Uiso   1.00
C188   C     0.77595   0.14139   0.04441   0.00000  Uiso   1.00
C189   C     0.92304   0.12144   0.47012   0.00000  Uiso   1.00
C190   C     0.74133   0.15347   0.02210   0.00000  Uiso   1.00
C191   C     0.83887   0.13785   0.47154   0.00000  Uiso   1.00
C192   C     0.82333   0.12821   0.01748   0.00000  Uiso   1.00
Cu193  Cu    0.71355   0.16667   0.25000   0.00000  Uiso   1.00
Cu194  Cu    0.95311   0.16666   0.25000   0.00000  Uiso   1.00
H195   H     0.93113   0.09164   0.02892   0.00000  Uiso   1.00
H196   H     0.73087   0.17259   0.45969   0.00000  Uiso   1.00
H197   H     0.97367   0.16877   0.10866   0.00000  Uiso   1.00
H198   H     0.69439   0.14975   0.39202   0.00000  Uiso   1.00
H199   H     0.99995   0.11933   0.46684   0.00000  Uiso   1.00
H200   H     0.99911   0.16904   0.02872   0.00000  Uiso   1.00
H201   H     0.84308   0.08803   0.06445   0.00000  Uiso   1.00
H202   H     0.81586   0.16650   0.41830   0.00000  Uiso   1.00
H203   H     0.92405   0.03735   0.24970   0.00000  Uiso   1.00
H204   H     0.74269   0.29605   0.25010   0.00000  Uiso   1.00
H205   H     0.92398   0.29608   0.24988   0.00000  Uiso   1.00
H206   H     0.74268   0.03732   0.25012   0.00000  Uiso   1.00
H207   H     0.86578   0.10951   0.28379   0.00000  Uiso   1.00
H208   H     0.80133   0.22288   0.21430   0.00000  Uiso   1.00
H209   H     0.77856   0.11014   0.28508   0.00000  Uiso   1.00
H210   H     0.88821   0.22303   0.21462   0.00000  Uiso   1.00
N211   N     0.78403   0.16668   0.24999   0.00000  Uiso   1.00
N212   N     0.88264   0.16666   0.25001   0.00000  Uiso   1.00
O213   O     0.70625   0.10655   0.25000   0.00000  Uiso   1.00
O214   O     0.96042   0.22678   0.25000   0.00000  Uiso   1.00
O215   O     0.96039   0.10654   0.25001   0.00000  Uiso   1.00
O216   O     0.70628   0.22679   0.25000   0.00000  Uiso   1.00
O217   O     0.68519   0.16668   0.31492   0.00000  Uiso   1.00
O218   O     0.98148   0.16666   0.18509   0.00000  Uiso   1.00
O219   O     0.93933   0.16667   0.31492   0.00000  Uiso   1.00
O220   O     0.72733   0.16667   0.18508   0.00000  Uiso   1.00
C221   C     0.80466   0.15347   0.11387   0.00000  Uiso   1.00
C222   C     0.81140   0.11671   0.14337   0.00000  Uiso   1.00
C223   C     0.86430   0.11354   0.14545   0.00000  Uiso   1.00
H224   H     0.88993   0.10654   0.11238   0.00000  Uiso   1.00
H225   H     0.87573   0.14291   0.15735   0.00000  Uiso   1.00
H226   H     0.86705   0.08859   0.16880   0.00000  Uiso   1.00
H227   H     0.78829   0.11973   0.17796   0.00000  Uiso   1.00
H228   H     0.79987   0.08716   0.13197   0.00000  Uiso   1.00
H229   H     0.83983   0.16087   0.08874   0.00000  Uiso   1.00
H230   H     0.79958   0.18258   0.13293   0.00000  Uiso   1.00
C231   C     0.88062   0.10995   0.37183   0.00000  Uiso   1.00
C232   C     0.85609   0.06966   0.39316   0.00000  Uiso   1.00
C233   C     0.83751   0.04456   0.36040   0.00000  Uiso   1.00
H234   H     0.81027   0.06262   0.34902   0.00000  Uiso   1.00
H235   H     0.86849   0.03580   0.33125   0.00000  Uiso   1.00
H236   H     0.81953   0.01603   0.37685   0.00000  Uiso   1.00
H237   H     0.88303   0.05085   0.40420   0.00000  Uiso   1.00
H238   H     0.82426   0.07609   0.42238   0.00000  Uiso   1.00
H239   H     0.85384   0.12963   0.36186   0.00000  Uiso   1.00
H240   H     0.90842   0.10011   0.34086   0.00000  Uiso   1.00
C241   C     0.33333   0.42067   0.25000   0.00000  Uiso   1.00
C242   C     0.00001   0.57934   0.24999   0.00000  Uiso   1.00
C243   C     0.18913   0.43825   0.03416   0.00000  Uiso   1.00
C244   C     0.13840   0.48894   0.45210   0.00000  Uiso   1.00
C245   C     0.23929   0.43823   0.01263   0.00000  Uiso   1.00
C246   C     0.08962   0.49371   0.47632   0.00000  Uiso   1.00
C247   C     0.29069   0.35465   0.24988   0.00000  Uiso   1.00
C248   C     0.04267   0.64540   0.25007   0.00000  Uiso   1.00
C249   C     0.29067   0.64542   0.24994   0.00000  Uiso   1.00
C250   C     0.04266   0.35464   0.25008   0.00000  Uiso   1.00
C251   C     0.33333   0.62396   0.25001   0.00000  Uiso   1.00
C252   C    -0.00000   0.37608   0.25000   0.00000  Uiso   1.00
C253   C     0.18532   0.46839   0.26900   0.00000  Uiso   1.00
C254   C     0.14817   0.53131   0.23036   0.00000  Uiso   1.00
C255   C     0.13560   0.46858   0.26938   0.00000  Uiso   1.00
C256   C     0.19775   0.53139   0.23053   0.00000  Uiso   1.00
C257   C     0.30555   0.49486   0.33524   0.00000  Uiso   1.00
C258   C     0.02846   0.49743   0.16398   0.00000  Uiso   1.00
C259   C     0.28896   0.48074   0.38175   0.00000  Uiso   1.00
C260   C     0.04632   0.49093   0.11519   0.00000  Uiso   1.00
C261   C     0.30668   0.45984   0.44939   0.00000  Uiso   1.00
C262   C     0.02605   0.49489   0.04579   0.00000  Uiso   1.00
C263   C     0.32246   0.47628   0.40657   0.00000  Uiso   1.00
C264   C     0.01174   0.49527   0.09165   0.00000  Uiso   1.00
C265   C     0.23978   0.46736   0.40053   0.00000  Uiso   1.00
C266   C     0.09668   0.48107   0.09166   0.00000  Uiso   1.00
C267   C     0.22216   0.46489   0.44712   0.00000  Uiso   1.00
C268   C     0.10929   0.47473   0.04441   0.00000  Uiso   1.00
C269   C     0.25637   0.45478   0.47012   0.00000  Uiso   1.00
C270   C     0.07466   0.48680   0.02210   0.00000  Uiso   1.00
C271   C     0.17220   0.47119   0.47154   0.00000  Uiso   1.00
C272   C     0.15667   0.46154   0.01748   0.00000  Uiso   1.00
Cu273  Cu    0.04689   0.50001   0.25000   0.00000  Uiso   1.00
Cu274  Cu    0.28645   0.49999   0.25000   0.00000  Uiso   1.00
H275   H     0.26446   0.42497   0.02892   0.00000  Uiso   1.00
H276   H     0.06420   0.50592   0.45969   0.00000  Uiso   1.00
H277   H     0.30700   0.50210   0.10866   0.00000  Uiso   1.00
H278   H     0.02772   0.48308   0.39202   0.00000  Uiso   1.00
H279   H     0.33328   0.45267   0.46684   0.00000  Uiso   1.00
H280   H     0.33244   0.50238   0.02872   0.00000  Uiso   1.00
H281   H     0.17641   0.42136   0.06445   0.00000  Uiso   1.00
H282   H     0.14919   0.49984   0.41830   0.00000  Uiso   1.00
H283   H     0.25739   0.37068   0.24970   0.00000  Uiso   1.00
H284   H     0.07602   0.62938   0.25010   0.00000  Uiso   1.00
H285   H     0.25731   0.62941   0.24988   0.00000  Uiso   1.00
H286   H     0.07602   0.37066   0.25012   0.00000  Uiso   1.00
H287   H     0.19911   0.44284   0.28379   0.00000  Uiso   1.00
H288   H     0.13466   0.55622   0.21430   0.00000  Uiso   1.00
H289   H     0.11190   0.44348   0.28508   0.00000  Uiso   1.00
H290   H     0.22154   0.55637   0.21462   0.00000  Uiso   1.00
N291   N     0.11736   0.50001   0.24999   0.00000  Uiso   1.00
N292   N     0.21597   0.49999   0.25001   0.00000  Uiso   1.00
O293   O     0.03958   0.43989   0.25000   0.00000  Uiso   1.00
O294   O     0.29375   0.56011   0.25000   0.00000  Uiso   1.00
O295   O     0.29372   0.43988   0.25001   0.00000  Uiso   1.00
O296   O     0.03961   0.56012   0.25000   0.00000  Uiso   1.00
O297   O     0.01852   0.50001   0.31492   0.00000  Uiso   1.00
O298   O     0.31481   0.49999   0.18509   0.00000  Uiso   1.00
O299   O     0.27267   0.50000   0.31492   0.00000  Uiso   1.00
O300   O     0.06067   0.50000   0.18508   0.00000  Uiso   1.00
C301   C     0.13799   0.48680   0.11387   0.00000  Uiso   1.00
C302   C     0.14473   0.45005   0.14337   0.00000  Uiso   1.00
C303   C     0.19763   0.44687   0.14545   0.00000  Uiso   1.00
H304   H     0.22326   0.43987   0.11238   0.00000  Uiso   1.00
H305   H     0.20906   0.47624   0.15735   0.00000  Uiso   1.00
H306   H     0.20039   0.42193   0.16880   0.00000  Uiso   1.00
H307   H     0.12162   0.45307   0.17796   0.00000  Uiso   1.00
H308   H     0.13320   0.42049   0.13197   0.00000  Uiso   1.00
H309   H     0.17317   0.49421   0.08874   0.00000  Uiso   1.00
H310   H     0.13292   0.51591   0.13293   0.00000  Uiso   1.00
C311   C     0.21395   0.44329   0.37183   0.00000  Uiso   1.00
C312   C     0.18942   0.40299   0.39316   0.00000  Uiso   1.00
C313   C     0.17084   0.37790   0.36040   0.00000  Uiso   1.00
H314   H     0.14360   0.39596   0.34902   0.00000  Uiso   1.00
H315   H     0.20182   0.36913   0.33125   0.00000  Uiso   1.00
H316   H     0.15287   0.34936   0.37685   0.00000  Uiso   1.00
H317   H     0.21636   0.38418   0.40420   0.00000  Uiso   1.00
H318   H     0.15759   0.40942   0.42238   0.00000  Uiso   1.00
H319   H     0.18717   0.46296   0.36186   0.00000  Uiso   1.00
H320   H     0.24175   0.43344   0.34086   0.00000  Uiso   1.00
C321   C     0.66666   0.42067   0.25000   0.00000  Uiso   1.00
C322   C     0.33334   0.57934   0.24999   0.00000  Uiso   1.00
C323   C     0.52246   0.43825   0.03416   0.00000  Uiso   1.00
C324   C     0.47173   0.48894   0.45210   0.00000  Uiso   1.00
C325   C     0.57263   0.43823   0.01263   0.00000  Uiso   1.00
C326   C     0.42295   0.49371   0.47632   0.00000  Uiso   1.00
C327   C     0.62402   0.35465   0.24988   0.00000  Uiso   1.00
C328   C     0.37600   0.64540   0.25007   0.00000  Uiso   1.00
C329   C     0.62400   0.64542   0.24994   0.00000  Uiso   1.00
C330   C     0.37600   0.35464   0.25008   0.00000  Uiso   1.00
C331   C     0.66666   0.62396   0.25001   0.00000  Uiso   1.00
C332   C     0.33333   0.37608   0.25000   0.00000  Uiso   1.00
C333   C     0.51865   0.46839   0.26900   0.00000  Uiso   1.00
C334   C     0.48150   0.53131   0.23036   0.00000  Uiso   1.00
C335   C     0.46893   0.46858   0.26938   0.00000  Uiso   1.00
C336   C     0.53109   0.53139   0.23053   0.00000  Uiso   1.00
C337   C     0.63889   0.49486   0.33524   0.00000  Uiso   1.00
C338   C     0.36179   0.49743   0.16398   0.00000  Uiso   1.00
C339   C     0.62229   0.48074   0.38175   0.00000  Uiso   1.00
C340   C     0.37965   0.49093   0.11519   0.00000  Uiso   1.00
C341   C     0.64001   0.45984   0.44939   0.00000  Uiso   1.00
C342   C     0.35938   0.49489   0.04579   0.00000  Uiso   1.00
C343   C     0.65579   0.47628   0.40657   0.00000  Uiso   1.00
C344   C     0.34507   0.49527   0.09165   0.00000  Uiso   1.00
C345   C     0.57312   0.46736   0.40053   0.00000  Uiso   1.00
C346   C     0.43002   0.48107   0.09166   0.00000  Uiso   1.00
C347   C     0.55549   0.46489   0.44712   0.00000  Uiso   1.00
C348   C     0.44262   0.47473   0.04441   0.00000  Uiso   1.00
C349   C     0.58971   0.45478   0.47012   0.00000  Uiso   1.00
C350   C     0.40799   0.48680   0.02210   0.00000  Uiso   1.00
C351   C     0.50553   0.47119   0.47154   0.00000  Uiso   1.00
C352   C     0.49000   0.46154   0.01748   0.00000  Uiso   1.00
Cu353  Cu    0.38022   0.50001   0.25000   0.00000  Uiso   1.00
Cu354  Cu    0.61978   0.49999   0.25000   0.00000  Uiso   1.00
H355   H     0.59779   0.42497   0.02892   0.00000  Uiso   1.00
H356   H     0.39753   0.50592   0.45969   0.00000  Uiso   1.00
H357   H     0.64034   0.50210   0.10866   0.00000  Uiso   1.00
H358   H     0.36105   0.48308   0.39202   0.00000  Uiso   1.00
H359   H     0.66662   0.45267   0.46684   0.00000  Uiso   1.00
H360   H     0.66577   0.50238   0.02872   0.00000  Uiso   1.00
H361   H     0.50974   0.42136   0.06445   0.00000  Uiso   1.00
H362   H     0.48252   0.49984   0.41830   0.00000  Uiso   1.00
H363   H     0.59072   0.37068   0.24970   0.00000  Uiso   1.00
H364   H     0.40936   0.62938   0.25010   0.00000  Uiso   1.00
H365   H     0.59065   0.62941   0.24988   0.00000  Uiso   1.00
H366   H     0.40935   0.37066   0.25012   0.00000  Uiso   1.00
H367   H     0.53245   0.44284   0.28379   0.00000  Uiso   1.00
H368   H     0.46800   0.55622   0.21430   0.00000  Uiso   1.00
H369   H     0.44523   0.44348   0.28508   0.00000  Uiso   1.00
H370   H     0.55487   0.55637   0.21462   0.00000  Uiso   1.00
N371   N     0.45069   0.50001   0.24999   0.00000  Uiso   1.00
N372   N     0.54931   0.49999   0.25001   0.00000  Uiso   1.00
O373   O     0.37291   0.43989   0.25000   0.00000  Uiso   1.00
O374   O     0.62709   0.56011   0.25000   0.00000  Uiso   1.00
O375   O     0.62706   0.43988   0.25001   0.00000  Uiso   1.00
O376   O     0.37294   0.56012   0.25000   0.00000  Uiso   1.00
O377   O     0.35186   0.50001   0.31492   0.00000  Uiso   1.00
O378   O     0.64814   0.49999   0.18509   0.00000  Uiso   1.00
O379   O     0.60600   0.50000   0.31492   0.00000  Uiso   1.00
O380   O     0.39400   0.50000   0.18508   0.00000  Uiso   1.00
C381   C     0.47133   0.48680   0.11387   0.00000  Uiso   1.00
C382   C     0.47807   0.45005   0.14337   0.00000  Uiso   1.00
C383   C     0.53097   0.44687   0.14545   0.00000  Uiso   1.00
H384   H     0.55660   0.43987   0.11238   0.00000  Uiso   1.00
H385   H     0.54240   0.47624   0.15735   0.00000  Uiso   1.00
H386   H     0.53372   0.42193   0.16880   0.00000  Uiso   1.00
H387   H     0.45496   0.45307   0.17796   0.00000  Uiso   1.00
H388   H     0.46654   0.42049   0.13197   0.00000  Uiso   1.00
H389   H     0.50650   0.49421   0.08874   0.00000  Uiso   1.00
H390   H     0.46625   0.51591   0.13293   0.00000  Uiso   1.00
C391   C     0.54729   0.44329   0.37183   0.00000  Uiso   1.00
C392   C     0.52276   0.40299   0.39316   0.00000  Uiso   1.00
C393   C     0.50417   0.37790   0.36040   0.00000  Uiso   1.00
H394   H     0.47694   0.39596   0.34902   0.00000  Uiso   1.00
H395   H     0.53516   0.36913   0.33125   0.00000  Uiso   1.00
H396   H     0.48620   0.34936   0.37685   0.00000  Uiso   1.00
H397   H     0.54969   0.38418   0.40420   0.00000  Uiso   1.00
H398   H     0.49093   0.40942   0.42238   0.00000  Uiso   1.00
H399   H     0.52051   0.46296   0.36186   0.00000  Uiso   1.00
H400   H     0.57509   0.43344   0.34086   0.00000  Uiso   1.00
C401   C     0.99999   0.42067   0.25000   0.00000  Uiso   1.00
C402   C     0.66668   0.57934   0.24999   0.00000  Uiso   1.00
C403   C     0.85580   0.43825   0.03416   0.00000  Uiso   1.00
C404   C     0.80506   0.48894   0.45210   0.00000  Uiso   1.00
C405   C     0.90596   0.43823   0.01263   0.00000  Uiso   1.00
C406   C     0.75628   0.49371   0.47632   0.00000  Uiso   1.00
C407   C     0.95736   0.35465   0.24988   0.00000  Uiso   1.00
C408   C     0.70933   0.64540   0.25007   0.00000  Uiso   1.00
C409   C     0.95733   0.64542   0.24994   0.00000  Uiso   1.00
C410   C     0.70933   0.35464   0.25008   0.00000  Uiso   1.00
C411   C     1.00000   0.62396   0.25001   0.00000  Uiso   1.00
C412   C     0.66667   0.37608   0.25000   0.00000  Uiso   1.00
C413   C     0.85199   0.46839   0.26900   0.00000  Uiso   1.00
C414   C     0.81483   0.53131   0.23036   0.00000  Uiso   1.00
C415   C     0.80226   0.46858   0.26938   0.00000  Uiso   1.00
C416   C     0.86442   0.53139   0.23053   0.00000  Uiso   1.00
C417   C     0.97222   0.49486   0.33524   0.00000  Uiso   1.00
C418   C     0.69513   0.49743   0.16398   0.00000  Uiso   1.00
C419   C     0.95562   0.48074   0.38175   0.00000  Uiso   1.00
C420   C     0.71299   0.49093   0.11519   0.00000  Uiso   1.00
C421   C     0.97334   0.45984   0.44939   0.00000  Uiso   1.00
C422   C     0.69271   0.49489   0.04579   0.00000  Uiso   1.00
C423   C     0.98912   0.47628   0.40657   0.00000  Uiso   1.00
C424   C     0.67841   0.49527   0.09165   0.00000  Uiso   1.00
C425   C     0.90645   0.46736   0.40053   0.00000  Uiso   1.00
C426   C     0.76335   0.48107   0.09166   0.00000  Uiso   1.00
C427   C     0.88882   0.46489   0.44712   0.00000  Uiso   1.00
C428   C     0.77595   0.47473   0.04441   0.00000  Uiso   1.00
C429   C     0.92304   0.45478   0.47012   0.00000  Uiso   1.00
C430   C     0.74133   0.48680   0.02210   0.00000  Uiso   1.00
C431   C     0.83887   0.47119   0.47154   0.00000  Uiso   1.00
C432   C     0.82333   0.46154   0.01748   0.00000  Uiso   1.00
Cu433  Cu    0.71355   0.50001   0.25000   0.00000  Uiso   1.00
Cu434  Cu    0.95311   0.49999   0.25000   0.00000  Uiso   1.00
H435   H     0.93113   0.42497   0.02892   0.00000  Uiso   1.00
H436   H     0.73087   0.50592   0.45969   0.00000  Uiso   1.00
H437   H     0.97367   0.50210   0.10866   0.00000  Uiso   1.00
H438   H     0.69439   0.48308   0.39202   0.00000  Uiso   1.00
H439   H     0.99995   0.45267   0.46684   0.00000  Uiso   1.00
H440   H     0.99911   0.50238   0.02872   0.00000  Uiso   1.00
H441   H     0.84308   0.42136   0.06445   0.00000  Uiso   1.00
H442   H     0.81586   0.49984   0.41830   0.00000  Uiso   1.00
H443   H     0.92405   0.37068   0.24970   0.00000  Uiso   1.00
H444   H     0.74269   0.62938   0.25010   0.00000  Uiso   1.00
H445   H     0.92398   0.62941   0.24988   0.00000  Uiso   1.00
H446   H     0.74268   0.37066   0.25012   0.00000  Uiso   1.00
H447   H     0.86578   0.44284   0.28379   0.00000  Uiso   1.00
H448   H     0.80133   0.55622   0.21430   0.00000  Uiso   1.00
H449   H     0.77856   0.44348   0.28508   0.00000  Uiso   1.00
H450   H     0.88821   0.55637   0.21462   0.00000  Uiso   1.00
N451   N     0.78403   0.50001   0.24999   0.00000  Uiso   1.00
N452   N     0.88264   0.49999   0.25001   0.00000  Uiso   1.00
O453   O     0.70625   0.43989   0.25000   0.00000  Uiso   1.00
O454   O     0.96042   0.56011   0.25000   0.00000  Uiso   1.00
O455   O     0.96039   0.43988   0.25001   0.00000  Uiso   1.00
O456   O     0.70628   0.56012   0.25000   0.00000  Uiso   1.00
O457   O     0.68519   0.50001   0.31492   0.00000  Uiso   1.00
O458   O     0.98148   0.49999   0.18509   0.00000  Uiso   1.00
O459   O     0.93933   0.50000   0.31492   0.00000  Uiso   1.00
O460   O     0.72733   0.50000   0.18508   0.00000  Uiso   1.00
C461   C     0.80466   0.48680   0.11387   0.00000  Uiso   1.00
C462   C     0.81140   0.45005   0.14337   0.00000  Uiso   1.00
C463   C     0.86430   0.44687   0.14545   0.00000  Uiso   1.00
H464   H     0.88993   0.43987   0.11238   0.00000  Uiso   1.00
H465   H     0.87573   0.47624   0.15735   0.00000  Uiso   1.00
H466   H     0.86705   0.42193   0.16880   0.00000  Uiso   1.00
H467   H     0.78829   0.45307   0.17796   0.00000  Uiso   1.00
H468   H     0.79987   0.42049   0.13197   0.00000  Uiso   1.00
H469   H     0.83983   0.49421   0.08874   0.00000  Uiso   1.00
H470   H     0.79958   0.51591   0.13293   0.00000  Uiso   1.00
C471   C     0.88062   0.44329   0.37183   0.00000  Uiso   1.00
C472   C     0.85609   0.40299   0.39316   0.00000  Uiso   1.00
C473   C     0.83751   0.37790   0.36040   0.00000  Uiso   1.00
H474   H     0.81027   0.39596   0.34902   0.00000  Uiso   1.00
H475   H     0.86849   0.36913   0.33125   0.00000  Uiso   1.00
H476   H     0.81953   0.34936   0.37685   0.00000  Uiso   1.00
H477   H     0.88303   0.38418   0.40420   0.00000  Uiso   1.00
H478   H     0.82426   0.40942   0.42238   0.00000  Uiso   1.00
H479   H     0.85384   0.46296   0.36186   0.00000  Uiso   1.00
H480   H     0.90842   0.43344   0.34086   0.00000  Uiso   1.00
C481   C     0.33333   0.75400   0.25000   0.00000  Uiso   1.00
C482   C     0.00001   0.91267   0.24999   0.00000  Uiso   1.00
C483   C     0.18913   0.77158   0.03416   0.00000  Uiso   1.00
C484   C     0.13840   0.82227   0.45210   0.00000  Uiso   1.00
C485   C     0.23929   0.77157   0.01263   0.00000  Uiso   1.00
C486   C     0.08962   0.82705   0.47632   0.00000  Uiso   1.00
C487   C     0.29069   0.68798   0.24988   0.00000  Uiso   1.00
C488   C     0.04267   0.97874   0.25007   0.00000  Uiso   1.00
C489   C     0.29067   0.97875   0.24994   0.00000  Uiso   1.00
C490   C     0.04266   0.68797   0.25008   0.00000  Uiso   1.00
C491   C     0.33333   0.95729   0.25001   0.00000  Uiso   1.00
C492   C    -0.00000   0.70942   0.25000   0.00000  Uiso   1.00
C493   C     0.18532   0.80172   0.26900   0.00000  Uiso   1.00
C494   C     0.14817   0.86465   0.23036   0.00000  Uiso   1.00
C495   C     0.13560   0.80192   0.26938   0.00000  Uiso   1.00
C496   C     0.19775   0.86472   0.23053   0.00000  Uiso   1.00
C497   C     0.30555   0.82819   0.33524   0.00000  Uiso   1.00
C498   C     0.02846   0.83077   0.16398   0.00000  Uiso   1.00
C499   C     0.28896   0.81407   0.38175   0.00000  Uiso   1.00
C500   C     0.04632   0.82426   0.11519   0.00000  Uiso   1.00
C501   C     0.30668   0.79318   0.44939   0.00000  Uiso   1.00
C502   C     0.02605   0.82823   0.04579   0.00000  Uiso   1.00
C503   C     0.32246   0.80962   0.40657   0.00000  Uiso   1.00
C504   C     0.01174   0.82860   0.09165   0.00000  Uiso   1.00
C505   C     0.23978   0.80069   0.40053   0.00000  Uiso   1.00
C506   C     0.09668   0.81441   0.09166   0.00000  Uiso   1.00
C507   C     0.22216   0.79823   0.44712   0.00000  Uiso   1.00
C508   C     0.10929   0.80806   0.04441   0.00000  Uiso   1.00
C509   C     0.25637   0.78811   0.47012   0.00000  Uiso   1.00
C510   C     0.07466   0.82014   0.02210   0.00000  Uiso   1.00
C511   C     0.17220   0.80452   0.47154   0.00000  Uiso   1.00
C512   C     0.15667   0.79487   0.01748   0.00000  Uiso   1.00
Cu513  Cu    0.04689   0.83334   0.25000   0.00000  Uiso   1.00
Cu514  Cu    0.28645   0.83333   0.25000   0.00000  Uiso   1.00
H515   H     0.26446   0.75831   0.02892   0.00000  Uiso   1.00
H516   H     0.06420   0.83925   0.45969   0.00000  Uiso   1.00
H517   H     0.30700   0.83543   0.10866   0.00000  Uiso   1.00
H518   H     0.02772   0.81641   0.39202   0.00000  Uiso   1.00
H519   H     0.33328   0.78600   0.46684   0.00000  Uiso   1.00
H520   H     0.33244   0.83571   0.02872   0.00000  Uiso   1.00
H521   H     0.17641   0.75469   0.06445   0.00000  Uiso   1.00
H522   H     0.14919   0.83317   0.41830   0.00000  Uiso   1.00
H523   H     0.25739   0.70402   0.24970   0.00000  Uiso   1.00
H524   H     0.07602   0.96272   0.25010   0.00000  Uiso   1.00
H525   H     0.25731   0.96275   0.24988   0.00000  Uiso   1.00
H526   H     0.07602   0.70399   0.25012   0.00000  Uiso   1.00
H527   H     0.19911   0.77617   0.28379   0.00000  Uiso   1.00
H528   H     0.13466   0.88955   0.21430   0.00000  Uiso   1.00
H529   H     0.11190   0.77681   0.28508   0.00000  Uiso   1.00
H530   H     0.22154   0.88970   0.21462   0.00000  Uiso   1.00
N531   N     0.11736   0.83334   0.24999   0.00000  Uiso   1.00
N532   N     0.21597   0.83332   0.25001   0.00000  Uiso   1.00
O533   O     0.03958   0.77322   0.25000   0.00000  Uiso   1.00
O534   O     0.29375   0.89345   0.25000   0.00000  Uiso   1.00
O535   O     0.29372   0.77321   0.25001   0.00000  Uiso   1.00
O536   O     0.03961   0.89346   0.25000   0.00000  Uiso   1.00
O537   O     0.01852   0.83334   0.31492   0.00000  Uiso   1.00
O538   O     0.31481   0.83332   0.18509   0.00000  Uiso   1.00
O539   O     0.27267   0.83333   0.31492   0.00000  Uiso   1.00
O540   O     0.06067   0.83333   0.18508   0.00000  Uiso   1.00
C541   C     0.13799   0.82014   0.11387   0.00000  Uiso   1.00
C542   C     0.14473   0.78338   0.14337   0.00000  Uiso   1.00
C543   C     0.19763   0.78021   0.14545   0.00000  Uiso   1.00
H544   H     0.22326   0.77320   0.11238   0.00000  Uiso   1.00
H545   H     0.20906   0.80958   0.15735   0.00000  Uiso   1.00
H546   H     0.20039   0.75526   0.16880   0.00000  Uiso   1.00
H547   H     0.12162   0.78640   0.17796   0.00000  Uiso   1.00
H548   H     0.13320   0.75383   0.13197   0.00000  Uiso   1.00
H549   H     0.17317   0.82754   0.08874   0.00000  Uiso   1.00
H550   H     0.13292   0.84924   0.13293   0.00000  Uiso   1.00
C551   C     0.21395   0.77662   0.37183   0.00000  Uiso   1.00
C552   C     0.18942   0.73633   0.39316   0.00000  Uiso   1.00
C553   C     0.17084   0.71123   0.36040   0.00000  Uiso   1.00
H554   H     0.14360   0.72929   0.34902   0.00000  Uiso   1.00
H555   H     0.20182   0.70246   0.33125   0.00000  Uiso   1.00
H556   H     0.15287   0.68270   0.37685   0.00000  Uiso   1.00
H557   H     0.21636   0.71751   0.40420   0.00000  Uiso   1.00
H558   H     0.15759   0.74276   0.42238   0.00000  Uiso   1.00
H559   H     0.18717   0.79629   0.36186   0.00000  Uiso   1.00
H560   H     0.24175   0.76677   0.34086   0.00000  Uiso   1.00
C561   C     0.66666   0.75400   0.25000   0.00000  Uiso   1.00
C562   C     0.33334   0.91267   0.24999   0.00000  Uiso   1.00
C563   C     0.52246   0.77158   0.03416   0.00000  Uiso   1.00
C564   C     0.47173   0.82227   0.45210   0.00000  Uiso   1.00
C565   C     0.57263   0.77157   0.01263   0.00000  Uiso   1.00
C566   C     0.42295   0.82705   0.47632   0.00000  Uiso   1.00
C567   C     0.62402   0.68798   0.24988   0.00000  Uiso   1.00
C568   C     0.37600   0.97874   0.25007   0.00000  Uiso   1.00
C569   C     0.62400   0.97875   0.24994   0.00000  Uiso   1.00
C570   C     0.37600   0.68797   0.25008   0.00000  Uiso   1.00
C571   C     0.66666   0.95729   0.25001   0.00000  Uiso   1.00
C572   C     0.33333   0.70942   0.25000   0.00000  Uiso   1.00
C573   C     0.51865   0.80172   0.26900   0.00000  Uiso   1.00
C574   C     0.48150   0.86465   0.23036   0.00000  Uiso   1.00
C575   C     0.46893   0.80192   0.26938   0.00000  Uiso   1.00
C576   C     0.53109   0.86472   0.23053   0.00000  Uiso   1.00
C577   C     0.63889   0.82819   0.33524   0.00000  Uiso   1.00
C578   C     0.36179   0.83077   0.16398   0.00000  Uiso   1.00
C579   C     0.62229   0.81407   0.38175   0.00000  Uiso   1.00
C580   C     0.37965   0.82426   0.11519   0.00000  Uiso   1.00
C581   C     0.64001   0.79318   0.44939   0.00000  Uiso   1.00
C582   C     0.35938   0.82823   0.04579   0.00000  Uiso   1.00
C583   C     0.65579   0.80962   0.40657   0.00000  Uiso   1.00
C584   C     0.34507   0.82860   0.09165   0.00000  Uiso   1.00
C585   C     0.57312   0.80069   0.40053   0.00000  Uiso   1.00
C586   C     0.43002   0.81441   0.09166   0.00000  Uiso   1.00
C587   C     0.55549   0.79823   0.44712   0.00000  Uiso   1.00
C588   C     0.44262   0.80806   0.04441   0.00000  Uiso   1.00
C589   C     0.58971   0.78811   0.47012   0.00000  Uiso   1.00
C590   C     0.40799   0.82014   0.02210   0.00000  Uiso   1.00
C591   C     0.50553   0.80452   0.47154   0.00000  Uiso   1.00
C592   C     0.49000   0.79487   0.01748   0.00000  Uiso   1.00
Cu593  Cu    0.38022   0.83334   0.25000   0.00000  Uiso   1.00
Cu594  Cu    0.61978   0.83333   0.25000   0.00000  Uiso   1.00
H595   H     0.59779   0.75831   0.02892   0.00000  Uiso   1.00
H596   H     0.39753   0.83925   0.45969   0.00000  Uiso   1.00
H597   H     0.64034   0.83543   0.10866   0.00000  Uiso   1.00
H598   H     0.36105   0.81641   0.39202   0.00000  Uiso   1.00
H599   H     0.66662   0.78600   0.46684   0.00000  Uiso   1.00
H600   H     0.66577   0.83571   0.02872   0.00000  Uiso   1.00
H601   H     0.50974   0.75469   0.06445   0.00000  Uiso   1.00
H602   H     0.48252   0.83317   0.41830   0.00000  Uiso   1.00
H603   H     0.59072   0.70402   0.24970   0.00000  Uiso   1.00
H604   H     0.40936   0.96272   0.25010   0.00000  Uiso   1.00
H605   H     0.59065   0.96275   0.24988   0.00000  Uiso   1.00
H606   H     0.40935   0.70399   0.25012   0.00000  Uiso   1.00
H607   H     0.53245   0.77617   0.28379   0.00000  Uiso   1.00
H608   H     0.46800   0.88955   0.21430   0.00000  Uiso   1.00
H609   H     0.44523   0.77681   0.28508   0.00000  Uiso   1.00
H610   H     0.55487   0.88970   0.21462   0.00000  Uiso   1.00
N611   N     0.45069   0.83334   0.24999   0.00000  Uiso   1.00
N612   N     0.54931   0.83332   0.25001   0.00000  Uiso   1.00
O613   O     0.37291   0.77322   0.25000   0.00000  Uiso   1.00
O614   O     0.62709   0.89345   0.25000   0.00000  Uiso   1.00
O615   O     0.62706   0.77321   0.25001   0.00000  Uiso   1.00
O616   O     0.37294   0.89346   0.25000   0.00000  Uiso   1.00
O617   O     0.35186   0.83334   0.31492   0.00000  Uiso   1.00
O618   O     0.64814   0.83332   0.18509   0.00000  Uiso   1.00
O619   O     0.60600   0.83333   0.31492   0.00000  Uiso   1.00
O620   O     0.39400   0.83333   0.18508   0.00000  Uiso   1.00
C621   C     0.47133   0.82014   0.11387   0.00000  Uiso   1.00
C622   C     0.47807   0.78338   0.14337   0.00000  Uiso   1.00
C623   C     0.53097   0.78021   0.14545   0.00000  Uiso   1.00
H624   H     0.55660   0.77320   0.11238   0.00000  Uiso   1.00
H625   H     0.54240   0.80958   0.15735   0.00000  Uiso   1.00
H626   H     0.53372   0.75526   0.16880   0.00000  Uiso   1.00
H627   H     0.45496   0.78640   0.17796   0.00000  Uiso   1.00
H628   H     0.46654   0.75383   0.13197   0.00000  Uiso   1.00
H629   H     0.50650   0.82754   0.08874   0.00000  Uiso   1.00
H630   H     0.46625   0.84924   0.13293   0.00000  Uiso   1.00
C631   C     0.54729   0.77662   0.37183   0.00000  Uiso   1.00
C632   C     0.52276   0.73633   0.39316   0.00000  Uiso   1.00
C633   C     0.50417   0.71123   0.36040   0.00000  Uiso   1.00
H634   H     0.47694   0.72929   0.34902   0.00000  Uiso   1.00
H635   H     0.53516   0.70246   0.33125   0.00000  Uiso   1.00
H636   H     0.48620   0.68270   0.37685   0.00000  Uiso   1.00
H637   H     0.54969   0.71751   0.40420   0.00000  Uiso   1.00
H638   H     0.49093   0.74276   0.42238   0.00000  Uiso   1.00
H639   H     0.52051   0.79629   0.36186   0.00000  Uiso   1.00
H640   H     0.57509   0.76677   0.34086   0.00000  Uiso   1.00
C641   C     0.99999   0.75400   0.25000   0.00000  Uiso   1.00
C642   C     0.66668   0.91267   0.24999   0.00000  Uiso   1.00
C643   C     0.85580   0.77158   0.03416   0.00000  Uiso   1.00
C644   C     0.80506   0.82227   0.45210   0.00000  Uiso   1.00
C645   C     0.90596   0.77157   0.01263   0.00000  Uiso   1.00
C646   C     0.75628   0.82705   0.47632   0.00000  Uiso   1.00
C647   C     0.95736   0.68798   0.24988   0.00000  Uiso   1.00
C648   C     0.70933   0.97874   0.25007   0.00000  Uiso   1.00
C649   C     0.95733   0.97875   0.24994   0.00000  Uiso   1.00
C650   C     0.70933   0.68797   0.25008   0.00000  Uiso   1.00
C651   C     1.00000   0.95729   0.25001   0.00000  Uiso   1.00
C652   C     0.66667   0.70942   0.25000   0.00000  Uiso   1.00
C653   C     0.85199   0.80172   0.26900   0.00000  Uiso   1.00
C654   C     0.81483   0.86465   0.23036   0.00000  Uiso   1.00
C655   C     0.80226   0.80192   0.26938   0.00000  Uiso   1.00
C656   C     0.86442   0.86472   0.23053   0.00000  Uiso   1.00
C657   C     0.97222   0.82819   0.33524   0.00000  Uiso   1.00
C658   C     0.69513   0.83077   0.16398   0.00000  Uiso   1.00
C659   C     0.95562   0.81407   0.38175   0.00000  Uiso   1.00
C660   C     0.71299   0.82426   0.11519   0.00000  Uiso   1.00
C661   C     0.97334   0.79318   0.44939   0.00000  Uiso   1.00
C662   C     0.69271   0.82823   0.04579   0.00000  Uiso   1.00
C663   C     0.98912   0.80962   0.40657   0.00000  Uiso   1.00
C664   C     0.67841   0.82860   0.09165   0.00000  Uiso   1.00
C665   C     0.90645   0.80069   0.40053   0.00000  Uiso   1.00
C666   C     0.76335   0.81441   0.09166   0.00000  Uiso   1.00
C667   C     0.88882   0.79823   0.44712   0.00000  Uiso   1.00
C668   C     0.77595   0.80806   0.04441   0.00000  Uiso   1.00
C669   C     0.92304   0.78811   0.47012   0.00000  Uiso   1.00
C670   C     0.74133   0.82014   0.02210   0.00000  Uiso   1.00
C671   C     0.83887   0.80452   0.47154   0.00000  Uiso   1.00
C672   C     0.82333   0.79487   0.01748   0.00000  Uiso   1.00
Cu673  Cu    0.71355   0.83334   0.25000   0.00000  Uiso   1.00
Cu674  Cu    0.95311   0.83333   0.25000   0.00000  Uiso   1.00
H675   H     0.93113   0.75831   0.02892   0.00000  Uiso   1.00
H676   H     0.73087   0.83925   0.45969   0.00000  Uiso   1.00
H677   H     0.97367   0.83543   0.10866   0.00000  Uiso   1.00
H678   H     0.69439   0.81641   0.39202   0.00000  Uiso   1.00
H679   H     0.99995   0.78600   0.46684   0.00000  Uiso   1.00
H680   H     0.99911   0.83571   0.02872   0.00000  Uiso   1.00
H681   H     0.84308   0.75469   0.06445   0.00000  Uiso   1.00
H682   H     0.81586   0.83317   0.41830   0.00000  Uiso   1.00
H683   H     0.92405   0.70402   0.24970   0.00000  Uiso   1.00
H684   H     0.74269   0.96272   0.25010   0.00000  Uiso   1.00
H685   H     0.92398   0.96275   0.24988   0.00000  Uiso   1.00
H686   H     0.74268   0.70399   0.25012   0.00000  Uiso   1.00
H687   H     0.86578   0.77617   0.28379   0.00000  Uiso   1.00
H688   H     0.80133   0.88955   0.21430   0.00000  Uiso   1.00
H689   H     0.77856   0.77681   0.28508   0.00000  Uiso   1.00
H690   H     0.88821   0.88970   0.21462   0.00000  Uiso   1.00
N691   N     0.78403   0.83334   0.24999   0.00000  Uiso   1.00
N692   N     0.88264   0.83332   0.25001   0.00000  Uiso   1.00
O693   O     0.70625   0.77322   0.25000   0.00000  Uiso   1.00
O694   O     0.96042   0.89345   0.25000   0.00000  Uiso   1.00
O695   O     0.96039   0.77321   0.25001   0.00000  Uiso   1.00
O696   O     0.70628   0.89346   0.25000   0.00000  Uiso   1.00
O697   O     0.68519   0.83334   0.31492   0.00000  Uiso   1.00
O698   O     0.98148   0.83332   0.18509   0.00000  Uiso   1.00
O699   O     0.93933   0.83333   0.31492   0.00000  Uiso   1.00
O700   O     0.72733   0.83333   0.18508   0.00000  Uiso   1.00
C701   C     0.80466   0.82014   0.11387   0.00000  Uiso   1.00
C702   C     0.81140   0.78338   0.14337   0.00000  Uiso   1.00
C703   C     0.86430   0.78021   0.14545   0.00000  Uiso   1.00
H704   H     0.88993   0.77320   0.11238   0.00000  Uiso   1.00
H705   H     0.87573   0.80958   0.15735   0.00000  Uiso   1.00
H706   H     0.86705   0.75526   0.16880   0.00000  Uiso   1.00
H707   H     0.78829   0.78640   0.17796   0.00000  Uiso   1.00
H708   H     0.79987   0.75383   0.13197   0.00000  Uiso   1.00
H709   H     0.83983   0.82754   0.08874   0.00000  Uiso   1.00
H710   H     0.79958   0.84924   0.13293   0.00000  Uiso   1.00
C711   C     0.88062   0.77662   0.37183   0.00000  Uiso   1.00
C712   C     0.85609   0.73633   0.39316   0.00000  Uiso   1.00
C713   C     0.83751   0.71123   0.36040   0.00000  Uiso   1.00
H714   H     0.81027   0.72929   0.34902   0.00000  Uiso   1.00
H715   H     0.86849   0.70246   0.33125   0.00000  Uiso   1.00
H716   H     0.81953   0.68270   0.37685   0.00000  Uiso   1.00
H717   H     0.88303   0.71751   0.40420   0.00000  Uiso   1.00
H718   H     0.82426   0.74276   0.42238   0.00000  Uiso   1.00
H719   H     0.85384   0.79629   0.36186   0.00000  Uiso   1.00
H720   H     0.90842   0.76677   0.34086   0.00000  Uiso   1.00
C721   C     0.33333   0.08733   0.75000   0.00000  Uiso   1.00
C722   C     0.00001   0.24601   0.74999   0.00000  Uiso   1.00
C723   C     0.18913   0.10491   0.53416   0.00000  Uiso   1.00
C724   C     0.13840   0.15560   0.95210   0.00000  Uiso   1.00
C725   C     0.23929   0.10490   0.51263   0.00000  Uiso   1.00
C726   C     0.08962   0.16038   0.97632   0.00000  Uiso   1.00
C727   C     0.29069   0.02132   0.74988   0.00000  Uiso   1.00
C728   C     0.04267   0.31207   0.75007   0.00000  Uiso   1.00
C729   C     0.29067   0.31208   0.74994   0.00000  Uiso   1.00
C730   C     0.04266   0.02131   0.75008   0.00000  Uiso   1.00
C731   C     0.33333   0.29062   0.75001   0.00000  Uiso   1.00
C732   C    -0.00000   0.04275   0.75000   0.00000  Uiso   1.00
C733   C     0.18532   0.13506   0.76900   0.00000  Uiso   1.00
C734   C     0.14817   0.19798   0.73036   0.00000  Uiso   1.00
C735   C     0.13560   0.13525   0.76938   0.00000  Uiso   1.00
C736   C     0.19775   0.19805   0.73053   0.00000  Uiso   1.00
C737   C     0.30555   0.16152   0.83524   0.00000  Uiso   1.00
C738   C     0.02846   0.16410   0.66398   0.00000  Uiso   1.00
C739   C     0.28896   0.14740   0.88175   0.00000  Uiso   1.00
C740   C     0.04632   0.15759   0.61519   0.00000  Uiso   1.00
C741   C     0.30668   0.12651   0.94939   0.00000  Uiso   1.00
C742   C     0.02605   0.16156   0.54579   0.00000  Uiso   1.00
C743   C     0.32246   0.14295   0.90657   0.00000  Uiso   1.00
C744   C     0.01174   0.16193   0.59165   0.00000  Uiso   1.00
C745   C     0.23978   0.13403   0.90053   0.00000  Uiso   1.00
C746   C     0.09668   0.14774   0.59166   0.00000  Uiso   1.00
C747   C     0.22216   0.13156   0.94712   0.00000  Uiso   1.00
C748   C     0.10929   0.14139   0.54441   0.00000  Uiso   1.00
C749   C     0.25637   0.12144   0.97012   0.00000  Uiso   1.00
C750   C     0.07466   0.15347   0.52210   0.00000  Uiso   1.00
C751   C     0.17220   0.13785   0.97154   0.00000  Uiso   1.00
C752   C     0.15667   0.12821   0.51748   0.00000  Uiso   1.00
Cu753  Cu    0.04689   0.16667   0.75000   0.00000  Uiso   1.00
Cu754  Cu    0.28645   0.16666   0.75000   0.00000  Uiso   1.00
H755   H     0.26446   0.09164   0.52892   0.00000  Uiso   1.00
H756   H     0.06420   0.17259   0.95969   0.00000  Uiso   1.00
H757   H     0.30700   0.16877   0.60866   0.00000  Uiso   1.00
H758   H     0.02772   0.14975   0.89202   0.00000  Uiso   1.00
H759   H     0.33328   0.11933   0.96684   0.00000  Uiso   1.00
H760   H     0.33244   0.16904   0.52872   0.00000  Uiso   1.00
H761   H     0.17641   0.08803   0.56445   0.00000  Uiso   1.00
H762   H     0.14919   0.16650   0.91830   0.00000  Uiso   1.00
H763   H     0.25739   0.03735   0.74970   0.00000  Uiso   1.00
H764   H     0.07602   0.29605   0.75010   0.00000  Uiso   1.00
H765   H     0.25731   0.29608   0.74988   0.00000  Uiso   1.00
H766   H     0.07602   0.03732   0.75012   0.00000  Uiso   1.00
H767   H     0.19911   0.10951   0.78379   0.00000  Uiso   1.00
H768   H     0.13466   0.22288   0.71430   0.00000  Uiso   1.00
H769   H     0.11190   0.11014   0.78508   0.00000  Uiso   1.00
H770   H     0.22154   0.22303   0.71462   0.00000  Uiso   1.00
N771   N     0.11736   0.16668   0.74999   0.00000  Uiso   1.00
N772   N     0.21597   0.16666   0.75001   0.00000  Uiso   1.00
O773   O     0.03958   0.10655   0.75000   0.00000  Uiso   1.00
O774   O     0.29375   0.22678   0.75000   0.00000  Uiso   1.00
O775   O     0.29372   0.10654   0.75001   0.00000  Uiso   1.00
O776   O     0.03961   0.22679   0.75000   0.00000  Uiso   1.00
O777   O     0.01852   0.16668   0.81492   0.00000  Uiso   1.00
O778   O     0.31481   0.16666   0.68509   0.00000  Uiso   1.00
O779   O     0.27267   0.16667   0.81492   0.00000  Uiso   1.00
O780   O     0.06067   0.16667   0.68508   0.00000  Uiso   1.00
C781   C     0.13799   0.15347   0.61387   0.00000  Uiso   1.00
C782   C     0.14473   0.11671   0.64337   0.00000  Uiso   1.00
C783   C     0.19763   0.11354   0.64545   0.00000  Uiso   1.00
H784   H     0.22326   0.10654   0.61238   0.00000  Uiso   1.00
H785   H     0.20906   0.14291   0.65735   0.00000  Uiso   1.00
H786   H     0.20039   0.08859   0.66880   0.00000  Uiso   1.00
H787   H     0.12162   0.11973   0.67796   0.00000  Uiso   1.00
H788   H     0.13320   0.08716   0.63197   0.00000  Uiso   1.00
H789   H     0.17317   0.16087   0.58874   0.00000  Uiso   1.00
H790   H     0.13292   0.18258   0.63293   0.00000  Uiso   1.00
C791   C     0.21395   0.10995   0.87183   0.00000  Uiso   1.00
C792   C     0.18942   0.06966   0.89316   0.00000  Uiso   1.00
C793   C     0.17084   0.04456   0.86040   0.00000  Uiso   1.00
H794   H     0.14360   0.06262   0.84902   0.00000  Uiso   1.00
H795   H     0.20182   0.03580   0.83125   0.00000  Uiso   1.00
H796   H     0.15287   0.01603   0.87685   0.00000  Uiso   1.00
H797   H     0.21636   0.05085   0.90420   0.00000  Uiso   1.00
H798   H     0.15759   0.07609   0.92238   0.00000  Uiso   1.00
H799   H     0.18717   0.12963   0.86186   0.00000  Uiso   1.00
H800   H     0.24175   0.10011   0.84086   0.00000  Uiso   1.00
C801   C     0.66666   0.08733   0.75000   0.00000  Uiso   1.00
C802   C     0.33334   0.24601   0.74999   0.00000  Uiso   1.00
C803   C     0.52246   0.10491   0.53416   0.00000  Uiso   1.00
C804   C     0.47173   0.15560   0.95210   0.00000  Uiso   1.00
C805   C     0.57263   0.10490   0.51263   0.00000  Uiso   1.00
C806   C     0.42295   0.16038   0.97632   0.00000  Uiso   1.00
C807   C     0.62402   0.02132   0.74988   0.00000  Uiso   1.00
C808   C     0.37600   0.31207   0.75007   0.00000  Uiso   1.00
C809   C     0.62400   0.31208   0.74994   0.00000  Uiso   1.00
C810   C     0.37600   0.02131   0.75008   0.00000  Uiso   1.00
C811   C     0.66666   0.29062   0.75001   0.00000  Uiso   1.00
C812   C     0.33333   0.04275   0.75000   0.00000  Uiso   1.00
C813   C     0.51865   0.13506   0.76900   0.00000  Uiso   1.00
C814   C     0.48150   0.19798   0.73036   0.00000  Uiso   1.00
C815   C     0.46893   0.13525   0.76938   0.00000  Uiso   1.00
C816   C     0.53109   0.19805   0.73053   0.00000  Uiso   1.00
C817   C     0.63889   0.16152   0.83524   0.00000  Uiso   1.00
C818   C     0.36179   0.16410   0.66398   0.00000  Uiso   1.00
C819   C     0.62229   0.14740   0.88175   0.00000  Uiso   1.00
C820   C     0.37965   0.15759   0.61519   0.00000  Uiso   1.00
C821   C     0.64001   0.12651   0.94939   0.00000  Uiso   1.00
C822   C     0.35938   0.16156   0.54579   0.00000  Uiso   1.00
C823   C     0.65579   0.14295   0.90657   0.00000  Uiso   1.00
C824   C     0.34507   0.16193   0.59165   0.00000  Uiso   1.00
C825   C     0.57312   0.13403   0.90053   0.00000  Uiso   1.00
C826   C     0.43002   0.14774   0.59166   0.00000  Uiso   1.00
C827   C     0.55549   0.13156   0.94712   0.00000  Uiso   1.00
C828   C     0.44262   0.14139   0.54441   0.00000  Uiso   1.00
C829   C     0.58971   0.12144   0.97012   0.00000  Uiso   1.00
C830   C     0.40799   0.15347   0.52210   0.00000  Uiso   1.00
C831   C     0.50553   0.13785   0.97154   0.00000  Uiso   1.00
C832   C     0.49000   0.12821   0.51748   0.00000  Uiso   1.00
Cu833  Cu    0.38022   0.16667   0.75000   0.00000  Uiso   1.00
Cu834  Cu    0.61978   0.16666   0.75000   0.00000  Uiso   1.00
H835   H     0.59779   0.09164   0.52892   0.00000  Uiso   1.00
H836   H     0.39753   0.17259   0.95969   0.00000  Uiso   1.00
H837   H     0.64034   0.16877   0.60866   0.00000  Uiso   1.00
H838   H     0.36105   0.14975   0.89202   0.00000  Uiso   1.00
H839   H     0.66662   0.11933   0.96684   0.00000  Uiso   1.00
H840   H     0.66577   0.16904   0.52872   0.00000  Uiso   1.00
H841   H     0.50974   0.08803   0.56445   0.00000  Uiso   1.00
H842   H     0.48252   0.16650   0.91830   0.00000  Uiso   1.00
H843   H     0.59072   0.03735   0.74970   0.00000  Uiso   1.00
H844   H     0.40936   0.29605   0.75010   0.00000  Uiso   1.00
H845   H     0.59065   0.29608   0.74988   0.00000  Uiso   1.00
H846   H     0.40935   0.03732   0.75012   0.00000  Uiso   1.00
H847   H     0.53245   0.10951   0.78379   0.00000  Uiso   1.00
H848   H     0.46800   0.22288   0.71430   0.00000  Uiso   1.00
H849   H     0.44523   0.11014   0.78508   0.00000  Uiso   1.00
H850   H     0.55487   0.22303   0.71462   0.00000  Uiso   1.00
N851   N     0.45069   0.16668   0.74999   0.00000  Uiso   1.00
N852   N     0.54931   0.16666   0.75001   0.00000  Uiso   1.00
O853   O     0.37291   0.10655   0.75000   0.00000  Uiso   1.00
O854   O     0.62709   0.22678   0.75000   0.00000  Uiso   1.00
O855   O     0.62706   0.10654   0.75001   0.00000  Uiso   1.00
O856   O     0.37294   0.22679   0.75000   0.00000  Uiso   1.00
O857   O     0.35186   0.16668   0.81492   0.00000  Uiso   1.00
O858   O     0.64814   0.16666   0.68509   0.00000  Uiso   1.00
O859   O     0.60600   0.16667   0.81492   0.00000  Uiso   1.00
O860   O     0.39400   0.16667   0.68508   0.00000  Uiso   1.00
C861   C     0.47133   0.15347   0.61387   0.00000  Uiso   1.00
C862   C     0.47807   0.11671   0.64337   0.00000  Uiso   1.00
C863   C     0.53097   0.11354   0.64545   0.00000  Uiso   1.00
H864   H     0.55660   0.10654   0.61238   0.00000  Uiso   1.00
H865   H     0.54240   0.14291   0.65735   0.00000  Uiso   1.00
H866   H     0.53372   0.08859   0.66880   0.00000  Uiso   1.00
H867   H     0.45496   0.11973   0.67796   0.00000  Uiso   1.00
H868   H     0.46654   0.08716   0.63197   0.00000  Uiso   1.00
H869   H     0.50650   0.16087   0.58874   0.00000  Uiso   1.00
H870   H     0.46625   0.18258   0.63293   0.00000  Uiso   1.00
C871   C     0.54729   0.10995   0.87183   0.00000  Uiso   1.00
C872   C     0.52276   0.06966   0.89316   0.00000  Uiso   1.00
C873   C     0.50417   0.04456   0.86040   0.00000  Uiso   1.00
H874   H     0.47694   0.06262   0.84902   0.00000  Uiso   1.00
H875   H     0.53516   0.03580   0.83125   0.00000  Uiso   1.00
H876   H     0.48620   0.01603   0.87685   0.00000  Uiso   1.00
H877   H     0.54969   0.05085   0.90420   0.00000  Uiso   1.00
H878   H     0.49093   0.07609   0.92238   0.00000  Uiso   1.00
H879   H     0.52051   0.12963   0.86186   0.00000  Uiso   1.00
H880   H     0.57509   0.10011   0.84086   0.00000  Uiso   1.00
C881   C     0.99999   0.08733   0.75000   0.00000  Uiso   1.00
C882   C     0.66668   0.24601   0.74999   0.00000  Uiso   1.00
C883   C     0.85580   0.10491   0.53416   0.00000  Uiso   1.00
C884   C     0.80506   0.15560   0.95210   0.00000  Uiso   1.00
C885   C     0.90596   0.10490   0.51263   0.00000  Uiso   1.00
C886   C     0.75628   0.16038   0.97632   0.00000  Uiso   1.00
C887   C     0.95736   0.02132   0.74988   0.00000  Uiso   1.00
C888   C     0.70933   0.31207   0.75007   0.00000  Uiso   1.00
C889   C     0.95733   0.31208   0.74994   0.00000  Uiso   1.00
C890   C     0.70933   0.02131   0.75008   0.00000  Uiso   1.00
C891   C     1.00000   0.29062   0.75001   0.00000  Uiso   1.00
C892   C     0.66667   0.04275   0.75000   0.00000  Uiso   1.00
C893   C     0.85199   0.13506   0.76900   0.00000  Uiso   1.00
C894   C     0.81483   0.19798   0.73036   0.00000  Uiso   1.00
C895   C     0.80226   0.13525   0.76938   0.00000  Uiso   1.00
C896   C     0.86442   0.19805   0.73053   0.00000  Uiso   1.00
C897   C     0.97222   0.16152   0.83524   0.00000  Uiso   1.00
C898   C     0.69513   0.16410   0.66398   0.00000  Uiso   1.00
C899   C     0.95562   0.14740   0.88175   0.00000  Uiso   1.00
C900   C     0.71299   0.15759   0.61519   0.00000  Uiso   1.00
C901   C     0.97334   0.12651   0.94939   0.00000  Uiso   1.00
C902   C     0.69271   0.16156   0.54579   0.00000  Uiso   1.00
C903   C     0.98912   0.14295   0.90657   0.00000  Uiso   1.00
C904   C     0.67841   0.16193   0.59165   0.00000  Uiso   1.00
C905   C     0.90645   0.13403   0.90053   0.00000  Uiso   1.00
C906   C     0.76335   0.14774   0.59166   0.00000  Uiso   1.00
C907   C     0.88882   0.13156   0.94712   0.00000  Uiso   1.00
C908   C     0.77595   0.14139   0.54441   0.00000  Uiso   1.00
C909   C     0.92304   0.12144   0.97012   0.00000  Uiso   1.00
C910   C     0.74133   0.15347   0.52210   0.00000  Uiso   1.00
C911   C     0.83887   0.13785   0.97154   0.00000  Uiso   1.00
C912   C     0.82333   0.12821   0.51748   0.00000  Uiso   1.00
Cu913  Cu    0.71355   0.16667   0.75000   0.00000  Uiso   1.00
Cu914  Cu    0.95311   0.16666   0.75000   0.00000  Uiso   1.00
H915   H     0.93113   0.09164   0.52892   0.00000  Uiso   1.00
H916   H     0.73087   0.17259   0.95969   0.00000  Uiso   1.00
H917   H     0.97367   0.16877   0.60866   0.00000  Uiso   1.00
H918   H     0.69439   0.14975   0.89202   0.00000  Uiso   1.00
H919   H     0.99995   0.11933   0.96684   0.00000  Uiso   1.00
H920   H     0.99911   0.16904   0.52872   0.00000  Uiso   1.00
H921   H     0.84308   0.08803   0.56445   0.00000  Uiso   1.00
H922   H     0.81586   0.16650   0.91830   0.00000  Uiso   1.00
H923   H     0.92405   0.03735   0.74970   0.00000  Uiso   1.00
H924   H     0.74269   0.29605   0.75010   0.00000  Uiso   1.00
H925   H     0.92398   0.29608   0.74988   0.00000  Uiso   1.00
H926   H     0.74268   0.03732   0.75012   0.00000  Uiso   1.00
H927   H     0.86578   0.10951   0.78379   0.00000  Uiso   1.00
H928   H     0.80133   0.22288   0.71430   0.00000  Uiso   1.00
H929   H     0.77856   0.11014   0.78508   0.00000  Uiso   1.00
H930   H     0.88821   0.22303   0.71462   0.00000  Uiso   1.00
N931   N     0.78403   0.16668   0.74999   0.00000  Uiso   1.00
N932   N     0.88264   0.16666   0.75001   0.00000  Uiso   1.00
O933   O     0.70625   0.10655   0.75000   0.00000  Uiso   1.00
O934   O     0.96042   0.22678   0.75000   0.00000  Uiso   1.00
O935   O     0.96039   0.10654   0.75001   0.00000  Uiso   1.00
O936   O     0.70628   0.22679   0.75000   0.00000  Uiso   1.00
O937   O     0.68519   0.16668   0.81492   0.00000  Uiso   1.00
O938   O     0.98148   0.16666   0.68509   0.00000  Uiso   1.00
O939   O     0.93933   0.16667   0.81492   0.00000  Uiso   1.00
O940   O     0.72733   0.16667   0.68508   0.00000  Uiso   1.00
C941   C     0.80466   0.15347   0.61387   0.00000  Uiso   1.00
C942   C     0.81140   0.11671   0.64337   0.00000  Uiso   1.00
C943   C     0.86430   0.11354   0.64545   0.00000  Uiso   1.00
H944   H     0.88993   0.10654   0.61238   0.00000  Uiso   1.00
H945   H     0.87573   0.14291   0.65735   0.00000  Uiso   1.00
H946   H     0.86705   0.08859   0.66880   0.00000  Uiso   1.00
H947   H     0.78829   0.11973   0.67796   0.00000  Uiso   1.00
H948   H     0.79987   0.08716   0.63197   0.00000  Uiso   1.00
H949   H     0.83983   0.16087   0.58874   0.00000  Uiso   1.00
H950   H     0.79958   0.18258   0.63293   0.00000  Uiso   1.00
C951   C     0.88062   0.10995   0.87183   0.00000  Uiso   1.00
C952   C     0.85609   0.06966   0.89316   0.00000  Uiso   1.00
C953   C     0.83751   0.04456   0.86040   0.00000  Uiso   1.00
H954   H     0.81027   0.06262   0.84902   0.00000  Uiso   1.00
H955   H     0.86849   0.03580   0.83125   0.00000  Uiso   1.00
H956   H     0.81953   0.01603   0.87685   0.00000  Uiso   1.00
H957   H     0.88303   0.05085   0.90420   0.00000  Uiso   1.00
H958   H     0.82426   0.07609   0.92238   0.00000  Uiso   1.00
H959   H     0.85384   0.12963   0.86186   0.00000  Uiso   1.00
H960   H     0.90842   0.10011   0.84086   0.00000  Uiso   1.00
C961   C     0.33333   0.42067   0.75000   0.00000  Uiso   1.00
C962   C     0.00001   0.57934   0.74999   0.00000  Uiso   1.00
C963   C     0.18913   0.43825   0.53416   0.00000  Uiso   1.00
C964   C     0.13840   0.48894   0.95210   0.00000  Uiso   1.00
C965   C     0.23929   0.43823   0.51263   0.00000  Uiso   1.00
C966   C     0.08962   0.49371   0.97632   0.00000  Uiso   1.00
C967   C     0.29069   0.35465   0.74988   0.00000  Uiso   1.00
C968   C     0.04267   0.64540   0.75007   0.00000  Uiso   1.00
C969   C     0.29067   0.64542   0.74994   0.00000  Uiso   1.00
C970   C     0.04266   0.35464   0.75008   0.00000  Uiso   1.00
C971   C     0.33333   0.62396   0.75001   0.00000  Uiso   1.00
C972   C    -0.00000   0.37608   0.75000   0.00000  Uiso   1.00
C973   C     0.18532   0.46839   0.76900   0.00000  Uiso   1.00
C974   C     0.14817   0.53131   0.73036   0.00000  Uiso   1.00
C975   C     0.13560   0.46858   0.76938   0.00000  Uiso   1.00
C976   C     0.19775   0.53139   0.73053   0.00000  Uiso   1.00
C977   C     0.30555   0.49486   0.83524   0.00000  Uiso   1.00
C978   C     0.02846   0.49743   0.66398   0.00000  Uiso   1.00
C979   C     0.28896   0.48074   0.88175   0.00000  Uiso   1.00
C980   C     0.04632   0.49093   0.61519   0.00000  Uiso   1.00
C981   C     0.30668   0.45984   0.94939   0.00000  Uiso   1.00
C982   C     0.02605   0.49489   0.54579   0.00000  Uiso   1.00
C983   C     0.32246   0.47628   0.90657   0.00000  Uiso   1.00
C984   C     0.01174   0.49527   0.59165   0.00000  Uiso   1.00
C985   C     0.23978   0.46736   0.90053   0.00000  Uiso   1.00
C986   C     0.09668   0.48107   0.59166   0.00000  Uiso   1.00
C987   C     0.22216   0.46489   0.94712   0.00000  Uiso   1.00
C988   C     0.10929   0.47473   0.54441   0.00000  Uiso   1.00
C989   C     0.25637   0.45478   0.97012   0.00000  Uiso   1.00
C990   C     0.07466   0.48680   0.52210   0.00000  Uiso   1.00
C991   C     0.17220   0.47119   0.97154   0.00000  Uiso   1.00
C992   C     0.15667   0.46154   0.51748   0.00000  Uiso   1.00
Cu993  Cu    0.04689   0.50001   0.75000   0.00000  Uiso   1.00
Cu994  Cu    0.28645   0.49999   0.75000   0.00000  Uiso   1.00
H995   H     0.26446   0.42497   0.52892   0.00000  Uiso   1.00
H996   H     0.06420   0.50592   0.95969   0.00000  Uiso   1.00
H997   H     0.30700   0.50210   0.60866   0.00000  Uiso   1.00
H998   H     0.02772   0.48308   0.89202   0.00000  Uiso   1.00
H999   H     0.33328   0.45267   0.96684   0.00000  Uiso   1.00
H1000  H     0.33244   0.50238   0.52872   0.00000  Uiso   1.00
H1001  H     0.17641   0.42136   0.56445   0.00000  Uiso   1.00
H1002  H     0.14919   0.49984   0.91830   0.00000  Uiso   1.00
H1003  H     0.25739   0.37068   0.74970   0.00000  Uiso   1.00
H1004  H     0.07602   0.62938   0.75010   0.00000  Uiso   1.00
H1005  H     0.25731   0.62941   0.74988   0.00000  Uiso   1.00
H1006  H     0.07602   0.37066   0.75012   0.00000  Uiso   1.00
H1007  H     0.19911   0.44284   0.78379   0.00000  Uiso   1.00
H1008  H     0.13466   0.55622   0.71430   0.00000  Uiso   1.00
H1009  H     0.11190   0.44348   0.78508   0.00000  Uiso   1.00
H1010  H     0.22154   0.55637   0.71462   0.00000  Uiso   1.00
N1011  N     0.11736   0.50001   0.74999   0.00000  Uiso   1.00
N1012  N     0.21597   0.49999   0.75001   0.00000  Uiso   1.00
O1013  O     0.03958   0.43989   0.75000   0.00000  Uiso   1.00
O1014  O     0.29375   0.56011   0.75000   0.00000  Uiso   1.00
O1015  O     0.29372   0.43988   0.75001   0.00000  Uiso   1.00
O1016  O     0.03961   0.56012   0.75000   0.00000  Uiso   1.00
O1017  O     0.01852   0.50001   0.81492   0.00000  Uiso   1.00
O1018  O     0.31481   0.49999   0.68509   0.00000  Uiso   1.00
O1019  O     0.27267   0.50000   0.81492   0.00000  Uiso   1.00
O1020  O     0.06067   0.50000   0.68508   0.00000  Uiso   1.00
C1021  C     0.13799   0.48680   0.61387   0.00000  Uiso   1.00
C1022  C     0.14473   0.45005   0.64337   0.00000  Uiso   1.00
C1023  C     0.19763   0.44687   0.64545   0.00000  Uiso   1.00
H1024  H     0.22326   0.43987   0.61238   0.00000  Uiso   1.00
H1025  H     0.20906   0.47624   0.65735   0.00000  Uiso   1.00
H1026  H     0.20039   0.42193   0.66880   0.00000  Uiso   1.00
H1027  H     0.12162   0.45307   0.67796   0.00000  Uiso   1.00
H1028  H     0.13320   0.42049   0.63197   0.00000  Uiso   1.00
H1029  H     0.17317   0.49421   0.58874   0.00000  Uiso   1.00
H1030  H     0.13292   0.51591   0.63293   0.00000  Uiso   1.00
C1031  C     0.21395   0.44329   0.87183   0.00000  Uiso   1.00
C1032  C     0.18942   0.40299   0.89316   0.00000  Uiso   1.00
C1033  C     0.17084   0.37790   0.86040   0.00000  Uiso   1.00
H1034  H     0.14360   0.39596   0.84902   0.00000  Uiso   1.00
H1035  H     0.20182   0.36913   0.83125   0.00000  Uiso   1.00
H1036  H     0.15287   0.34936   0.87685   0.00000  Uiso   1.00
H1037  H     0.21636   0.38418   0.90420   0.00000  Uiso   1.00
H1038  H     0.15759   0.40942   0.92238   0.00000  Uiso   1.00
H1039  H     0.18717   0.46296   0.86186   0.00000  Uiso   1.00
H1040  H     0.24175   0.43344   0.84086   0.00000  Uiso   1.00
C1041  C     0.66666   0.42067   0.75000   0.00000  Uiso   1.00
C1042  C     0.33334   0.57934   0.74999   0.00000  Uiso   1.00
C1043  C     0.52246   0.43825   0.53416   0.00000  Uiso   1.00
C1044  C     0.47173   0.48894   0.95210   0.00000  Uiso   1.00
C1045  C     0.57263   0.43823   0.51263   0.00000  Uiso   1.00
C1046  C     0.42295   0.49371   0.97632   0.00000  Uiso   1.00
C1047  C     0.62402   0.35465   0.74988   0.00000  Uiso   1.00
C1048  C     0.37600   0.64540   0.75007   0.00000  Uiso   1.00
C1049  C     0.62400   0.64542   0.74994   0.00000  Uiso   1.00
C1050  C     0.37600   0.35464   0.75008   0.00000  Uiso   1.00
C1051  C     0.66666   0.62396   0.75001   0.00000  Uiso   1.00
C1052  C     0.33333   0.37608   0.75000   0.00000  Uiso   1.00
C1053  C     0.51865   0.46839   0.76900   0.00000  Uiso   1.00
C1054  C     0.48150   0.53131   0.73036   0.00000  Uiso   1.00
C1055  C     0.46893   0.46858   0.76938   0.00000  Uiso   1.00
C1056  C     0.53109   0.53139   0.73053   0.00000  Uiso   1.00
C1057  C     0.63889   0.49486   0.83524   0.00000  Uiso   1.00
C1058  C     0.36179   0.49743   0.66398   0.00000  Uiso   1.00
C1059  C     0.62229   0.48074   0.88175   0.00000  Uiso   1.00
C1060  C     0.37965   0.49093   0.61519   0.00000  Uiso   1.00
C1061  C     0.64001   0.45984   0.94939   0.00000  Uiso   1.00
C1062  C     0.35938   0.49489   0.54579   0.00000  Uiso   1.00
C1063  C     0.65579   0.47628   0.90657   0.00000  Uiso   1.00
C1064  C     0.34507   0.49527   0.59165   0.00000  Uiso   1.00
C1065  C     0.57312   0.46736   0.90053   0.00000  Uiso   1.00
C1066  C     0.43002   0.48107   0.59166   0.00000  Uiso   1.00
C1067  C     0.55549   0.46489   0.94712   0.00000  Uiso   1.00
C1068  C     0.44262   0.47473   0.54441   0.00000  Uiso   1.00
C1069  C     0.58971   0.45478   0.97012   0.00000  Uiso   1.00
C1070  C     0.40799   0.48680   0.52210   0.00000  Uiso   1.00
C1071  C     0.50553   0.47119   0.97154   0.00000  Uiso   1.00
C1072  C     0.49000   0.46154   0.51748   0.00000  Uiso   1.00
Cu1073 Cu    0.38022   0.50001   0.75000   0.00000  Uiso   1.00
Cu1074 Cu    0.61978   0.49999   0.75000   0.00000  Uiso   1.00
H1075  H     0.59779   0.42497   0.52892   0.00000  Uiso   1.00
H1076  H     0.39753   0.50592   0.95969   0.00000  Uiso   1.00
H1077  H     0.64034   0.50210   0.60866   0.00000  Uiso   1.00
H1078  H     0.36105   0.48308   0.89202   0.00000  Uiso   1.00
H1079  H     0.66662   0.45267   0.96684   0.00000  Uiso   1.00
H1080  H     0.66577   0.50238   0.52872   0.00000  Uiso   1.00
H1081  H     0.50974   0.42136   0.56445   0.00000  Uiso   1.00
H1082  H     0.48252   0.49984   0.91830   0.00000  Uiso   1.00
H1083  H     0.59072   0.37068   0.74970   0.00000  Uiso   1.00
H1084  H     0.40936   0.62938   0.75010   0.00000  Uiso   1.00
H1085  H     0.59065   0.62941   0.74988   0.00000  Uiso   1.00
H1086  H     0.40935   0.37066   0.75012   0.00000  Uiso   1.00
H1087  H     0.53245   0.44284   0.78379   0.00000  Uiso   1.00
H1088  H     0.46800   0.55622   0.71430   0.00000  Uiso   1.00
H1089  H     0.44523   0.44348   0.78508   0.00000  Uiso   1.00
H1090  H     0.55487   0.55637   0.71462   0.00000  Uiso   1.00
N1091  N     0.45069   0.50001   0.74999   0.00000  Uiso   1.00
N1092  N     0.54931   0.49999   0.75001   0.00000  Uiso   1.00
O1093  O     0.37291   0.43989   0.75000   0.00000  Uiso   1.00
O1094  O     0.62709   0.56011   0.75000   0.00000  Uiso   1.00
O1095  O     0.62706   0.43988   0.75001   0.00000  Uiso   1.00
O1096  O     0.37294   0.56012   0.75000   0.00000  Uiso   1.00
O1097  O     0.35186   0.50001   0.81492   0.00000  Uiso   1.00
O1098  O     0.64814   0.49999   0.68509   0.00000  Uiso   1.00
O1099  O     0.60600   0.50000   0.81492   0.00000  Uiso   1.00
O1100  O     0.39400   0.50000   0.68508   0.00000  Uiso   1.00
C1101  C     0.47133   0.48680   0.61387   0.00000  Uiso   1.00
C1102  C     0.47807   0.45005   0.64337   0.00000  Uiso   1.00
C1103  C     0.53097   0.44687   0.64545   0.00000  Uiso   1.00
H1104  H     0.55660   0.43987   0.61238   0.00000  Uiso   1.00
H1105  H     0.54240   0.47624   0.65735   0.00000  Uiso   1.00
H1106  H     0.53372   0.42193   0.66880   0.00000  Uiso   1.00
H1107  H     0.45496   0.45307   0.67796   0.00000  Uiso   1.00
H1108  H     0.46654   0.42049   0.63197   0.00000  Uiso   1.00
H1109  H     0.50650   0.49421   0.58874   0.00000  Uiso   1.00
H1110  H     0.46625   0.51591   0.63293   0.00000  Uiso   1.00
C1111  C     0.54729   0.44329   0.87183   0.00000  Uiso   1.00
C1112  C     0.52276   0.40299   0.89316   0.00000  Uiso   1.00
C1113  C     0.50417   0.37790   0.86040   0.00000  Uiso   1.00
H1114  H     0.47694   0.39596   0.84902   0.00000  Uiso   1.00
H1115  H     0.53516   0.36913   0.83125   0.00000  Uiso   1.00
H1116  H     0.48620   0.34936   0.87685   0.00000  Uiso   1.00
H1117  H     0.54969   0.38418   0.90420   0.00000  Uiso   1.00
H1118  H     0.49093   0.40942   0.92238   0.00000  Uiso   1.00
H1119  H     0.52051   0.46296   0.86186   0.00000  Uiso   1.00
H1120  H     0.57509   0.43344   0.84086   0.00000  Uiso   1.00
C1121  C     0.99999   0.42067   0.75000   0.00000  Uiso   1.00
C1122  C     0.66668   0.57934   0.74999   0.00000  Uiso   1.00
C1123  C     0.85580   0.43825   0.53416   0.00000  Uiso   1.00
C1124  C     0.80506   0.48894   0.95210   0.00000  Uiso   1.00
C1125  C     0.90596   0.43823   0.51263   0.00000  Uiso   1.00
C1126  C     0.75628   0.49371   0.97632   0.00000  Uiso   1.00
C1127  C     0.95736   0.35465   0.74988   0.00000  Uiso   1.00
C1128  C     0.70933   0.64540   0.75007   0.00000  Uiso   1.00
C1129  C     0.95733   0.64542   0.74994   0.00000  Uiso   1.00
C1130  C     0.70933   0.35464   0.75008   0.00000  Uiso   1.00
C1131  C     1.00000   0.62396   0.75001   0.00000  Uiso   1.00
C1132  C     0.66667   0.37608   0.75000   0.00000  Uiso   1.00
C1133  C     0.85199   0.46839   0.76900   0.00000  Uiso   1.00
C1134  C     0.81483   0.53131   0.73036   0.00000  Uiso   1.00
C1135  C     0.80226   0.46858   0.76938   0.00000  Uiso   1.00
C1136  C     0.86442   0.53139   0.73053   0.00000  Uiso   1.00
C1137  C     0.97222   0.49486   0.83524   0.00000  Uiso   1.00
C1138  C     0.69513   0.49743   0.66398   0.00000  Uiso   1.00
C1139  C     0.95562   0.48074   0.88175   0.00000  Uiso   1.00
C1140  C     0.71299   0.49093   0.61519   0.00000  Uiso   1.00
C1141  C     0.97334   0.45984   0.94939   0.00000  Uiso   1.00
C1142  C     0.69271   0.49489   0.54579   0.00000  Uiso   1.00
C1143  C     0.98912   0.47628   0.90657   0.00000  Uiso   1.00
C1144  C     0.67841   0.49527   0.59165   0.00000  Uiso   1.00
C1145  C     0.90645   0.46736   0.90053   0.00000  Uiso   1.00
C1146  C     0.76335   0.48107   0.59166   0.00000  Uiso   1.00
C1147  C     0.88882   0.46489   0.94712   0.00000  Uiso   1.00
C1148  C     0.77595   0.47473   0.54441   0.00000  Uiso   1.00
C1149  C     0.92304   0.45478   0.97012   0.00000  Uiso   1.00
C1150  C     0.74133   0.48680   0.52210   0.00000  Uiso   1.00
C1151  C     0.83887   0.47119   0.97154   0.00000  Uiso   1.00
C1152  C     0.82333   0.46154   0.51748   0.00000  Uiso   1.00
Cu1153 Cu    0.71355   0.50001   0.75000   0.00000  Uiso   1.00
Cu1154 Cu    0.95311   0.49999   0.75000   0.00000  Uiso   1.00
H1155  H     0.93113   0.42497   0.52892   0.00000  Uiso   1.00
H1156  H     0.73087   0.50592   0.95969   0.00000  Uiso   1.00
H1157  H     0.97367   0.50210   0.60866   0.00000  Uiso   1.00
H1158  H     0.69439   0.48308   0.89202   0.00000  Uiso   1.00
H1159  H     0.99995   0.45267   0.96684   0.00000  Uiso   1.00
H1160  H     0.99911   0.50238   0.52872   0.00000  Uiso   1.00
H1161  H     0.84308   0.42136   0.56445   0.00000  Uiso   1.00
H1162  H     0.81586   0.49984   0.91830   0.00000  Uiso   1.00
H1163  H     0.92405   0.37068   0.74970   0.00000  Uiso   1.00
H1164  H     0.74269   0.62938   0.75010   0.00000  Uiso   1.00
H1165  H     0.92398   0.62941   0.74988   0.00000  Uiso   1.00
H1166  H     0.74268   0.37066   0.75012   0.00000  Uiso   1.00
H1167  H     0.86578   0.44284   0.78379   0.00000  Uiso   1.00
H1168  H     0.80133   0.55622   0.71430   0.00000  Uiso   1.00
H1169  H     0.77856   0.44348   0.78508   0.00000  Uiso   1.00
H1170  H     0.88821   0.55637   0.71462   0.00000  Uiso   1.00
N1171  N     0.78403   0.50001   0.74999   0.00000  Uiso   1.00
N1172  N     0.88264   0.49999   0.75001   0.00000  Uiso   1.00
O1173  O     0.70625   0.43989   0.75000   0.00000  Uiso   1.00
O1174  O     0.96042   0.56011   0.75000   0.00000  Uiso   1.00
O1175  O     0.96039   0.43988   0.75001   0.00000  Uiso   1.00
O1176  O     0.70628   0.56012   0.75000   0.00000  Uiso   1.00
O1177  O     0.68519   0.50001   0.81492   0.00000  Uiso   1.00
O1178  O     0.98148   0.49999   0.68509   0.00000  Uiso   1.00
O1179  O     0.93933   0.50000   0.81492   0.00000  Uiso   1.00
O1180  O     0.72733   0.50000   0.68508   0.00000  Uiso   1.00
C1181  C     0.80466   0.48680   0.61387   0.00000  Uiso   1.00
C1182  C     0.81140   0.45005   0.64337   0.00000  Uiso   1.00
C1183  C     0.86430   0.44687   0.64545   0.00000  Uiso   1.00
H1184  H     0.88993   0.43987   0.61238   0.00000  Uiso   1.00
H1185  H     0.87573   0.47624   0.65735   0.00000  Uiso   1.00
H1186  H     0.86705   0.42193   0.66880   0.00000  Uiso   1.00
H1187  H     0.78829   0.45307   0.67796   0.00000  Uiso   1.00
H1188  H     0.79987   0.42049   0.63197   0.00000  Uiso   1.00
H1189  H     0.83983   0.49421   0.58874   0.00000  Uiso   1.00
H1190  H     0.79958   0.51591   0.63293   0.00000  Uiso   1.00
C1191  C     0.88062   0.44329   0.87183   0.00000  Uiso   1.00
C1192  C     0.85609   0.40299   0.89316   0.00000  Uiso   1.00
C1193  C     0.83751   0.37790   0.86040   0.00000  Uiso   1.00
H1194  H     0.81027   0.39596   0.84902   0.00000  Uiso   1.00
H1195  H     0.86849   0.36913   0.83125   0.00000  Uiso   1.00
H1196  H     0.81953   0.34936   0.87685   0.00000  Uiso   1.00
H1197  H     0.88303   0.38418   0.90420   0.00000  Uiso   1.00
H1198  H     0.82426   0.40942   0.92238   0.00000  Uiso   1.00
H1199  H     0.85384   0.46296   0.86186   0.00000  Uiso   1.00
H1200  H     0.90842   0.43344   0.84086   0.00000  Uiso   1.00
C1201  C     0.33333   0.75400   0.75000   0.00000  Uiso   1.00
C1202  C     0.00001   0.91267   0.74999   0.00000  Uiso   1.00
C1203  C     0.18913   0.77158   0.53416   0.00000  Uiso   1.00
C1204  C     0.13840   0.82227   0.95210   0.00000  Uiso   1.00
C1205  C     0.23929   0.77157   0.51263   0.00000  Uiso   1.00
C1206  C     0.08962   0.82705   0.97632   0.00000  Uiso   1.00
C1207  C     0.29069   0.68798   0.74988   0.00000  Uiso   1.00
C1208  C     0.04267   0.97874   0.75007   0.00000  Uiso   1.00
C1209  C     0.29067   0.97875   0.74994   0.00000  Uiso   1.00
C1210  C     0.04266   0.68797   0.75008   0.00000  Uiso   1.00
C1211  C     0.33333   0.95729   0.75001   0.00000  Uiso   1.00
C1212  C    -0.00000   0.70942   0.75000   0.00000  Uiso   1.00
C1213  C     0.18532   0.80172   0.76900   0.00000  Uiso   1.00
C1214  C     0.14817   0.86465   0.73036   0.00000  Uiso   1.00
C1215  C     0.13560   0.80192   0.76938   0.00000  Uiso   1.00
C1216  C     0.19775   0.86472   0.73053   0.00000  Uiso   1.00
C1217  C     0.30555   0.82819   0.83524   0.00000  Uiso   1.00
C1218  C     0.02846   0.83077   0.66398   0.00000  Uiso   1.00
C1219  C     0.28896   0.81407   0.88175   0.00000  Uiso   1.00
C1220  C     0.04632   0.82426   0.61519   0.00000  Uiso   1.00
C1221  C     0.30668   0.79318   0.94939   0.00000  Uiso   1.00
C1222  C     0.02605   0.82823   0.54579   0.00000  Uiso   1.00
C1223  C     0.32246   0.80962   0.90657   0.00000  Uiso   1.00
C1224  C     0.01174   0.82860   0.59165   0.00000  Uiso   1.00
C1225  C     0.23978   0.80069   0.90053   0.00000  Uiso   1.00
C1226  C     0.09668   0.81441   0.59166   0.00000  Uiso   1.00
C1227  C     0.22216   0.79823   0.94712   0.00000  Uiso   1.00
C1228  C     0.10929   0.80806   0.54441   0.00000  Uiso   1.00
C1229  C     0.25637   0.78811   0.97012   0.00000  Uiso   1.00
C1230  C     0.07466   0.82014   0.52210   0.00000  Uiso   1.00
C1231  C     0.17220   0.80452   0.97154   0.00000  Uiso   1.00
C1232  C     0.15667   0.79487   0.51748   0.00000  Uiso   1.00
Cu1233 Cu    0.04689   0.83334   0.75000   0.00000  Uiso   1.00
Cu1234 Cu    0.28645   0.83333   0.75000   0.00000  Uiso   1.00
H1235  H     0.26446   0.75831   0.52892   0.00000  Uiso   1.00
H1236  H     0.06420   0.83925   0.95969   0.00000  Uiso   1.00
H1237  H     0.30700   0.83543   0.60866   0.00000  Uiso   1.00
H1238  H     0.02772   0.81641   0.89202   0.00000  Uiso   1.00
H1239  H     0.33328   0.78600   0.96684   0.00000  Uiso   1.00
H1240  H     0.33244   0.83571   0.52872   0.00000  Uiso   1.00
H1241  H     0.17641   0.75469   0.56445   0.00000  Uiso   1.00
H1242  H     0.14919   0.83317   0.91830   0.00000  Uiso   1.00
H1243  H     0.25739   0.70402   0.74970   0.00000  Uiso   1.00
H1244  H     0.07602   0.96272   0.75010   0.00000  Uiso   1.00
H1245  H     0.25731   0.96275   0.74988   0.00000  Uiso   1.00
H1246  H     0.07602   0.70399   0.75012   0.00000  Uiso   1.00
H1247  H     0.19911   0.77617   0.78379   0.00000  Uiso   1.00
H1248  H     0.13466   0.88955   0.71430   0.00000  Uiso   1.00
H1249  H     0.11190   0.77681   0.78508   0.00000  Uiso   1.00
H1250  H     0.22154   0.88970   0.71462   0.00000  Uiso   1.00
N1251  N     0.11736   0.83334   0.74999   0.00000  Uiso   1.00
N1252  N     0.21597   0.83332   0.75001   0.00000  Uiso   1.00
O1253  O     0.03958   0.77322   0.75000   0.00000  Uiso   1.00
O1254  O     0.29375   0.89345   0.75000   0.00000  Uiso   1.00
O1255  O     0.29372   0.77321   0.75001   0.00000  Uiso   1.00
O1256  O     0.03961   0.89346   0.75000   0.00000  Uiso   1.00
O1257  O     0.01852   0.83334   0.81492   0.00000  Uiso   1.00
O1258  O     0.31481   0.83332   0.68509   0.00000  Uiso   1.00
O1259  O     0.27267   0.83333   0.81492   0.00000  Uiso   1.00
O1260  O     0.06067   0.83333   0.68508   0.00000  Uiso   1.00
C1261  C     0.13799   0.82014   0.61387   0.00000  Uiso   1.00
C1262  C     0.14473   0.78338   0.64337   0.00000  Uiso   1.00
C1263  C     0.19763   0.78021   0.64545   0.00000  Uiso   1.00
H1264  H     0.22326   0.77320   0.61238   0.00000  Uiso   1.00
H1265  H     0.20906   0.80958   0.65735   0.00000  Uiso   1.00
H1266  H     0.20039   0.75526   0.66880   0.00000  Uiso   1.00
H1267  H     0.12162   0.78640   0.67796   0.00000  Uiso   1.00
H1268  H     0.13320   0.75383   0.63197   0.00000  Uiso   1.00
H1269  H     0.17317   0.82754   0.58874   0.00000  Uiso   1.00
H1270  H     0.13292   0.84924   0.63293   0.00000  Uiso   1.00
C1271  C     0.21395   0.77662   0.87183   0.00000  Uiso   1.00
C1272  C     0.18942   0.73633   0.89316   0.00000  Uiso   1.00
C1273  C     0.17084   0.71123   0.86040   0.00000  Uiso   1.00
H1274  H     0.14360   0.72929   0.84902   0.00000  Uiso   1.00
H1275  H     0.20182   0.70246   0.83125   0.00000  Uiso   1.00
H1276  H     0.15287   0.68270   0.87685   0.00000  Uiso   1.00
H1277  H     0.21636   0.71751   0.90420   0.00000  Uiso   1.00
H1278  H     0.15759   0.74276   0.92238   0.00000  Uiso   1.00
H1279  H     0.18717   0.79629   0.86186   0.00000  Uiso   1.00
H1280  H     0.24175   0.76677   0.84086   0.00000  Uiso   1.00
C1281  C     0.66666   0.75400   0.75000   0.00000  Uiso   1.00
C1282  C     0.33334   0.91267   0.74999   0.00000  Uiso   1.00
C1283  C     0.52246   0.77158   0.53416   0.00000  Uiso   1.00
C1284  C     0.47173   0.82227   0.95210   0.00000  Uiso   1.00
C1285  C     0.57263   0.77157   0.51263   0.00000  Uiso   1.00
C1286  C     0.42295   0.82705   0.97632   0.00000  Uiso   1.00
C1287  C     0.62402   0.68798   0.74988   0.00000  Uiso   1.00
C1288  C     0.37600   0.97874   0.75007   0.00000  Uiso   1.00
C1289  C     0.62400   0.97875   0.74994   0.00000  Uiso   1.00
C1290  C     0.37600   0.68797   0.75008   0.00000  Uiso   1.00
C1291  C     0.66666   0.95729   0.75001   0.00000  Uiso   1.00
C1292  C     0.33333   0.70942   0.75000   0.00000  Uiso   1.00
C1293  C     0.51865   0.80172   0.76900   0.00000  Uiso   1.00
C1294  C     0.48150   0.86465   0.73036   0.00000  Uiso   1.00
C1295  C     0.46893   0.80192   0.76938   0.00000  Uiso   1.00
C1296  C     0.53109   0.86472   0.73053   0.00000  Uiso   1.00
C1297  C     0.63889   0.82819   0.83524   0.00000  Uiso   1.00
C1298  C     0.36179   0.83077   0.66398   0.00000  Uiso   1.00
C1299  C     0.62229   0.81407   0.88175   0.00000  Uiso   1.00
C1300  C     0.37965   0.82426   0.61519   0.00000  Uiso   1.00
C1301  C     0.64001   0.79318   0.94939   0.00000  Uiso   1.00
C1302  C     0.35938   0.82823   0.54579   0.00000  Uiso   1.00
C1303  C     0.65579   0.80962   0.90657   0.00000  Uiso   1.00
C1304  C     0.34507   0.82860   0.59165   0.00000  Uiso   1.00
C1305  C     0.57312   0.80069   0.90053   0.00000  Uiso   1.00
C1306  C     0.43002   0.81441   0.59166   0.00000  Uiso   1.00
C1307  C     0.55549   0.79823   0.94712   0.00000  Uiso   1.00
C1308  C     0.44262   0.80806   0.54441   0.00000  Uiso   1.00
C1309  C     0.58971   0.78811   0.97012   0.00000  Uiso   1.00
C1310  C     0.40799   0.82014   0.52210   0.00000  Uiso   1.00
C1311  C     0.50553   0.80452   0.97154   0.00000  Uiso   1.00
C1312  C     0.49000   0.79487   0.51748   0.00000  Uiso   1.00
Cu1313 Cu    0.38022   0.83334   0.75000   0.00000  Uiso   1.00
Cu1314 Cu    0.61978   0.83333   0.75000   0.00000  Uiso   1.00
H1315  H     0.59779   0.75831   0.52892   0.00000  Uiso   1.00
H1316  H     0.39753   0.83925   0.95969   0.00000  Uiso   1.00
H1317  H     0.64034   0.83543   0.60866   0.00000  Uiso   1.00
H1318  H     0.36105   0.81641   0.89202   0.00000  Uiso   1.00
H1319  H     0.66662   0.78600   0.96684   0.00000  Uiso   1.00
H1320  H     0.66577   0.83571   0.52872   0.00000  Uiso   1.00
H1321  H     0.50974   0.75469   0.56445   0.00000  Uiso   1.00
H1322  H     0.48252   0.83317   0.91830   0.00000  Uiso   1.00
H1323  H     0.59072   0.70402   0.74970   0.00000  Uiso   1.00
H1324  H     0.40936   0.96272   0.75010   0.00000  Uiso   1.00
H1325  H     0.59065   0.96275   0.74988   0.00000  Uiso   1.00
H1326  H     0.40935   0.70399   0.75012   0.00000  Uiso   1.00
H1327  H     0.53245   0.77617   0.78379   0.00000  Uiso   1.00
H1328  H     0.46800   0.88955   0.71430   0.00000  Uiso   1.00
H1329  H     0.44523   0.77681   0.78508   0.00000  Uiso   1.00
H1330  H     0.55487   0.88970   0.71462   0.00000  Uiso   1.00
N1331  N     0.45069   0.83334   0.74999   0.00000  Uiso   1.00
N1332  N     0.54931   0.83332   0.75001   0.00000  Uiso   1.00
O1333  O     0.37291   0.77322   0.75000   0.00000  Uiso   1.00
O1334  O     0.62709   0.89345   0.75000   0.00000  Uiso   1.00
O1335  O     0.62706   0.77321   0.75001   0.00000  Uiso   1.00
O1336  O     0.37294   0.89346   0.75000   0.00000  Uiso   1.00
O1337  O     0.35186   0.83334   0.81492   0.00000  Uiso   1.00
O1338  O     0.64814   0.83332   0.68509   0.00000  Uiso   1.00
O1339  O     0.60600   0.83333   0.81492   0.00000  Uiso   1.00
O1340  O     0.39400   0.83333   0.68508   0.00000  Uiso   1.00
C1341  C     0.47133   0.82014   0.61387   0.00000  Uiso   1.00
C1342  C     0.47807   0.78338   0.64337   0.00000  Uiso   1.00
C1343  C     0.53097   0.78021   0.64545   0.00000  Uiso   1.00
H1344  H     0.55660   0.77320   0.61238   0.00000  Uiso   1.00
H1345  H     0.54240   0.80958   0.65735   0.00000  Uiso   1.00
H1346  H     0.53372   0.75526   0.66880   0.00000  Uiso   1.00
H1347  H     0.45496   0.78640   0.67796   0.00000  Uiso   1.00
H1348  H     0.46654   0.75383   0.63197   0.00000  Uiso   1.00
H1349  H     0.50650   0.82754   0.58874   0.00000  Uiso   1.00
H1350  H     0.46625   0.84924   0.63293   0.00000  Uiso   1.00
C1351  C     0.54729   0.77662   0.87183   0.00000  Uiso   1.00
C1352  C     0.52276   0.73633   0.89316   0.00000  Uiso   1.00
C1353  C     0.50417   0.71123   0.86040   0.00000  Uiso   1.00
H1354  H     0.47694   0.72929   0.84902   0.00000  Uiso   1.00
H1355  H     0.53516   0.70246   0.83125   0.00000  Uiso   1.00
H1356  H     0.48620   0.68270   0.87685   0.00000  Uiso   1.00
H1357  H     0.54969   0.71751   0.90420   0.00000  Uiso   1.00
H1358  H     0.49093   0.74276   0.92238   0.00000  Uiso   1.00
H1359  H     0.52051   0.79629   0.86186   0.00000  Uiso   1.00
H1360  H     0.57509   0.76677   0.84086   0.00000  Uiso   1.00
C1361  C     0.99999   0.75400   0.75000   0.00000  Uiso   1.00
C1362  C     0.66668   0.91267   0.74999   0.00000  Uiso   1.00
C1363  C     0.85580   0.77158   0.53416   0.00000  Uiso   1.00
C1364  C     0.80506   0.82227   0.95210   0.00000  Uiso   1.00
C1365  C     0.90596   0.77157   0.51263   0.00000  Uiso   1.00
C1366  C     0.75628   0.82705   0.97632   0.00000  Uiso   1.00
C1367  C     0.95736   0.68798   0.74988   0.00000  Uiso   1.00
C1368  C     0.70933   0.97874   0.75007   0.00000  Uiso   1.00
C1369  C     0.95733   0.97875   0.74994   0.00000  Uiso   1.00
C1370  C     0.70933   0.68797   0.75008   0.00000  Uiso   1.00
C1371  C     1.00000   0.95729   0.75001   0.00000  Uiso   1.00
C1372  C     0.66667   0.70942   0.75000   0.00000  Uiso   1.00
C1373  C     0.85199   0.80172   0.76900   0.00000  Uiso   1.00
C1374  C     0.81483   0.86465   0.73036   0.00000  Uiso   1.00
C1375  C     0.80226   0.80192   0.76938   0.00000  Uiso   1.00
C1376  C     0.86442   0.86472   0.73053   0.00000  Uiso   1.00
C1377  C     0.97222   0.82819   0.83524   0.00000  Uiso   1.00
C1378  C     0.69513   0.83077   0.66398   0.00000  Uiso   1.00
C1379  C     0.95562   0.81407   0.88175   0.00000  Uiso   1.00
C1380  C     0.71299   0.82426   0.61519   0.00000  Uiso   1.00
C1381  C     0.97334   0.79318   0.94939   0.00000  Uiso   1.00
C1382  C     0.69271   0.82823   0.54579   0.00000  Uiso   1.00
C1383  C     0.98912   0.80962   0.90657   0.00000  Uiso   1.00
C1384  C     0.67841   0.82860   0.59165   0.00000  Uiso   1.00
C1385  C     0.90645   0.80069   0.90053   0.00000  Uiso   1.00
C1386  C     0.76335   0.81441   0.59166   0.00000  Uiso   1.00
C1387  C     0.88882   0.79823   0.94712   0.00000  Uiso   1.00
C1388  C     0.77595   0.80806   0.54441   0.00000  Uiso   1.00
C1389  C     0.92304   0.78811   0.97012   0.00000  Uiso   1.00
C1390  C     0.74133   0.82014   0.52210   0.00000  Uiso   1.00
C1391  C     0.83887   0.80452   0.97154   0.00000  Uiso   1.00
C1392  C     0.82333   0.79487   0.51748   0.00000  Uiso   1.00
Cu1393 Cu    0.71355   0.83334   0.75000   0.00000  Uiso   1.00
Cu1394 Cu    0.95311   0.83333   0.75000   0.00000  Uiso   1.00
H1395  H     0.93113   0.75831   0.52892   0.00000  Uiso   1.00
H1396  H     0.73087   0.83925   0.95969   0.00000  Uiso   1.00
H1397  H     0.97367   0.83543   0.60866   0.00000  Uiso   1.00
H1398  H     0.69439   0.81641   0.89202   0.00000  Uiso   1.00
H1399  H     0.99995   0.78600   0.96684   0.00000  Uiso   1.00
H1400  H     0.99911   0.83571   0.52872   0.00000  Uiso   1.00
H1401  H     0.84308   0.75469   0.56445   0.00000  Uiso   1.00
H1402  H     0.81586   0.83317   0.91830   0.00000  Uiso   1.00
H1403  H     0.92405   0.70402   0.74970   0.00000  Uiso   1.00
H1404  H     0.74269   0.96272   0.75010   0.00000  Uiso   1.00
H1405  H     0.92398   0.96275   0.74988   0.00000  Uiso   1.00
H1406  H     0.74268   0.70399   0.75012   0.00000  Uiso   1.00
H1407  H     0.86578   0.77617   0.78379   0.00000  Uiso   1.00
H1408  H     0.80133   0.88955   0.71430   0.00000  Uiso   1.00
H1409  H     0.77856   0.77681   0.78508   0.00000  Uiso   1.00
H1410  H     0.88821   0.88970   0.71462   0.00000  Uiso   1.00
N1411  N     0.78403   0.83334   0.74999   0.00000  Uiso   1.00
N1412  N     0.88264   0.83332   0.75001   0.00000  Uiso   1.00
O1413  O     0.70625   0.77322   0.75000   0.00000  Uiso   1.00
O1414  O     0.96042   0.89345   0.75000   0.00000  Uiso   1.00
O1415  O     0.96039   0.77321   0.75001   0.00000  Uiso   1.00
O1416  O     0.70628   0.89346   0.75000   0.00000  Uiso   1.00
O1417  O     0.68519   0.83334   0.81492   0.00000  Uiso   1.00
O1418  O     0.98148   0.83332   0.68509   0.00000  Uiso   1.00
O1419  O     0.93933   0.83333   0.81492   0.00000  Uiso   1.00
O1420  O     0.72733   0.83333   0.68508   0.00000  Uiso   1.00
C1421  C     0.80466   0.82014   0.61387   0.00000  Uiso   1.00
C1422  C     0.81140   0.78338   0.64337   0.00000  Uiso   1.00
C1423  C     0.86430   0.78021   0.64545   0.00000  Uiso   1.00
H1424  H     0.88993   0.77320   0.61238   0.00000  Uiso   1.00
H1425  H     0.87573   0.80958   0.65735   0.00000  Uiso   1.00
H1426  H     0.86705   0.75526   0.66880   0.00000  Uiso   1.00
H1427  H     0.78829   0.78640   0.67796   0.00000  Uiso   1.00
H1428  H     0.79987   0.75383   0.63197   0.00000  Uiso   1.00
H1429  H     0.83983   0.82754   0.58874   0.00000  Uiso   1.00
H1430  H     0.79958   0.84924   0.63293   0.00000  Uiso   1.00
C1431  C     0.88062   0.77662   0.87183   0.00000  Uiso   1.00
C1432  C     0.85609   0.73633   0.89316   0.00000  Uiso   1.00
C1433  C     0.83751   0.71123   0.86040   0.00000  Uiso   1.00
H1434  H     0.81027   0.72929   0.84902   0.00000  Uiso   1.00
H1435  H     0.86849   0.70246   0.83125   0.00000  Uiso   1.00
H1436  H     0.81953   0.68270   0.87685   0.00000  Uiso   1.00
H1437  H     0.88303   0.71751   0.90420   0.00000  Uiso   1.00
H1438  H     0.82426   0.74276   0.92238   0.00000  Uiso   1.00
H1439  H     0.85384   0.79629   0.86186   0.00000  Uiso   1.00
H1440  H     0.90842   0.76677   0.84086   0.00000  Uiso   1.00
loop_
_geom_bond_atom_site_label_1
_geom_bond_atom_site_label_2
_geom_bond_distance
_geom_bond_site_symmetry_2
_ccdc_geom_bond_type
C1     C92     1.449   .     S
C1     O55     1.289   .     A
C1     O133    1.289   .     S
C2     O56     1.289   .     A
C2     C171    1.450   1_455 S
C2     O214    1.289   1_455 S
C3     H41     1.067   .     S
C3     C5      1.391   .     A
C3     C32     1.408   .     A
C4     H42     1.077   .     S
C4     C6      1.385   .     A
C4     C31     1.405   .     A
C5     H35     1.084   .     S
C5     C749    1.391   1_554 S
C6     H36     1.084   .     S
C6     C750    1.396   .     S
C7     C92     1.401   .     A
C7     H43     1.083   .     S
C7     C489    1.383   1_545 S
C8     H44     1.083   .     S
C8     C250    1.383   .     S
C8     C171    1.401   1_455 S
C9     H45     1.083   .     S
C9     C11     1.401   .     A
C9     C247    1.383   .     S
C10    H46     1.083   .     S
C10    C488    1.383   1_545 S
C10    C12     1.401   .     S
C11    C88     1.401   .     S
C11    C82     1.450   .     S
C12    C161    1.449   1_455 S
C12    C167    1.401   1_455 A
C13    H47     1.079   .     S
C13    N52     1.366   .     A
C13    C15     1.412   .     A
C14    H48     1.081   .     S
C14    N51     1.366   .     A
C14    C16     1.414   .     A
C15    N51     1.366   .     A
C15    H49     1.081   .     S
C16    H50     1.081   .     S
C16    N52     1.366   .     A
C17    O59     1.289   .     A
C17    C19     1.474   .     S
C17    O137    1.298   .     S
C18    C20     1.487   .     S
C18    O60     1.282   .     A
C18    O218    1.312   1_455 S
C19    C23     1.405   .     A
C19    C25     1.420   .     A
C20    C26     1.446   .     A
C20    C24     1.401   .     A
C21    C23     1.396   .     A
C21    C29     1.400   .     A
C21    H39     1.082   .     S
C22    C30     1.394   .     A
C22    C24     1.382   .     A
C22    H200    1.084   1_455 S
C23    H118    1.083   .     S
C24    H197    1.084   1_455 S
C25    C71     1.537   .     S
C25    C27     1.408   .     A
C26    C61     1.545   .     S
C26    C28     1.441   .     A
C27    C29     1.411   .     A
C27    C31     1.422   .     A
C28    C32     1.435   .     A
C28    C30     1.421   .     A
C29    C725    1.391   .     S
C30    C726    1.396   1_554 S
C31    C752    1.418   .     S
C32    C751    1.418   1_554 S
Cu33   O56     1.964   .     S
Cu33   O53     1.965   .     S
Cu33   O60     1.966   .     S
Cu33   O57     1.967   .     S
Cu33   N51     2.007   .     S
Cu33   Cu194   2.670   1_455 S
Cu34   O55     1.964   .     S
Cu34   O54     1.965   .     S
Cu34   O59     1.966   .     S
Cu34   N52     2.007   .     S
Cu34   O58     1.967   .     S
Cu34   Cu113   2.670   .     S
H37    C104    1.084   .     S
H38    C183    1.083   1_455 S
H40    C102    1.084   .     S
O53    C161    1.289   1_455 S
O54    C82     1.289   .     S
O57    C177    1.298   1_455 S
O58    C98     1.312   .     S
C61    H70     1.108   .     S
C61    C62     1.557   .     S
C61    H69     1.107   .     S
C62    H67     1.101   .     S
C62    C63     1.530   .     S
C62    H68     1.109   .     S
C63    H65     1.109   .     S
C63    H66     1.111   .     S
C63    H64     1.108   .     S
C71    H79     1.107   .     S
C71    H80     1.110   .     S
C71    C72     1.541   .     S
C72    H77     1.112   .     S
C72    H78     1.108   .     S
C72    C73     1.527   .     S
C73    H74     1.111   .     S
C73    H75     1.110   .     S
C73    H76     1.110   .     S
C81    C172    1.449   .     S
C81    O135    1.289   .     A
C81    O213    1.289   .     S
C82    O136    1.289   .     A
C83    H121    1.067   .     S
C83    C85     1.391   .     A
C83    C112    1.408   .     A
C84    H122    1.077   .     S
C84    C86     1.385   .     A
C84    C111    1.405   .     A
C85    H115    1.084   .     S
C85    C829    1.391   1_554 S
C86    H116    1.084   .     S
C86    C830    1.396   .     S
C87    C172    1.401   .     A
C87    H123    1.083   .     S
C87    C569    1.383   1_545 S
C88    H124    1.083   .     S
C88    C330    1.383   .     S
C89    H125    1.083   .     S
C89    C91     1.401   .     A
C89    C327    1.383   .     S
C90    H126    1.083   .     S
C90    C568    1.383   1_545 S
C90    C92     1.401   .     S
C91    C168    1.401   .     S
C91    C162    1.450   .     S
C93    H127    1.079   .     S
C93    N132    1.366   .     A
C93    C95     1.412   .     A
C94    H128    1.081   .     S
C94    N131    1.366   .     A
C94    C96     1.414   .     A
C95    N131    1.366   .     A
C95    H129    1.081   .     S
C96    H130    1.081   .     S
C96    N132    1.366   .     A
C97    O139    1.289   .     A
C97    C99     1.474   .     S
C97    O217    1.298   .     S
C98    C100    1.487   .     S
C98    O140    1.282   .     A
C99    C103    1.405   .     A
C99    C105    1.420   .     A
C100   C106    1.446   .     A
C100   C104    1.401   .     A
C101   C103    1.396   .     A
C101   C109    1.400   .     A
C101   H119    1.082   .     S
C102   C110    1.394   .     A
C102   C104    1.382   .     A
C103   H198    1.083   .     S
C105   C151    1.537   .     S
C105   C107    1.408   .     A
C106   C141    1.545   .     S
C106   C108    1.441   .     A
C107   C109    1.411   .     A
C107   C111    1.422   .     A
C108   C112    1.435   .     A
C108   C110    1.421   .     A
C109   C805    1.391   .     S
C110   C806    1.396   1_554 S
C111   C832    1.418   .     S
C112   C831    1.418   1_554 S
Cu113  O136    1.964   .     S
Cu113  O133    1.965   .     S
Cu113  O140    1.966   .     S
Cu113  O137    1.967   .     S
Cu113  N131    2.007   .     S
Cu114  O135    1.964   .     S
Cu114  O134    1.965   .     S
Cu114  O139    1.966   .     S
Cu114  N132    2.007   .     S
Cu114  O138    1.967   .     S
Cu114  Cu193   2.670   .     S
H117   C184    1.084   .     S
H120   C182    1.084   .     S
O134   C162    1.289   .     S
O138   C178    1.312   .     S
C141   H150    1.108   .     S
C141   C142    1.557   .     S
C141   H149    1.107   .     S
C142   H147    1.101   .     S
C142   C143    1.530   .     S
C142   H148    1.109   .     S
C143   H145    1.109   .     S
C143   H146    1.111   .     S
C143   H144    1.108   .     S
C151   H159    1.107   .     S
C151   H160    1.110   .     S
C151   C152    1.541   .     S
C152   H157    1.112   .     S
C152   H158    1.108   .     S
C152   C153    1.527   .     S
C153   H154    1.111   .     S
C153   H155    1.110   .     S
C153   H156    1.110   .     S
C161   C12     1.449   1_655 S
C161   O215    1.289   .     A
C161   O53     1.289   1_655 S
C162   O216    1.289   .     A
C163   H201    1.067   .     S
C163   C165    1.391   .     A
C163   C192    1.408   .     A
C164   H202    1.077   .     S
C164   C166    1.385   .     A
C164   C191    1.405   .     A
C165   H195    1.084   .     S
C165   C909    1.391   1_554 S
C166   H196    1.084   .     S
C166   C910    1.396   .     S
C167   C12     1.401   1_655 A
C167   H203    1.083   .     S
C167   C649    1.383   1_545 S
C168   H204    1.083   .     S
C168   C410    1.383   .     S
C169   H205    1.083   .     S
C169   C171    1.401   .     A
C169   C407    1.383   .     S
C170   H206    1.083   .     S
C170   C648    1.383   1_545 S
C170   C172    1.401   .     S
C171   C8      1.401   1_655 S
C171   C2      1.450   1_655 S
C173   H207    1.079   .     S
C173   N212    1.366   .     A
C173   C175    1.412   .     A
C174   H208    1.081   .     S
C174   N211    1.366   .     A
C174   C176    1.414   .     A
C175   N211    1.366   .     A
C175   H209    1.081   .     S
C176   H210    1.081   .     S
C176   N212    1.366   .     A
C177   O219    1.289   .     A
C177   C179    1.474   .     S
C177   O57     1.298   1_655 S
C178   C180    1.487   .     S
C178   O220    1.282   .     A
C179   C183    1.405   .     A
C179   C185    1.420   .     A
C180   C186    1.446   .     A
C180   C184    1.401   .     A
C181   C183    1.396   .     A
C181   C189    1.400   .     A
C181   H199    1.082   .     S
C182   C190    1.394   .     A
C182   C184    1.382   .     A
C183   H38     1.083   1_655 S
C185   C231    1.537   .     S
C185   C187    1.408   .     A
C186   C221    1.545   .     S
C186   C188    1.441   .     A
C187   C189    1.411   .     A
C187   C191    1.422   .     A
C188   C192    1.435   .     A
C188   C190    1.421   .     A
C189   C885    1.391   .     S
C190   C886    1.396   1_554 S
C191   C912    1.418   .     S
C192   C911    1.418   1_554 S
Cu193  O216    1.964   .     S
Cu193  O213    1.965   .     S
Cu193  O220    1.966   .     S
Cu193  O217    1.967   .     S
Cu193  N211    2.007   .     S
Cu194  O215    1.964   .     S
Cu194  O214    1.965   .     S
Cu194  O219    1.966   .     S
Cu194  N212    2.007   .     S
Cu194  O218    1.967   .     S
Cu194  Cu33    2.670   1_655 S
H197   C24     1.084   1_655 S
H200   C22     1.084   1_655 S
O214   C2      1.289   1_655 S
O218   C18     1.312   1_655 S
C221   H230    1.108   .     S
C221   C222    1.557   .     S
C221   H229    1.107   .     S
C222   H227    1.101   .     S
C222   C223    1.530   .     S
C222   H228    1.109   .     S
C223   H225    1.109   .     S
C223   H226    1.111   .     S
C223   H224    1.108   .     S
C231   H239    1.107   .     S
C231   H240    1.110   .     S
C231   C232    1.541   .     S
C232   H237    1.112   .     S
C232   H238    1.108   .     S
C232   C233    1.527   .     S
C233   H234    1.111   .     S
C233   H235    1.110   .     S
C233   H236    1.110   .     S
C241   C332    1.449   .     S
C241   O295    1.289   .     A
C241   O373    1.289   .     S
C242   O296    1.289   .     A
C242   C411    1.450   1_455 S
C242   O454    1.289   1_455 S
C243   H281    1.067   .     S
C243   C245    1.391   .     A
C243   C272    1.408   .     A
C244   H282    1.077   .     S
C244   C246    1.385   .     A
C244   C271    1.405   .     A
C245   H275    1.084   .     S
C245   C989    1.391   1_554 S
C246   H276    1.084   .     S
C246   C990    1.396   .     S
C247   C332    1.401   .     A
C247   H283    1.083   .     S
C248   H284    1.083   .     S
C248   C490    1.383   .     S
C248   C411    1.401   1_455 S
C249   H285    1.083   .     S
C249   C251    1.401   .     A
C249   C487    1.383   .     S
C250   H286    1.083   .     S
C250   C252    1.401   .     S
C251   C328    1.401   .     S
C251   C322    1.450   .     S
C252   C401    1.449   1_455 S
C252   C407    1.401   1_455 A
C253   H287    1.079   .     S
C253   N292    1.366   .     A
C253   C255    1.412   .     A
C254   H288    1.081   .     S
C254   N291    1.366   .     A
C254   C256    1.414   .     A
C255   N291    1.366   .     A
C255   H289    1.081   .     S
C256   H290    1.081   .     S
C256   N292    1.366   .     A
C257   O299    1.289   .     A
C257   C259    1.474   .     S
C257   O377    1.298   .     S
C258   C260    1.487   .     S
C258   O300    1.282   .     A
C258   O458    1.312   1_455 S
C259   C263    1.405   .     A
C259   C265    1.420   .     A
C260   C266    1.446   .     A
C260   C264    1.401   .     A
C261   C263    1.396   .     A
C261   C269    1.400   .     A
C261   H279    1.082   .     S
C262   C270    1.394   .     A
C262   C264    1.382   .     A
C262   H440    1.084   1_455 S
C263   H358    1.083   .     S
C264   H437    1.084   1_455 S
C265   C311    1.537   .     S
C265   C267    1.408   .     A
C266   C301    1.545   .     S
C266   C268    1.441   .     A
C267   C269    1.411   .     A
C267   C271    1.422   .     A
C268   C272    1.435   .     A
C268   C270    1.421   .     A
C269   C965    1.391   .     S
C270   C966    1.396   1_554 S
C271   C992    1.418   .     S
C272   C991    1.418   1_554 S
Cu273  O296    1.964   .     S
Cu273  O293    1.965   .     S
Cu273  O300    1.966   .     S
Cu273  O297    1.967   .     S
Cu273  N291    2.007   .     S
Cu273  Cu434   2.670   1_455 S
Cu274  O295    1.964   .     S
Cu274  O294    1.965   .     S
Cu274  O299    1.966   .     S
Cu274  N292    2.007   .     S
Cu274  O298    1.967   .     S
Cu274  Cu353   2.670   .     S
H277   C344    1.084   .     S
H278   C423    1.083   1_455 S
H280   C342    1.084   .     S
O293   C401    1.289   1_455 S
O294   C322    1.289   .     S
O297   C417    1.298   1_455 S
O298   C338    1.312   .     S
C301   H310    1.108   .     S
C301   C302    1.557   .     S
C301   H309    1.107   .     S
C302   H307    1.101   .     S
C302   C303    1.530   .     S
C302   H308    1.109   .     S
C303   H305    1.109   .     S
C303   H306    1.111   .     S
C303   H304    1.108   .     S
C311   H319    1.107   .     S
C311   H320    1.110   .     S
C311   C312    1.541   .     S
C312   H317    1.112   .     S
C312   H318    1.108   .     S
C312   C313    1.527   .     S
C313   H314    1.111   .     S
C313   H315    1.110   .     S
C313   H316    1.110   .     S
C321   C412    1.449   .     S
C321   O375    1.289   .     A
C321   O453    1.289   .     S
C322   O376    1.289   .     A
C323   H361    1.067   .     S
C323   C325    1.391   .     A
C323   C352    1.408   .     A
C324   H362    1.077   .     S
C324   C326    1.385   .     A
C324   C351    1.405   .     A
C325   H355    1.084   .     S
C325   C1069   1.391   1_554 S
C326   H356    1.084   .     S
C326   C1070   1.396   .     S
C327   C412    1.401   .     A
C327   H363    1.083   .     S
C328   H364    1.083   .     S
C328   C570    1.383   .     S
C329   H365    1.083   .     S
C329   C331    1.401   .     A
C329   C567    1.383   .     S
C330   H366    1.083   .     S
C330   C332    1.401   .     S
C331   C408    1.401   .     S
C331   C402    1.450   .     S
C333   H367    1.079   .     S
C333   N372    1.366   .     A
C333   C335    1.412   .     A
C334   H368    1.081   .     S
C334   N371    1.366   .     A
C334   C336    1.414   .     A
C335   N371    1.366   .     A
C335   H369    1.081   .     S
C336   H370    1.081   .     S
C336   N372    1.366   .     A
C337   O379    1.289   .     A
C337   C339    1.474   .     S
C337   O457    1.298   .     S
C338   C340    1.487   .     S
C338   O380    1.282   .     A
C339   C343    1.405   .     A
C339   C345    1.420   .     A
C340   C346    1.446   .     A
C340   C344    1.401   .     A
C341   C343    1.396   .     A
C341   C349    1.400   .     A
C341   H359    1.082   .     S
C342   C350    1.394   .     A
C342   C344    1.382   .     A
C343   H438    1.083   .     S
C345   C391    1.537   .     S
C345   C347    1.408   .     A
C346   C381    1.545   .     S
C346   C348    1.441   .     A
C347   C349    1.411   .     A
C347   C351    1.422   .     A
C348   C352    1.435   .     A
C348   C350    1.421   .     A
C349   C1045   1.391   .     S
C350   C1046   1.396   1_554 S
C351   C1072   1.418   .     S
C352   C1071   1.418   1_554 S
Cu353  O376    1.964   .     S
Cu353  O373    1.965   .     S
Cu353  O380    1.966   .     S
Cu353  O377    1.967   .     S
Cu353  N371    2.007   .     S
Cu354  O375    1.964   .     S
Cu354  O374    1.965   .     S
Cu354  O379    1.966   .     S
Cu354  N372    2.007   .     S
Cu354  O378    1.967   .     S
Cu354  Cu433   2.670   .     S
H357   C424    1.084   .     S
H360   C422    1.084   .     S
O374   C402    1.289   .     S
O378   C418    1.312   .     S
C381   H390    1.108   .     S
C381   C382    1.557   .     S
C381   H389    1.107   .     S
C382   H387    1.101   .     S
C382   C383    1.530   .     S
C382   H388    1.109   .     S
C383   H385    1.109   .     S
C383   H386    1.111   .     S
C383   H384    1.108   .     S
C391   H399    1.107   .     S
C391   H400    1.110   .     S
C391   C392    1.541   .     S
C392   H397    1.112   .     S
C392   H398    1.108   .     S
C392   C393    1.527   .     S
C393   H394    1.111   .     S
C393   H395    1.110   .     S
C393   H396    1.110   .     S
C401   C252    1.449   1_655 S
C401   O455    1.289   .     A
C401   O293    1.289   1_655 S
C402   O456    1.289   .     A
C403   H441    1.067   .     S
C403   C405    1.391   .     A
C403   C432    1.408   .     A
C404   H442    1.077   .     S
C404   C406    1.385   .     A
C404   C431    1.405   .     A
C405   H435    1.084   .     S
C405   C1149   1.391   1_554 S
C406   H436    1.084   .     S
C406   C1150   1.396   .     S
C407   C252    1.401   1_655 A
C407   H443    1.083   .     S
C408   H444    1.083   .     S
C408   C650    1.383   .     S
C409   H445    1.083   .     S
C409   C411    1.401   .     A
C409   C647    1.383   .     S
C410   H446    1.083   .     S
C410   C412    1.401   .     S
C411   C248    1.401   1_655 S
C411   C242    1.450   1_655 S
C413   H447    1.079   .     S
C413   N452    1.366   .     A
C413   C415    1.412   .     A
C414   H448    1.081   .     S
C414   N451    1.366   .     A
C414   C416    1.414   .     A
C415   N451    1.366   .     A
C415   H449    1.081   .     S
C416   H450    1.081   .     S
C416   N452    1.366   .     A
C417   O459    1.289   .     A
C417   C419    1.474   .     S
C417   O297    1.298   1_655 S
C418   C420    1.487   .     S
C418   O460    1.282   .     A
C419   C423    1.405   .     A
C419   C425    1.420   .     A
C420   C426    1.446   .     A
C420   C424    1.401   .     A
C421   C423    1.396   .     A
C421   C429    1.400   .     A
C421   H439    1.082   .     S
C422   C430    1.394   .     A
C422   C424    1.382   .     A
C423   H278    1.083   1_655 S
C425   C471    1.537   .     S
C425   C427    1.408   .     A
C426   C461    1.545   .     S
C426   C428    1.441   .     A
C427   C429    1.411   .     A
C427   C431    1.422   .     A
C428   C432    1.435   .     A
C428   C430    1.421   .     A
C429   C1125   1.391   .     S
C430   C1126   1.396   1_554 S
C431   C1152   1.418   .     S
C432   C1151   1.418   1_554 S
Cu433  O456    1.964   .     S
Cu433  O453    1.965   .     S
Cu433  O460    1.966   .     S
Cu433  O457    1.967   .     S
Cu433  N451    2.007   .     S
Cu434  O455    1.964   .     S
Cu434  O454    1.965   .     S
Cu434  O459    1.966   .     S
Cu434  N452    2.007   .     S
Cu434  O458    1.967   .     S
Cu434  Cu273   2.670   1_655 S
H437   C264    1.084   1_655 S
H440   C262    1.084   1_655 S
O454   C242    1.289   1_655 S
O458   C258    1.312   1_655 S
C461   H470    1.108   .     S
C461   C462    1.557   .     S
C461   H469    1.107   .     S
C462   H467    1.101   .     S
C462   C463    1.530   .     S
C462   H468    1.109   .     S
C463   H465    1.109   .     S
C463   H466    1.111   .     S
C463   H464    1.108   .     S
C471   H479    1.107   .     S
C471   H480    1.110   .     S
C471   C472    1.541   .     S
C472   H477    1.112   .     S
C472   H478    1.108   .     S
C472   C473    1.527   .     S
C473   H474    1.111   .     S
C473   H475    1.110   .     S
C473   H476    1.110   .     S
C481   C572    1.449   .     S
C481   O535    1.289   .     A
C481   O613    1.289   .     S
C482   O536    1.289   .     A
C482   C651    1.450   1_455 S
C482   O694    1.289   1_455 S
C483   H521    1.067   .     S
C483   C485    1.391   .     A
C483   C512    1.408   .     A
C484   H522    1.077   .     S
C484   C486    1.385   .     A
C484   C511    1.405   .     A
C485   H515    1.084   .     S
C485   C1229   1.391   1_554 S
C486   H516    1.084   .     S
C486   C1230   1.396   .     S
C487   C572    1.401   .     A
C487   H523    1.083   .     S
C488   H524    1.083   .     S
C488   C10     1.383   1_565 S
C488   C651    1.401   1_455 S
C489   H525    1.083   .     S
C489   C491    1.401   .     A
C489   C7      1.383   1_565 S
C490   H526    1.083   .     S
C490   C492    1.401   .     S
C491   C568    1.401   .     S
C491   C562    1.450   .     S
C492   C641    1.449   1_455 S
C492   C647    1.401   1_455 A
C493   H527    1.079   .     S
C493   N532    1.366   .     A
C493   C495    1.412   .     A
C494   H528    1.081   .     S
C494   N531    1.366   .     A
C494   C496    1.414   .     A
C495   N531    1.366   .     A
C495   H529    1.081   .     S
C496   H530    1.081   .     S
C496   N532    1.366   .     A
C497   O539    1.289   .     A
C497   C499    1.474   .     S
C497   O617    1.298   .     S
C498   C500    1.487   .     S
C498   O540    1.282   .     A
C498   O698    1.312   1_455 S
C499   C503    1.405   .     A
C499   C505    1.420   .     A
C500   C506    1.446   .     A
C500   C504    1.401   .     A
C501   C503    1.396   .     A
C501   C509    1.400   .     A
C501   H519    1.082   .     S
C502   C510    1.394   .     A
C502   C504    1.382   .     A
C502   H680    1.084   1_455 S
C503   H598    1.083   .     S
C504   H677    1.084   1_455 S
C505   C551    1.537   .     S
C505   C507    1.408   .     A
C506   C541    1.545   .     S
C506   C508    1.441   .     A
C507   C509    1.411   .     A
C507   C511    1.422   .     A
C508   C512    1.435   .     A
C508   C510    1.421   .     A
C509   C1205   1.391   .     S
C510   C1206   1.396   1_554 S
C511   C1232   1.418   .     S
C512   C1231   1.418   1_554 S
Cu513  O536    1.964   .     S
Cu513  O533    1.965   .     S
Cu513  O540    1.966   .     S
Cu513  O537    1.967   .     S
Cu513  N531    2.007   .     S
Cu513  Cu674   2.670   1_455 S
Cu514  O535    1.964   .     S
Cu514  O534    1.965   .     S
Cu514  O539    1.966   .     S
Cu514  N532    2.007   .     S
Cu514  O538    1.967   .     S
Cu514  Cu593   2.670   .     S
H517   C584    1.084   .     S
H518   C663    1.083   1_455 S
H520   C582    1.084   .     S
O533   C641    1.289   1_455 S
O534   C562    1.289   .     S
O537   C657    1.298   1_455 S
O538   C578    1.312   .     S
C541   H550    1.108   .     S
C541   C542    1.557   .     S
C541   H549    1.107   .     S
C542   H547    1.101   .     S
C542   C543    1.530   .     S
C542   H548    1.109   .     S
C543   H545    1.109   .     S
C543   H546    1.111   .     S
C543   H544    1.108   .     S
C551   H559    1.107   .     S
C551   H560    1.110   .     S
C551   C552    1.541   .     S
C552   H557    1.112   .     S
C552   H558    1.108   .     S
C552   C553    1.527   .     S
C553   H554    1.111   .     S
C553   H555    1.110   .     S
C553   H556    1.110   .     S
C561   C652    1.449   .     S
C561   O615    1.289   .     A
C561   O693    1.289   .     S
C562   O616    1.289   .     A
C563   H601    1.067   .     S
C563   C565    1.391   .     A
C563   C592    1.408   .     A
C564   H602    1.077   .     S
C564   C566    1.385   .     A
C564   C591    1.405   .     A
C565   H595    1.084   .     S
C565   C1309   1.391   1_554 S
C566   H596    1.084   .     S
C566   C1310   1.396   .     S
C567   C652    1.401   .     A
C567   H603    1.083   .     S
C568   H604    1.083   .     S
C568   C90     1.383   1_565 S
C569   H605    1.083   .     S
C569   C571    1.401   .     A
C569   C87     1.383   1_565 S
C570   H606    1.083   .     S
C570   C572    1.401   .     S
C571   C648    1.401   .     S
C571   C642    1.450   .     S
C573   H607    1.079   .     S
C573   N612    1.366   .     A
C573   C575    1.412   .     A
C574   H608    1.081   .     S
C574   N611    1.366   .     A
C574   C576    1.414   .     A
C575   N611    1.366   .     A
C575   H609    1.081   .     S
C576   H610    1.081   .     S
C576   N612    1.366   .     A
C577   O619    1.289   .     A
C577   C579    1.474   .     S
C577   O697    1.298   .     S
C578   C580    1.487   .     S
C578   O620    1.282   .     A
C579   C583    1.405   .     A
C579   C585    1.420   .     A
C580   C586    1.446   .     A
C580   C584    1.401   .     A
C581   C583    1.396   .     A
C581   C589    1.400   .     A
C581   H599    1.082   .     S
C582   C590    1.394   .     A
C582   C584    1.382   .     A
C583   H678    1.083   .     S
C585   C631    1.537   .     S
C585   C587    1.408   .     A
C586   C621    1.545   .     S
C586   C588    1.441   .     A
C587   C589    1.411   .     A
C587   C591    1.422   .     A
C588   C592    1.435   .     A
C588   C590    1.421   .     A
C589   C1285   1.391   .     S
C590   C1286   1.396   1_554 S
C591   C1312   1.418   .     S
C592   C1311   1.418   1_554 S
Cu593  O616    1.964   .     S
Cu593  O613    1.965   .     S
Cu593  O620    1.966   .     S
Cu593  O617    1.967   .     S
Cu593  N611    2.007   .     S
Cu594  O615    1.964   .     S
Cu594  O614    1.965   .     S
Cu594  O619    1.966   .     S
Cu594  N612    2.007   .     S
Cu594  O618    1.967   .     S
Cu594  Cu673   2.670   .     S
H597   C664    1.084   .     S
H600   C662    1.084   .     S
O614   C642    1.289   .     S
O618   C658    1.312   .     S
C621   H630    1.108   .     S
C621   C622    1.557   .     S
C621   H629    1.107   .     S
C622   H627    1.101   .     S
C622   C623    1.530   .     S
C622   H628    1.109   .     S
C623   H625    1.109   .     S
C623   H626    1.111   .     S
C623   H624    1.108   .     S
C631   H639    1.107   .     S
C631   H640    1.110   .     S
C631   C632    1.541   .     S
C632   H637    1.112   .     S
C632   H638    1.108   .     S
C632   C633    1.527   .     S
C633   H634    1.111   .     S
C633   H635    1.110   .     S
C633   H636    1.110   .     S
C641   C492    1.449   1_655 S
C641   O695    1.289   .     A
C641   O533    1.289   1_655 S
C642   O696    1.289   .     A
C643   H681    1.067   .     S
C643   C645    1.391   .     A
C643   C672    1.408   .     A
C644   H682    1.077   .     S
C644   C646    1.385   .     A
C644   C671    1.405   .     A
C645   H675    1.084   .     S
C645   C1389   1.391   1_554 S
C646   H676    1.084   .     S
C646   C1390   1.396   .     S
C647   C492    1.401   1_655 A
C647   H683    1.083   .     S
C648   H684    1.083   .     S
C648   C170    1.383   1_565 S
C649   H685    1.083   .     S
C649   C651    1.401   .     A
C649   C167    1.383   1_565 S
C650   H686    1.083   .     S
C650   C652    1.401   .     S
C651   C488    1.401   1_655 S
C651   C482    1.450   1_655 S
C653   H687    1.079   .     S
C653   N692    1.366   .     A
C653   C655    1.412   .     A
C654   H688    1.081   .     S
C654   N691    1.366   .     A
C654   C656    1.414   .     A
C655   N691    1.366   .     A
C655   H689    1.081   .     S
C656   H690    1.081   .     S
C656   N692    1.366   .     A
C657   O699    1.289   .     A
C657   C659    1.474   .     S
C657   O537    1.298   1_655 S
C658   C660    1.487   .     S
C658   O700    1.282   .     A
C659   C663    1.405   .     A
C659   C665    1.420   .     A
C660   C666    1.446   .     A
C660   C664    1.401   .     A
C661   C663    1.396   .     A
C661   C669    1.400   .     A
C661   H679    1.082   .     S
C662   C670    1.394   .     A
C662   C664    1.382   .     A
C663   H518    1.083   1_655 S
C665   C711    1.537   .     S
C665   C667    1.408   .     A
C666   C701    1.545   .     S
C666   C668    1.441   .     A
C667   C669    1.411   .     A
C667   C671    1.422   .     A
C668   C672    1.435   .     A
C668   C670    1.421   .     A
C669   C1365   1.391   .     S
C670   C1366   1.396   1_554 S
C671   C1392   1.418   .     S
C672   C1391   1.418   1_554 S
Cu673  O696    1.964   .     S
Cu673  O693    1.965   .     S
Cu673  O700    1.966   .     S
Cu673  O697    1.967   .     S
Cu673  N691    2.007   .     S
Cu674  O695    1.964   .     S
Cu674  O694    1.965   .     S
Cu674  O699    1.966   .     S
Cu674  N692    2.007   .     S
Cu674  O698    1.967   .     S
Cu674  Cu513   2.670   1_655 S
H677   C504    1.084   1_655 S
H680   C502    1.084   1_655 S
O694   C482    1.289   1_655 S
O698   C498    1.312   1_655 S
C701   H710    1.108   .     S
C701   C702    1.557   .     S
C701   H709    1.107   .     S
C702   H707    1.101   .     S
C702   C703    1.530   .     S
C702   H708    1.109   .     S
C703   H705    1.109   .     S
C703   H706    1.111   .     S
C703   H704    1.108   .     S
C711   H719    1.107   .     S
C711   H720    1.110   .     S
C711   C712    1.541   .     S
C712   H717    1.112   .     S
C712   H718    1.108   .     S
C712   C713    1.527   .     S
C713   H714    1.111   .     S
C713   H715    1.110   .     S
C713   H716    1.110   .     S
C721   C812    1.449   .     S
C721   O775    1.289   .     A
C721   O853    1.289   .     S
C722   O776    1.289   .     A
C722   C891    1.450   1_455 S
C722   O934    1.289   1_455 S
C723   H761    1.067   .     S
C723   C725    1.391   .     A
C723   C752    1.408   .     A
C724   H762    1.077   .     S
C724   C726    1.385   .     A
C724   C751    1.405   .     A
C725   H755    1.084   .     S
C726   H756    1.084   .     S
C726   C30     1.396   1_556 S
C727   C812    1.401   .     A
C727   H763    1.083   .     S
C727   C1209   1.383   1_545 S
C728   H764    1.083   .     S
C728   C970    1.383   .     S
C728   C891    1.401   1_455 S
C729   H765    1.083   .     S
C729   C731    1.401   .     A
C729   C967    1.383   .     S
C730   H766    1.083   .     S
C730   C1208   1.383   1_545 S
C730   C732    1.401   .     S
C731   C808    1.401   .     S
C731   C802    1.450   .     S
C732   C881    1.449   1_455 S
C732   C887    1.401   1_455 A
C733   H767    1.079   .     S
C733   N772    1.366   .     A
C733   C735    1.412   .     A
C734   H768    1.081   .     S
C734   N771    1.366   .     A
C734   C736    1.414   .     A
C735   N771    1.366   .     A
C735   H769    1.081   .     S
C736   H770    1.081   .     S
C736   N772    1.366   .     A
C737   O779    1.289   .     A
C737   C739    1.474   .     S
C737   O857    1.298   .     S
C738   C740    1.487   .     S
C738   O780    1.282   .     A
C738   O938    1.312   1_455 S
C739   C743    1.405   .     A
C739   C745    1.420   .     A
C740   C746    1.446   .     A
C740   C744    1.401   .     A
C741   C743    1.396   .     A
C741   C749    1.400   .     A
C741   H759    1.082   .     S
C742   C750    1.394   .     A
C742   C744    1.382   .     A
C742   H920    1.084   1_455 S
C743   H838    1.083   .     S
C744   H917    1.084   1_455 S
C745   C791    1.537   .     S
C745   C747    1.408   .     A
C746   C781    1.545   .     S
C746   C748    1.441   .     A
C747   C749    1.411   .     A
C747   C751    1.422   .     A
C748   C752    1.435   .     A
C748   C750    1.421   .     A
C749   C5      1.391   1_556 S
C751   C32     1.418   1_556 S
Cu753  O776    1.964   .     S
Cu753  O773    1.965   .     S
Cu753  O780    1.966   .     S
Cu753  O777    1.967   .     S
Cu753  N771    2.007   .     S
Cu753  Cu914   2.670   1_455 S
Cu754  O775    1.964   .     S
Cu754  O774    1.965   .     S
Cu754  O779    1.966   .     S
Cu754  N772    2.007   .     S
Cu754  O778    1.967   .     S
Cu754  Cu833   2.670   .     S
H757   C824    1.084   .     S
H758   C903    1.083   1_455 S
H760   C822    1.084   .     S
O773   C881    1.289   1_455 S
O774   C802    1.289   .     S
O777   C897    1.298   1_455 S
O778   C818    1.312   .     S
C781   H790    1.108   .     S
C781   C782    1.557   .     S
C781   H789    1.107   .     S
C782   H787    1.101   .     S
C782   C783    1.530   .     S
C782   H788    1.109   .     S
C783   H785    1.109   .     S
C783   H786    1.111   .     S
C783   H784    1.108   .     S
C791   H799    1.107   .     S
C791   H800    1.110   .     S
C791   C792    1.541   .     S
C792   H797    1.112   .     S
C792   H798    1.108   .     S
C792   C793    1.527   .     S
C793   H794    1.111   .     S
C793   H795    1.110   .     S
C793   H796    1.110   .     S
C801   C892    1.449   .     S
C801   O855    1.289   .     A
C801   O933    1.289   .     S
C802   O856    1.289   .     A
C803   H841    1.067   .     S
C803   C805    1.391   .     A
C803   C832    1.408   .     A
C804   H842    1.077   .     S
C804   C806    1.385   .     A
C804   C831    1.405   .     A
C805   H835    1.084   .     S
C806   H836    1.084   .     S
C806   C110    1.396   1_556 S
C807   C892    1.401   .     A
C807   H843    1.083   .     S
C807   C1289   1.383   1_545 S
C808   H844    1.083   .     S
C808   C1050   1.383   .     S
C809   H845    1.083   .     S
C809   C811    1.401   .     A
C809   C1047   1.383   .     S
C810   H846    1.083   .     S
C810   C1288   1.383   1_545 S
C810   C812    1.401   .     S
C811   C888    1.401   .     S
C811   C882    1.450   .     S
C813   H847    1.079   .     S
C813   N852    1.366   .     A
C813   C815    1.412   .     A
C814   H848    1.081   .     S
C814   N851    1.366   .     A
C814   C816    1.414   .     A
C815   N851    1.366   .     A
C815   H849    1.081   .     S
C816   H850    1.081   .     S
C816   N852    1.366   .     A
C817   O859    1.289   .     A
C817   C819    1.474   .     S
C817   O937    1.298   .     S
C818   C820    1.487   .     S
C818   O860    1.282   .     A
C819   C823    1.405   .     A
C819   C825    1.420   .     A
C820   C826    1.446   .     A
C820   C824    1.401   .     A
C821   C823    1.396   .     A
C821   C829    1.400   .     A
C821   H839    1.082   .     S
C822   C830    1.394   .     A
C822   C824    1.382   .     A
C823   H918    1.083   .     S
C825   C871    1.537   .     S
C825   C827    1.408   .     A
C826   C861    1.545   .     S
C826   C828    1.441   .     A
C827   C829    1.411   .     A
C827   C831    1.422   .     A
C828   C832    1.435   .     A
C828   C830    1.421   .     A
C829   C85     1.391   1_556 S
C831   C112    1.418   1_556 S
Cu833  O856    1.964   .     S
Cu833  O853    1.965   .     S
Cu833  O860    1.966   .     S
Cu833  O857    1.967   .     S
Cu833  N851    2.007   .     S
Cu834  O855    1.964   .     S
Cu834  O854    1.965   .     S
Cu834  O859    1.966   .     S
Cu834  N852    2.007   .     S
Cu834  O858    1.967   .     S
Cu834  Cu913   2.670   .     S
H837   C904    1.084   .     S
H840   C902    1.084   .     S
O854   C882    1.289   .     S
O858   C898    1.312   .     S
C861   H870    1.108   .     S
C861   C862    1.557   .     S
C861   H869    1.107   .     S
C862   H867    1.101   .     S
C862   C863    1.530   .     S
C862   H868    1.109   .     S
C863   H865    1.109   .     S
C863   H866    1.111   .     S
C863   H864    1.108   .     S
C871   H879    1.107   .     S
C871   H880    1.110   .     S
C871   C872    1.541   .     S
C872   H877    1.112   .     S
C872   H878    1.108   .     S
C872   C873    1.527   .     S
C873   H874    1.111   .     S
C873   H875    1.110   .     S
C873   H876    1.110   .     S
C881   C732    1.449   1_655 S
C881   O935    1.289   .     A
C881   O773    1.289   1_655 S
C882   O936    1.289   .     A
C883   H921    1.067   .     S
C883   C885    1.391   .     A
C883   C912    1.408   .     A
C884   H922    1.077   .     S
C884   C886    1.385   .     A
C884   C911    1.405   .     A
C885   H915    1.084   .     S
C886   H916    1.084   .     S
C886   C190    1.396   1_556 S
C887   C732    1.401   1_655 A
C887   H923    1.083   .     S
C887   C1369   1.383   1_545 S
C888   H924    1.083   .     S
C888   C1130   1.383   .     S
C889   H925    1.083   .     S
C889   C891    1.401   .     A
C889   C1127   1.383   .     S
C890   H926    1.083   .     S
C890   C1368   1.383   1_545 S
C890   C892    1.401   .     S
C891   C728    1.401   1_655 S
C891   C722    1.450   1_655 S
C893   H927    1.079   .     S
C893   N932    1.366   .     A
C893   C895    1.412   .     A
C894   H928    1.081   .     S
C894   N931    1.366   .     A
C894   C896    1.414   .     A
C895   N931    1.366   .     A
C895   H929    1.081   .     S
C896   H930    1.081   .     S
C896   N932    1.366   .     A
C897   O939    1.289   .     A
C897   C899    1.474   .     S
C897   O777    1.298   1_655 S
C898   C900    1.487   .     S
C898   O940    1.282   .     A
C899   C903    1.405   .     A
C899   C905    1.420   .     A
C900   C906    1.446   .     A
C900   C904    1.401   .     A
C901   C903    1.396   .     A
C901   C909    1.400   .     A
C901   H919    1.082   .     S
C902   C910    1.394   .     A
C902   C904    1.382   .     A
C903   H758    1.083   1_655 S
C905   C951    1.537   .     S
C905   C907    1.408   .     A
C906   C941    1.545   .     S
C906   C908    1.441   .     A
C907   C909    1.411   .     A
C907   C911    1.422   .     A
C908   C912    1.435   .     A
C908   C910    1.421   .     A
C909   C165    1.391   1_556 S
C911   C192    1.418   1_556 S
Cu913  O936    1.964   .     S
Cu913  O933    1.965   .     S
Cu913  O940    1.966   .     S
Cu913  O937    1.967   .     S
Cu913  N931    2.007   .     S
Cu914  O935    1.964   .     S
Cu914  O934    1.965   .     S
Cu914  O939    1.966   .     S
Cu914  N932    2.007   .     S
Cu914  O938    1.967   .     S
Cu914  Cu753   2.670   1_655 S
H917   C744    1.084   1_655 S
H920   C742    1.084   1_655 S
O934   C722    1.289   1_655 S
O938   C738    1.312   1_655 S
C941   H950    1.108   .     S
C941   C942    1.557   .     S
C941   H949    1.107   .     S
C942   H947    1.101   .     S
C942   C943    1.530   .     S
C942   H948    1.109   .     S
C943   H945    1.109   .     S
C943   H946    1.111   .     S
C943   H944    1.108   .     S
C951   H959    1.107   .     S
C951   H960    1.110   .     S
C951   C952    1.541   .     S
C952   H957    1.112   .     S
C952   H958    1.108   .     S
C952   C953    1.527   .     S
C953   H954    1.111   .     S
C953   H955    1.110   .     S
C953   H956    1.110   .     S
C961   C1052   1.449   .     S
C961   O1015   1.289   .     A
C961   O1093   1.289   .     S
C962   O1016   1.289   .     A
C962   C1131   1.450   1_455 S
C962   O1174   1.289   1_455 S
C963   H1001   1.067   .     S
C963   C965    1.391   .     A
C963   C992    1.408   .     A
C964   H1002   1.077   .     S
C964   C966    1.385   .     A
C964   C991    1.405   .     A
C965   H995    1.084   .     S
C966   H996    1.084   .     S
C966   C270    1.396   1_556 S
C967   C1052   1.401   .     A
C967   H1003   1.083   .     S
C968   H1004   1.083   .     S
C968   C1210   1.383   .     S
C968   C1131   1.401   1_455 S
C969   H1005   1.083   .     S
C969   C971    1.401   .     A
C969   C1207   1.383   .     S
C970   H1006   1.083   .     S
C970   C972    1.401   .     S
C971   C1048   1.401   .     S
C971   C1042   1.450   .     S
C972   C1121   1.449   1_455 S
C972   C1127   1.401   1_455 A
C973   H1007   1.079   .     S
C973   N1012   1.366   .     A
C973   C975    1.412   .     A
C974   H1008   1.081   .     S
C974   N1011   1.366   .     A
C974   C976    1.414   .     A
C975   N1011   1.366   .     A
C975   H1009   1.081   .     S
C976   H1010   1.081   .     S
C976   N1012   1.366   .     A
C977   O1019   1.289   .     A
C977   C979    1.474   .     S
C977   O1097   1.298   .     S
C978   C980    1.487   .     S
C978   O1020   1.282   .     A
C978   O1178   1.312   1_455 S
C979   C983    1.405   .     A
C979   C985    1.420   .     A
C980   C986    1.446   .     A
C980   C984    1.401   .     A
C981   C983    1.396   .     A
C981   C989    1.400   .     A
C981   H999    1.082   .     S
C982   C990    1.394   .     A
C982   C984    1.382   .     A
C982   H1160   1.084   1_455 S
C983   H1078   1.083   .     S
C984   H1157   1.084   1_455 S
C985   C1031   1.537   .     S
C985   C987    1.408   .     A
C986   C1021   1.545   .     S
C986   C988    1.441   .     A
C987   C989    1.411   .     A
C987   C991    1.422   .     A
C988   C992    1.435   .     A
C988   C990    1.421   .     A
C989   C245    1.391   1_556 S
C991   C272    1.418   1_556 S
Cu993  O1016   1.964   .     S
Cu993  O1013   1.965   .     S
Cu993  O1020   1.966   .     S
Cu993  O1017   1.967   .     S
Cu993  N1011   2.007   .     S
Cu993  Cu1154  2.670   1_455 S
Cu994  O1015   1.964   .     S
Cu994  O1014   1.965   .     S
Cu994  O1019   1.966   .     S
Cu994  N1012   2.007   .     S
Cu994  O1018   1.967   .     S
Cu994  Cu1073  2.670   .     S
H997   C1064   1.084   .     S
H998   C1143   1.083   1_455 S
H1000  C1062   1.084   .     S
O1013  C1121   1.289   1_455 S
O1014  C1042   1.289   .     S
O1017  C1137   1.298   1_455 S
O1018  C1058   1.312   .     S
C1021  H1030   1.108   .     S
C1021  C1022   1.557   .     S
C1021  H1029   1.107   .     S
C1022  H1027   1.101   .     S
C1022  C1023   1.530   .     S
C1022  H1028   1.109   .     S
C1023  H1025   1.109   .     S
C1023  H1026   1.111   .     S
C1023  H1024   1.108   .     S
C1031  H1039   1.107   .     S
C1031  H1040   1.110   .     S
C1031  C1032   1.541   .     S
C1032  H1037   1.112   .     S
C1032  H1038   1.108   .     S
C1032  C1033   1.527   .     S
C1033  H1034   1.111   .     S
C1033  H1035   1.110   .     S
C1033  H1036   1.110   .     S
C1041  C1132   1.449   .     S
C1041  O1095   1.289   .     A
C1041  O1173   1.289   .     S
C1042  O1096   1.289   .     A
C1043  H1081   1.067   .     S
C1043  C1045   1.391   .     A
C1043  C1072   1.408   .     A
C1044  H1082   1.077   .     S
C1044  C1046   1.385   .     A
C1044  C1071   1.405   .     A
C1045  H1075   1.084   .     S
C1046  H1076   1.084   .     S
C1046  C350    1.396   1_556 S
C1047  C1132   1.401   .     A
C1047  H1083   1.083   .     S
C1048  H1084   1.083   .     S
C1048  C1290   1.383   .     S
C1049  H1085   1.083   .     S
C1049  C1051   1.401   .     A
C1049  C1287   1.383   .     S
C1050  H1086   1.083   .     S
C1050  C1052   1.401   .     S
C1051  C1128   1.401   .     S
C1051  C1122   1.450   .     S
C1053  H1087   1.079   .     S
C1053  N1092   1.366   .     A
C1053  C1055   1.412   .     A
C1054  H1088   1.081   .     S
C1054  N1091   1.366   .     A
C1054  C1056   1.414   .     A
C1055  N1091   1.366   .     A
C1055  H1089   1.081   .     S
C1056  H1090   1.081   .     S
C1056  N1092   1.366   .     A
C1057  O1099   1.289   .     A
C1057  C1059   1.474   .     S
C1057  O1177   1.298   .     S
C1058  C1060   1.487   .     S
C1058  O1100   1.282   .     A
C1059  C1063   1.405   .     A
C1059  C1065   1.420   .     A
C1060  C1066   1.446   .     A
C1060  C1064   1.401   .     A
C1061  C1063   1.396   .     A
C1061  C1069   1.400   .     A
C1061  H1079   1.082   .     S
C1062  C1070   1.394   .     A
C1062  C1064   1.382   .     A
C1063  H1158   1.083   .     S
C1065  C1111   1.537   .     S
C1065  C1067   1.408   .     A
C1066  C1101   1.545   .     S
C1066  C1068   1.441   .     A
C1067  C1069   1.411   .     A
C1067  C1071   1.422   .     A
C1068  C1072   1.435   .     A
C1068  C1070   1.421   .     A
C1069  C325    1.391   1_556 S
C1071  C352    1.418   1_556 S
Cu1073 O1096   1.964   .     S
Cu1073 O1093   1.965   .     S
Cu1073 O1100   1.966   .     S
Cu1073 O1097   1.967   .     S
Cu1073 N1091   2.007   .     S
Cu1074 O1095   1.964   .     S
Cu1074 O1094   1.965   .     S
Cu1074 O1099   1.966   .     S
Cu1074 N1092   2.007   .     S
Cu1074 O1098   1.967   .     S
Cu1074 Cu1153  2.670   .     S
H1077  C1144   1.084   .     S
H1080  C1142   1.084   .     S
O1094  C1122   1.289   .     S
O1098  C1138   1.312   .     S
C1101  H1110   1.108   .     S
C1101  C1102   1.557   .     S
C1101  H1109   1.107   .     S
C1102  H1107   1.101   .     S
C1102  C1103   1.530   .     S
C1102  H1108   1.109   .     S
C1103  H1105   1.109   .     S
C1103  H1106   1.111   .     S
C1103  H1104   1.108   .     S
C1111  H1119   1.107   .     S
C1111  H1120   1.110   .     S
C1111  C1112   1.541   .     S
C1112  H1117   1.112   .     S
C1112  H1118   1.108   .     S
C1112  C1113   1.527   .     S
C1113  H1114   1.111   .     S
C1113  H1115   1.110   .     S
C1113  H1116   1.110   .     S
C1121  C972    1.449   1_655 S
C1121  O1175   1.289   .     A
C1121  O1013   1.289   1_655 S
C1122  O1176   1.289   .     A
C1123  H1161   1.067   .     S
C1123  C1125   1.391   .     A
C1123  C1152   1.408   .     A
C1124  H1162   1.077   .     S
C1124  C1126   1.385   .     A
C1124  C1151   1.405   .     A
C1125  H1155   1.084   .     S
C1126  H1156   1.084   .     S
C1126  C430    1.396   1_556 S
C1127  C972    1.401   1_655 A
C1127  H1163   1.083   .     S
C1128  H1164   1.083   .     S
C1128  C1370   1.383   .     S
C1129  H1165   1.083   .     S
C1129  C1131   1.401   .     A
C1129  C1367   1.383   .     S
C1130  H1166   1.083   .     S
C1130  C1132   1.401   .     S
C1131  C968    1.401   1_655 S
C1131  C962    1.450   1_655 S
C1133  H1167   1.079   .     S
C1133  N1172   1.366   .     A
C1133  C1135   1.412   .     A
C1134  H1168   1.081   .     S
C1134  N1171   1.366   .     A
C1134  C1136   1.414   .     A
C1135  N1171   1.366   .     A
C1135  H1169   1.081   .     S
C1136  H1170   1.081   .     S
C1136  N1172   1.366   .     A
C1137  O1179   1.289   .     A
C1137  C1139   1.474   .     S
C1137  O1017   1.298   1_655 S
C1138  C1140   1.487   .     S
C1138  O1180   1.282   .     A
C1139  C1143   1.405   .     A
C1139  C1145   1.420   .     A
C1140  C1146   1.446   .     A
C1140  C1144   1.401   .     A
C1141  C1143   1.396   .     A
C1141  C1149   1.400   .     A
C1141  H1159   1.082   .     S
C1142  C1150   1.394   .     A
C1142  C1144   1.382   .     A
C1143  H998    1.083   1_655 S
C1145  C1191   1.537   .     S
C1145  C1147   1.408   .     A
C1146  C1181   1.545   .     S
C1146  C1148   1.441   .     A
C1147  C1149   1.411   .     A
C1147  C1151   1.422   .     A
C1148  C1152   1.435   .     A
C1148  C1150   1.421   .     A
C1149  C405    1.391   1_556 S
C1151  C432    1.418   1_556 S
Cu1153 O1176   1.964   .     S
Cu1153 O1173   1.965   .     S
Cu1153 O1180   1.966   .     S
Cu1153 O1177   1.967   .     S
Cu1153 N1171   2.007   .     S
Cu1154 O1175   1.964   .     S
Cu1154 O1174   1.965   .     S
Cu1154 O1179   1.966   .     S
Cu1154 N1172   2.007   .     S
Cu1154 O1178   1.967   .     S
Cu1154 Cu993   2.670   1_655 S
H1157  C984    1.084   1_655 S
H1160  C982    1.084   1_655 S
O1174  C962    1.289   1_655 S
O1178  C978    1.312   1_655 S
C1181  H1190   1.108   .     S
C1181  C1182   1.557   .     S
C1181  H1189   1.107   .     S
C1182  H1187   1.101   .     S
C1182  C1183   1.530   .     S
C1182  H1188   1.109   .     S
C1183  H1185   1.109   .     S
C1183  H1186   1.111   .     S
C1183  H1184   1.108   .     S
C1191  H1199   1.107   .     S
C1191  H1200   1.110   .     S
C1191  C1192   1.541   .     S
C1192  H1197   1.112   .     S
C1192  H1198   1.108   .     S
C1192  C1193   1.527   .     S
C1193  H1194   1.111   .     S
C1193  H1195   1.110   .     S
C1193  H1196   1.110   .     S
C1201  C1292   1.449   .     S
C1201  O1255   1.289   .     A
C1201  O1333   1.289   .     S
C1202  O1256   1.289   .     A
C1202  C1371   1.450   1_455 S
C1202  O1414   1.289   1_455 S
C1203  H1241   1.067   .     S
C1203  C1205   1.391   .     A
C1203  C1232   1.408   .     A
C1204  H1242   1.077   .     S
C1204  C1206   1.385   .     A
C1204  C1231   1.405   .     A
C1205  H1235   1.084   .     S
C1206  H1236   1.084   .     S
C1206  C510    1.396   1_556 S
C1207  C1292   1.401   .     A
C1207  H1243   1.083   .     S
C1208  H1244   1.083   .     S
C1208  C730    1.383   1_565 S
C1208  C1371   1.401   1_455 S
C1209  H1245   1.083   .     S
C1209  C1211   1.401   .     A
C1209  C727    1.383   1_565 S
C1210  H1246   1.083   .     S
C1210  C1212   1.401   .     S
C1211  C1288   1.401   .     S
C1211  C1282   1.450   .     S
C1212  C1361   1.449   1_455 S
C1212  C1367   1.401   1_455 A
C1213  H1247   1.079   .     S
C1213  N1252   1.366   .     A
C1213  C1215   1.412   .     A
C1214  H1248   1.081   .     S
C1214  N1251   1.366   .     A
C1214  C1216   1.414   .     A
C1215  N1251   1.366   .     A
C1215  H1249   1.081   .     S
C1216  H1250   1.081   .     S
C1216  N1252   1.366   .     A
C1217  O1259   1.289   .     A
C1217  C1219   1.474   .     S
C1217  O1337   1.298   .     S
C1218  C1220   1.487   .     S
C1218  O1260   1.282   .     A
C1218  O1418   1.312   1_455 S
C1219  C1223   1.405   .     A
C1219  C1225   1.420   .     A
C1220  C1226   1.446   .     A
C1220  C1224   1.401   .     A
C1221  C1223   1.396   .     A
C1221  C1229   1.400   .     A
C1221  H1239   1.082   .     S
C1222  C1230   1.394   .     A
C1222  C1224   1.382   .     A
C1222  H1400   1.084   1_455 S
C1223  H1318   1.083   .     S
C1224  H1397   1.084   1_455 S
C1225  C1271   1.537   .     S
C1225  C1227   1.408   .     A
C1226  C1261   1.545   .     S
C1226  C1228   1.441   .     A
C1227  C1229   1.411   .     A
C1227  C1231   1.422   .     A
C1228  C1232   1.435   .     A
C1228  C1230   1.421   .     A
C1229  C485    1.391   1_556 S
C1231  C512    1.418   1_556 S
Cu1233 O1256   1.964   .     S
Cu1233 O1253   1.965   .     S
Cu1233 O1260   1.966   .     S
Cu1233 O1257   1.967   .     S
Cu1233 N1251   2.007   .     S
Cu1233 Cu1394  2.670   1_455 S
Cu1234 O1255   1.964   .     S
Cu1234 O1254   1.965   .     S
Cu1234 O1259   1.966   .     S
Cu1234 N1252   2.007   .     S
Cu1234 O1258   1.967   .     S
Cu1234 Cu1313  2.670   .     S
H1237  C1304   1.084   .     S
H1238  C1383   1.083   1_455 S
H1240  C1302   1.084   .     S
O1253  C1361   1.289   1_455 S
O1254  C1282   1.289   .     S
O1257  C1377   1.298   1_455 S
O1258  C1298   1.312   .     S
C1261  H1270   1.108   .     S
C1261  C1262   1.557   .     S
C1261  H1269   1.107   .     S
C1262  H1267   1.101   .     S
C1262  C1263   1.530   .     S
C1262  H1268   1.109   .     S
C1263  H1265   1.109   .     S
C1263  H1266   1.111   .     S
C1263  H1264   1.108   .     S
C1271  H1279   1.107   .     S
C1271  H1280   1.110   .     S
C1271  C1272   1.541   .     S
C1272  H1277   1.112   .     S
C1272  H1278   1.108   .     S
C1272  C1273   1.527   .     S
C1273  H1274   1.111   .     S
C1273  H1275   1.110   .     S
C1273  H1276   1.110   .     S
C1281  C1372   1.449   .     S
C1281  O1335   1.289   .     A
C1281  O1413   1.289   .     S
C1282  O1336   1.289   .     A
C1283  H1321   1.067   .     S
C1283  C1285   1.391   .     A
C1283  C1312   1.408   .     A
C1284  H1322   1.077   .     S
C1284  C1286   1.385   .     A
C1284  C1311   1.405   .     A
C1285  H1315   1.084   .     S
C1286  H1316   1.084   .     S
C1286  C590    1.396   1_556 S
C1287  C1372   1.401   .     A
C1287  H1323   1.083   .     S
C1288  H1324   1.083   .     S
C1288  C810    1.383   1_565 S
C1289  H1325   1.083   .     S
C1289  C1291   1.401   .     A
C1289  C807    1.383   1_565 S
C1290  H1326   1.083   .     S
C1290  C1292   1.401   .     S
C1291  C1368   1.401   .     S
C1291  C1362   1.450   .     S
C1293  H1327   1.079   .     S
C1293  N1332   1.366   .     A
C1293  C1295   1.412   .     A
C1294  H1328   1.081   .     S
C1294  N1331   1.366   .     A
C1294  C1296   1.414   .     A
C1295  N1331   1.366   .     A
C1295  H1329   1.081   .     S
C1296  H1330   1.081   .     S
C1296  N1332   1.366   .     A
C1297  O1339   1.289   .     A
C1297  C1299   1.474   .     S
C1297  O1417   1.298   .     S
C1298  C1300   1.487   .     S
C1298  O1340   1.282   .     A
C1299  C1303   1.405   .     A
C1299  C1305   1.420   .     A
C1300  C1306   1.446   .     A
C1300  C1304   1.401   .     A
C1301  C1303   1.396   .     A
C1301  C1309   1.400   .     A
C1301  H1319   1.082   .     S
C1302  C1310   1.394   .     A
C1302  C1304   1.382   .     A
C1303  H1398   1.083   .     S
C1305  C1351   1.537   .     S
C1305  C1307   1.408   .     A
C1306  C1341   1.545   .     S
C1306  C1308   1.441   .     A
C1307  C1309   1.411   .     A
C1307  C1311   1.422   .     A
C1308  C1312   1.435   .     A
C1308  C1310   1.421   .     A
C1309  C565    1.391   1_556 S
C1311  C592    1.418   1_556 S
Cu1313 O1336   1.964   .     S
Cu1313 O1333   1.965   .     S
Cu1313 O1340   1.966   .     S
Cu1313 O1337   1.967   .     S
Cu1313 N1331   2.007   .     S
Cu1314 O1335   1.964   .     S
Cu1314 O1334   1.965   .     S
Cu1314 O1339   1.966   .     S
Cu1314 N1332   2.007   .     S
Cu1314 O1338   1.967   .     S
Cu1314 Cu1393  2.670   .     S
H1317  C1384   1.084   .     S
H1320  C1382   1.084   .     S
O1334  C1362   1.289   .     S
O1338  C1378   1.312   .     S
C1341  H1350   1.108   .     S
C1341  C1342   1.557   .     S
C1341  H1349   1.107   .     S
C1342  H1347   1.101   .     S
C1342  C1343   1.530   .     S
C1342  H1348   1.109   .     S
C1343  H1345   1.109   .     S
C1343  H1346   1.111   .     S
C1343  H1344   1.108   .     S
C1351  H1359   1.107   .     S
C1351  H1360   1.110   .     S
C1351  C1352   1.541   .     S
C1352  H1357   1.112   .     S
C1352  H1358   1.108   .     S
C1352  C1353   1.527   .     S
C1353  H1354   1.111   .     S
C1353  H1355   1.110   .     S
C1353  H1356   1.110   .     S
C1361  C1212   1.449   1_655 S
C1361  O1415   1.289   .     A
C1361  O1253   1.289   1_655 S
C1362  O1416   1.289   .     A
C1363  H1401   1.067   .     S
C1363  C1365   1.391   .     A
C1363  C1392   1.408   .     A
C1364  H1402   1.077   .     S
C1364  C1366   1.385   .     A
C1364  C1391   1.405   .     A
C1365  H1395   1.084   .     S
C1366  H1396   1.084   .     S
C1366  C670    1.396   1_556 S
C1367  C1212   1.401   1_655 A
C1367  H1403   1.083   .     S
C1368  H1404   1.083   .     S
C1368  C890    1.383   1_565 S
C1369  H1405   1.083   .     S
C1369  C1371   1.401   .     A
C1369  C887    1.383   1_565 S
C1370  H1406   1.083   .     S
C1370  C1372   1.401   .     S
C1371  C1208   1.401   1_655 S
C1371  C1202   1.450   1_655 S
C1373  H1407   1.079   .     S
C1373  N1412   1.366   .     A
C1373  C1375   1.412   .     A
C1374  H1408   1.081   .     S
C1374  N1411   1.366   .     A
C1374  C1376   1.414   .     A
C1375  N1411   1.366   .     A
C1375  H1409   1.081   .     S
C1376  H1410   1.081   .     S
C1376  N1412   1.366   .     A
C1377  O1419   1.289   .     A
C1377  C1379   1.474   .     S
C1377  O1257   1.298   1_655 S
C1378  C1380   1.487   .     S
C1378  O1420   1.282   .     A
C1379  C1383   1.405   .     A
C1379  C1385   1.420   .     A
C1380  C1386   1.446   .     A
C1380  C1384   1.401   .     A
C1381  C1383   1.396   .     A
C1381  C1389   1.400   .     A
C1381  H1399   1.082   .     S
C1382  C1390   1.394   .     A
C1382  C1384   1.382   .     A
C1383  H1238   1.083   1_655 S
C1385  C1431   1.537   .     S
C1385  C1387   1.408   .     A
C1386  C1421   1.545   .     S
C1386  C1388   1.441   .     A
C1387  C1389   1.411   .     A
C1387  C1391   1.422   .     A
C1388  C1392   1.435   .     A
C1388  C1390   1.421   .     A
C1389  C645    1.391   1_556 S
C1391  C672    1.418   1_556 S
Cu1393 O1416   1.964   .     S
Cu1393 O1413   1.965   .     S
Cu1393 O1420   1.966   .     S
Cu1393 O1417   1.967   .     S
Cu1393 N1411   2.007   .     S
Cu1394 O1415   1.964   .     S
Cu1394 O1414   1.965   .     S
Cu1394 O1419   1.966   .     S
Cu1394 N1412   2.007   .     S
Cu1394 O1418   1.967   .     S
Cu1394 Cu1233  2.670   1_655 S
H1397  C1224   1.084   1_655 S
H1400  C1222   1.084   1_655 S
O1414  C1202   1.289   1_655 S
O1418  C1218   1.312   1_655 S
C1421  H1430   1.108   .     S
C1421  C1422   1.557   .     S
C1421  H1429   1.107   .     S
C1422  H1427   1.101   .     S
C1422  C1423   1.530   .     S
C1422  H1428   1.109   .     S
C1423  H1425   1.109   .     S
C1423  H1426   1.111   .     S
C1423  H1424   1.108   .     S
C1431  H1439   1.107   .     S
C1431  H1440   1.110   .     S
C1431  C1432   1.541   .     S
C1432  H1437   1.112   .     S
C1432  H1438   1.108   .     S
C1432  C1433   1.527   .     S
C1433  H1434   1.111   .     S
C1433  H1435   1.110   .     S
C1433  H1436   1.110   .     S
