data_str_m2_o2_o10_pcu_sym.4
_audit_creation_date              2020-01-03
_audit_creation_method            'Materials Studio'
_symmetry_space_group_name_H-M    'P1'
_symmetry_Int_Tables_number       1
_symmetry_cell_setting            triclinic
loop_
_symmetry_equiv_pos_as_xyz
  x,y,z
_cell_length_a                    26.2896
_cell_length_b                    30.1602
_cell_length_c                    27.6675
_cell_angle_alpha                 90.2191
_cell_angle_beta                  97.9060
_cell_angle_gamma                 91.1611
loop_
_atom_site_label
_atom_site_type_symbol
_atom_site_fract_x
_atom_site_fract_y
_atom_site_fract_z
_atom_site_U_iso_or_equiv
_atom_site_adp_type
_atom_site_occupancy
C1     C     0.16427   0.16482   0.24948   0.00000  Uiso   1.00
C2     C     0.19809   0.27883   0.45093   0.00000  Uiso   1.00
C3     C     0.16598   0.25054   0.02718   0.00000  Uiso   1.00
C4     C     0.16601   0.24935   0.47265   0.00000  Uiso   1.00
C5     C     0.06804   0.25119   0.23766   0.00000  Uiso   1.00
C6     C     0.26533   0.24943   0.26235   0.00000  Uiso   1.00
C7     C     0.01306   0.25218   0.23079   0.00000  Uiso   1.00
C8     C     0.32034   0.24937   0.26928   0.00000  Uiso   1.00
C9     C     0.19654   0.04782   0.28176   0.00000  Uiso   1.00
C10    C     0.12866   0.45200   0.25778   0.00000  Uiso   1.00
C11    C     0.19433   0.09359   0.28334   0.00000  Uiso   1.00
C12    C     0.16875   0.33503   0.25037   0.00000  Uiso   1.00
C13    C     0.12879   0.40620   0.25956   0.00000  Uiso   1.00
C14    C     0.16168   0.11620   0.24817   0.00000  Uiso   1.00
C15    C     0.17215   0.38337   0.25084   0.00000  Uiso   1.00
C16    C     0.12924   0.09235   0.21117   0.00000  Uiso   1.00
C17    C     0.21714   0.40654   0.24134   0.00000  Uiso   1.00
C18    C     0.13604   0.04607   0.20614   0.00000  Uiso   1.00
C19    C     0.21505   0.45309   0.23392   0.00000  Uiso   1.00
C20    C     0.16832   0.02402   0.24321   0.00000  Uiso   1.00
C21    C     0.17090   0.47553   0.24426   0.00000  Uiso   1.00
C22    C     0.13499   0.28002   0.04974   0.00000  Uiso   1.00
C23    C     0.13426   0.21934   0.44187   0.00000  Uiso   1.00
C24    C     0.13606   0.27880   0.10115   0.00000  Uiso   1.00
C25    C     0.13537   0.22060   0.39073   0.00000  Uiso   1.00
C26    C     0.19712   0.22182   0.10805   0.00000  Uiso   1.00
C27    C     0.19789   0.27864   0.40004   0.00000  Uiso   1.00
C28    C     0.19733   0.22162   0.05722   0.00000  Uiso   1.00
Cu29   Cu    0.16667   0.24999   0.29822   0.00000  Uiso   1.00
Cu30   Cu    0.16667   0.25000   0.20179   0.00000  Uiso   1.00
F31    F     0.32247   0.25546   0.18404   0.00000  Uiso   1.00
F32    F     0.22973   0.30774   0.47901   0.00000  Uiso   1.00
F33    F     0.01092   0.24638   0.31606   0.00000  Uiso   1.00
F34    F     0.22718   0.02655   0.31750   0.00000  Uiso   1.00
F35    F     0.08669   0.47362   0.26834   0.00000  Uiso   1.00
F36    F     0.10648   0.30664   0.12320   0.00000  Uiso   1.00
F37    F     0.10516   0.19222   0.36080   0.00000  Uiso   1.00
F38    F     0.22777   0.19358   0.13605   0.00000  Uiso   1.00
F39    F     0.22934   0.30731   0.38015   0.00000  Uiso   1.00
F40    F     0.22825   0.19326   0.03734   0.00000  Uiso   1.00
H41    H     0.21845   0.11155   0.31215   0.00000  Uiso   1.00
H42    H     0.09496   0.38834   0.26801   0.00000  Uiso   1.00
H43    H     0.01795   0.16236   0.19755   0.00000  Uiso   1.00
H44    H     0.28045   0.36290   0.32197   0.00000  Uiso   1.00
H45    H     0.12279   0.45537   0.11562   0.00000  Uiso   1.00
H46    H     0.27213   0.04367   0.16851   0.00000  Uiso   1.00
H47    H     0.11217   0.37742   0.47355   0.00000  Uiso   1.00
H48    H     0.10853   0.12539   0.01710   0.00000  Uiso   1.00
N49    N     0.16667   0.25001   0.12935   0.00000  Uiso   1.00
N50    N     0.16667   0.24999   0.37066   0.00000  Uiso   1.00
O51    O     0.16667   0.18572   0.29072   0.00000  Uiso   1.00
O52    O     0.03352   0.08792   0.15855   0.00000  Uiso   1.00
O53    O     0.05329   0.15666   0.21348   0.00000  Uiso   1.00
O54    O     0.27551   0.34982   0.19946   0.00000  Uiso   1.00
O55    O     0.32274   0.40660   0.25201   0.00000  Uiso   1.00
O56    O     0.27936   0.34297   0.29330   0.00000  Uiso   1.00
O57    O     0.05593   0.49856   0.16070   0.00000  Uiso   1.00
O58    O     0.10292   0.04567   0.10895   0.00000  Uiso   1.00
O59    O     0.14437   0.47299   0.14124   0.00000  Uiso   1.00
O60    O     0.30592   0.49678   0.24823   0.00000  Uiso   1.00
O61    O     0.28622   0.45369   0.17218   0.00000  Uiso   1.00
O62    O     0.16666   0.31427   0.20929   0.00000  Uiso   1.00
O63    O     0.24151   0.02828   0.17820   0.00000  Uiso   1.00
O64    O     0.06704   0.29686   0.47021   0.00000  Uiso   1.00
O65    O     0.05870   0.33991   0.04371   0.00000  Uiso   1.00
O66    O     0.13493   0.35903   0.49652   0.00000  Uiso   1.00
O67    O     0.06368   0.20267   0.00152   0.00000  Uiso   1.00
O68    O     0.05769   0.15686   0.42773   0.00000  Uiso   1.00
O69    O     0.13154   0.14196   0.49775   0.00000  Uiso   1.00
O70    O     0.16667   0.18573   0.20928   0.00000  Uiso   1.00
O71    O     0.16666   0.31427   0.29072   0.00000  Uiso   1.00
O72    O     0.09161   0.24999   0.28132   0.00000  Uiso   1.00
O73    O     0.24172   0.25000   0.21868   0.00000  Uiso   1.00
O74    O     0.09161   0.25000   0.19989   0.00000  Uiso   1.00
O75    O     0.24172   0.25000   0.30012   0.00000  Uiso   1.00
O76    O     0.09447   0.14353   0.13462   0.00000  Uiso   1.00
S77    S     0.07654   0.11977   0.17705   0.00000  Uiso   1.00
S78    S     0.27568   0.37699   0.24511   0.00000  Uiso   1.00
S79    S     0.10808   0.01603   0.15283   0.00000  Uiso   1.00
S80    S     0.26422   0.48277   0.20804   0.00000  Uiso   1.00
S81    S     0.09626   0.31912   0.01455   0.00000  Uiso   1.00
S82    S     0.09416   0.17992   0.46690   0.00000  Uiso   1.00
C83    C     0.49760   0.16482   0.24948   0.00000  Uiso   1.00
C84    C     0.53143   0.27883   0.45093   0.00000  Uiso   1.00
C85    C     0.49932   0.25054   0.02718   0.00000  Uiso   1.00
C86    C     0.49934   0.24935   0.47265   0.00000  Uiso   1.00
C87    C     0.40137   0.25119   0.23766   0.00000  Uiso   1.00
C88    C     0.59866   0.24943   0.26235   0.00000  Uiso   1.00
C89    C     0.34639   0.25218   0.23079   0.00000  Uiso   1.00
C90    C     0.65367   0.24937   0.26928   0.00000  Uiso   1.00
C91    C     0.52987   0.04782   0.28176   0.00000  Uiso   1.00
C92    C     0.46200   0.45200   0.25778   0.00000  Uiso   1.00
C93    C     0.52766   0.09359   0.28334   0.00000  Uiso   1.00
C94    C     0.50209   0.33503   0.25037   0.00000  Uiso   1.00
C95    C     0.46213   0.40620   0.25956   0.00000  Uiso   1.00
C96    C     0.49501   0.11620   0.24817   0.00000  Uiso   1.00
C97    C     0.50549   0.38337   0.25084   0.00000  Uiso   1.00
C98    C     0.46257   0.09235   0.21117   0.00000  Uiso   1.00
C99    C     0.55047   0.40654   0.24134   0.00000  Uiso   1.00
C100   C     0.46937   0.04607   0.20614   0.00000  Uiso   1.00
C101   C     0.54838   0.45309   0.23392   0.00000  Uiso   1.00
C102   C     0.50165   0.02402   0.24321   0.00000  Uiso   1.00
C103   C     0.50424   0.47553   0.24426   0.00000  Uiso   1.00
C104   C     0.46832   0.28002   0.04974   0.00000  Uiso   1.00
C105   C     0.46759   0.21934   0.44187   0.00000  Uiso   1.00
C106   C     0.46940   0.27880   0.10115   0.00000  Uiso   1.00
C107   C     0.46870   0.22060   0.39073   0.00000  Uiso   1.00
C108   C     0.53045   0.22182   0.10805   0.00000  Uiso   1.00
C109   C     0.53122   0.27864   0.40004   0.00000  Uiso   1.00
C110   C     0.53066   0.22162   0.05722   0.00000  Uiso   1.00
Cu111  Cu    0.50000   0.24999   0.29822   0.00000  Uiso   1.00
Cu112  Cu    0.50000   0.25000   0.20179   0.00000  Uiso   1.00
F113   F     0.65580   0.25546   0.18404   0.00000  Uiso   1.00
F114   F     0.56306   0.30774   0.47901   0.00000  Uiso   1.00
F115   F     0.34426   0.24638   0.31606   0.00000  Uiso   1.00
F116   F     0.56052   0.02655   0.31750   0.00000  Uiso   1.00
F117   F     0.42003   0.47362   0.26834   0.00000  Uiso   1.00
F118   F     0.43981   0.30664   0.12320   0.00000  Uiso   1.00
F119   F     0.43849   0.19222   0.36080   0.00000  Uiso   1.00
F120   F     0.56111   0.19358   0.13605   0.00000  Uiso   1.00
F121   F     0.56268   0.30731   0.38015   0.00000  Uiso   1.00
F122   F     0.56159   0.19326   0.03734   0.00000  Uiso   1.00
H123   H     0.55179   0.11155   0.31215   0.00000  Uiso   1.00
H124   H     0.42829   0.38834   0.26801   0.00000  Uiso   1.00
H125   H     0.35129   0.16236   0.19755   0.00000  Uiso   1.00
H126   H     0.61379   0.36290   0.32197   0.00000  Uiso   1.00
H127   H     0.45612   0.45537   0.11562   0.00000  Uiso   1.00
H128   H     0.60546   0.04367   0.16851   0.00000  Uiso   1.00
H129   H     0.44550   0.37742   0.47355   0.00000  Uiso   1.00
H130   H     0.44186   0.12539   0.01710   0.00000  Uiso   1.00
N131   N     0.50000   0.25001   0.12935   0.00000  Uiso   1.00
N132   N     0.50000   0.24999   0.37066   0.00000  Uiso   1.00
O133   O     0.50000   0.18572   0.29072   0.00000  Uiso   1.00
O134   O     0.36685   0.08792   0.15855   0.00000  Uiso   1.00
O135   O     0.38662   0.15666   0.21348   0.00000  Uiso   1.00
O136   O     0.60885   0.34982   0.19946   0.00000  Uiso   1.00
O137   O     0.65608   0.40660   0.25201   0.00000  Uiso   1.00
O138   O     0.61269   0.34297   0.29330   0.00000  Uiso   1.00
O139   O     0.38927   0.49856   0.16070   0.00000  Uiso   1.00
O140   O     0.43626   0.04567   0.10895   0.00000  Uiso   1.00
O141   O     0.47770   0.47299   0.14124   0.00000  Uiso   1.00
O142   O     0.63925   0.49678   0.24823   0.00000  Uiso   1.00
O143   O     0.61956   0.45369   0.17218   0.00000  Uiso   1.00
O144   O     0.50000   0.31427   0.20929   0.00000  Uiso   1.00
O145   O     0.57484   0.02828   0.17820   0.00000  Uiso   1.00
O146   O     0.40037   0.29686   0.47021   0.00000  Uiso   1.00
O147   O     0.39203   0.33991   0.04371   0.00000  Uiso   1.00
O148   O     0.46826   0.35903   0.49652   0.00000  Uiso   1.00
O149   O     0.39701   0.20267   0.00152   0.00000  Uiso   1.00
O150   O     0.39102   0.15686   0.42773   0.00000  Uiso   1.00
O151   O     0.46487   0.14196   0.49775   0.00000  Uiso   1.00
O152   O     0.50000   0.18573   0.20928   0.00000  Uiso   1.00
O153   O     0.50000   0.31427   0.29072   0.00000  Uiso   1.00
O154   O     0.42495   0.24999   0.28132   0.00000  Uiso   1.00
O155   O     0.57505   0.25000   0.21868   0.00000  Uiso   1.00
O156   O     0.42495   0.25000   0.19989   0.00000  Uiso   1.00
O157   O     0.57505   0.25000   0.30012   0.00000  Uiso   1.00
O158   O     0.42780   0.14353   0.13462   0.00000  Uiso   1.00
S159   S     0.40988   0.11977   0.17705   0.00000  Uiso   1.00
S160   S     0.60902   0.37699   0.24511   0.00000  Uiso   1.00
S161   S     0.44141   0.01603   0.15283   0.00000  Uiso   1.00
S162   S     0.59755   0.48277   0.20804   0.00000  Uiso   1.00
S163   S     0.42959   0.31912   0.01455   0.00000  Uiso   1.00
S164   S     0.42750   0.17992   0.46690   0.00000  Uiso   1.00
C165   C     0.83093   0.16482   0.24948   0.00000  Uiso   1.00
C166   C     0.86476   0.27883   0.45093   0.00000  Uiso   1.00
C167   C     0.83265   0.25054   0.02718   0.00000  Uiso   1.00
C168   C     0.83267   0.24935   0.47265   0.00000  Uiso   1.00
C169   C     0.73471   0.25119   0.23766   0.00000  Uiso   1.00
C170   C     0.93200   0.24943   0.26235   0.00000  Uiso   1.00
C171   C     0.67972   0.25218   0.23079   0.00000  Uiso   1.00
C172   C     0.98700   0.24937   0.26928   0.00000  Uiso   1.00
C173   C     0.86320   0.04782   0.28176   0.00000  Uiso   1.00
C174   C     0.79533   0.45200   0.25778   0.00000  Uiso   1.00
C175   C     0.86100   0.09359   0.28334   0.00000  Uiso   1.00
C176   C     0.83542   0.33503   0.25037   0.00000  Uiso   1.00
C177   C     0.79546   0.40620   0.25956   0.00000  Uiso   1.00
C178   C     0.82834   0.11620   0.24817   0.00000  Uiso   1.00
C179   C     0.83882   0.38337   0.25084   0.00000  Uiso   1.00
C180   C     0.79590   0.09235   0.21117   0.00000  Uiso   1.00
C181   C     0.88381   0.40654   0.24134   0.00000  Uiso   1.00
C182   C     0.80270   0.04607   0.20614   0.00000  Uiso   1.00
C183   C     0.88172   0.45309   0.23392   0.00000  Uiso   1.00
C184   C     0.83499   0.02402   0.24321   0.00000  Uiso   1.00
C185   C     0.83757   0.47553   0.24426   0.00000  Uiso   1.00
C186   C     0.80165   0.28002   0.04974   0.00000  Uiso   1.00
C187   C     0.80093   0.21934   0.44187   0.00000  Uiso   1.00
C188   C     0.80273   0.27880   0.10115   0.00000  Uiso   1.00
C189   C     0.80203   0.22060   0.39073   0.00000  Uiso   1.00
C190   C     0.86378   0.22182   0.10805   0.00000  Uiso   1.00
C191   C     0.86455   0.27864   0.40004   0.00000  Uiso   1.00
C192   C     0.86399   0.22162   0.05722   0.00000  Uiso   1.00
Cu193  Cu    0.83333   0.24999   0.29822   0.00000  Uiso   1.00
Cu194  Cu    0.83333   0.25000   0.20179   0.00000  Uiso   1.00
F195   F     0.98913   0.25546   0.18404   0.00000  Uiso   1.00
F196   F     0.89639   0.30774   0.47901   0.00000  Uiso   1.00
F197   F     0.67759   0.24638   0.31606   0.00000  Uiso   1.00
F198   F     0.89385   0.02655   0.31750   0.00000  Uiso   1.00
F199   F     0.75336   0.47362   0.26834   0.00000  Uiso   1.00
F200   F     0.77315   0.30664   0.12320   0.00000  Uiso   1.00
F201   F     0.77183   0.19222   0.36080   0.00000  Uiso   1.00
F202   F     0.89444   0.19358   0.13605   0.00000  Uiso   1.00
F203   F     0.89601   0.30731   0.38015   0.00000  Uiso   1.00
F204   F     0.89492   0.19326   0.03734   0.00000  Uiso   1.00
H205   H     0.88512   0.11155   0.31215   0.00000  Uiso   1.00
H206   H     0.76162   0.38834   0.26801   0.00000  Uiso   1.00
H207   H     0.68462   0.16236   0.19755   0.00000  Uiso   1.00
H208   H     0.94712   0.36290   0.32197   0.00000  Uiso   1.00
H209   H     0.78945   0.45537   0.11562   0.00000  Uiso   1.00
H210   H     0.93880   0.04367   0.16851   0.00000  Uiso   1.00
H211   H     0.77884   0.37742   0.47355   0.00000  Uiso   1.00
H212   H     0.77519   0.12539   0.01710   0.00000  Uiso   1.00
N213   N     0.83333   0.25001   0.12935   0.00000  Uiso   1.00
N214   N     0.83333   0.24999   0.37066   0.00000  Uiso   1.00
O215   O     0.83334   0.18572   0.29072   0.00000  Uiso   1.00
O216   O     0.70019   0.08792   0.15855   0.00000  Uiso   1.00
O217   O     0.71995   0.15666   0.21348   0.00000  Uiso   1.00
O218   O     0.94218   0.34982   0.19946   0.00000  Uiso   1.00
O219   O     0.98941   0.40660   0.25201   0.00000  Uiso   1.00
O220   O     0.94602   0.34297   0.29330   0.00000  Uiso   1.00
O221   O     0.72260   0.49856   0.16070   0.00000  Uiso   1.00
O222   O     0.76959   0.04567   0.10895   0.00000  Uiso   1.00
O223   O     0.81103   0.47299   0.14124   0.00000  Uiso   1.00
O224   O     0.97259   0.49678   0.24823   0.00000  Uiso   1.00
O225   O     0.95289   0.45369   0.17218   0.00000  Uiso   1.00
O226   O     0.83333   0.31427   0.20929   0.00000  Uiso   1.00
O227   O     0.90817   0.02828   0.17820   0.00000  Uiso   1.00
O228   O     0.73371   0.29686   0.47021   0.00000  Uiso   1.00
O229   O     0.72536   0.33991   0.04371   0.00000  Uiso   1.00
O230   O     0.80160   0.35903   0.49652   0.00000  Uiso   1.00
O231   O     0.73034   0.20267   0.00152   0.00000  Uiso   1.00
O232   O     0.72436   0.15686   0.42773   0.00000  Uiso   1.00
O233   O     0.79820   0.14196   0.49775   0.00000  Uiso   1.00
O234   O     0.83334   0.18573   0.20928   0.00000  Uiso   1.00
O235   O     0.83333   0.31427   0.29072   0.00000  Uiso   1.00
O236   O     0.75828   0.24999   0.28132   0.00000  Uiso   1.00
O237   O     0.90839   0.25000   0.21868   0.00000  Uiso   1.00
O238   O     0.75828   0.25000   0.19989   0.00000  Uiso   1.00
O239   O     0.90839   0.25000   0.30012   0.00000  Uiso   1.00
O240   O     0.76114   0.14353   0.13462   0.00000  Uiso   1.00
S241   S     0.74321   0.11977   0.17705   0.00000  Uiso   1.00
S242   S     0.94235   0.37699   0.24511   0.00000  Uiso   1.00
S243   S     0.77475   0.01603   0.15283   0.00000  Uiso   1.00
S244   S     0.93089   0.48277   0.20804   0.00000  Uiso   1.00
S245   S     0.76293   0.31912   0.01455   0.00000  Uiso   1.00
S246   S     0.76083   0.17992   0.46690   0.00000  Uiso   1.00
C247   C     0.16427   0.66482   0.24948   0.00000  Uiso   1.00
C248   C     0.19809   0.77883   0.45093   0.00000  Uiso   1.00
C249   C     0.16598   0.75054   0.02718   0.00000  Uiso   1.00
C250   C     0.16601   0.74935   0.47265   0.00000  Uiso   1.00
C251   C     0.06804   0.75119   0.23766   0.00000  Uiso   1.00
C252   C     0.26533   0.74943   0.26235   0.00000  Uiso   1.00
C253   C     0.01306   0.75218   0.23079   0.00000  Uiso   1.00
C254   C     0.32034   0.74937   0.26928   0.00000  Uiso   1.00
C255   C     0.19654   0.54782   0.28176   0.00000  Uiso   1.00
C256   C     0.12866   0.95200   0.25778   0.00000  Uiso   1.00
C257   C     0.19433   0.59359   0.28334   0.00000  Uiso   1.00
C258   C     0.16875   0.83503   0.25037   0.00000  Uiso   1.00
C259   C     0.12879   0.90620   0.25956   0.00000  Uiso   1.00
C260   C     0.16168   0.61620   0.24817   0.00000  Uiso   1.00
C261   C     0.17215   0.88337   0.25084   0.00000  Uiso   1.00
C262   C     0.12924   0.59235   0.21117   0.00000  Uiso   1.00
C263   C     0.21714   0.90654   0.24134   0.00000  Uiso   1.00
C264   C     0.13604   0.54607   0.20614   0.00000  Uiso   1.00
C265   C     0.21505   0.95309   0.23392   0.00000  Uiso   1.00
C266   C     0.16832   0.52402   0.24321   0.00000  Uiso   1.00
C267   C     0.17090   0.97553   0.24426   0.00000  Uiso   1.00
C268   C     0.13499   0.78002   0.04974   0.00000  Uiso   1.00
C269   C     0.13426   0.71934   0.44187   0.00000  Uiso   1.00
C270   C     0.13606   0.77880   0.10115   0.00000  Uiso   1.00
C271   C     0.13537   0.72060   0.39073   0.00000  Uiso   1.00
C272   C     0.19712   0.72182   0.10805   0.00000  Uiso   1.00
C273   C     0.19789   0.77864   0.40004   0.00000  Uiso   1.00
C274   C     0.19733   0.72162   0.05722   0.00000  Uiso   1.00
Cu275  Cu    0.16667   0.74999   0.29822   0.00000  Uiso   1.00
Cu276  Cu    0.16667   0.75000   0.20179   0.00000  Uiso   1.00
F277   F     0.32247   0.75546   0.18404   0.00000  Uiso   1.00
F278   F     0.22973   0.80774   0.47901   0.00000  Uiso   1.00
F279   F     0.01092   0.74638   0.31606   0.00000  Uiso   1.00
F280   F     0.22718   0.52655   0.31750   0.00000  Uiso   1.00
F281   F     0.08669   0.97362   0.26834   0.00000  Uiso   1.00
F282   F     0.10648   0.80664   0.12320   0.00000  Uiso   1.00
F283   F     0.10516   0.69222   0.36080   0.00000  Uiso   1.00
F284   F     0.22777   0.69358   0.13605   0.00000  Uiso   1.00
F285   F     0.22934   0.80731   0.38015   0.00000  Uiso   1.00
F286   F     0.22825   0.69326   0.03734   0.00000  Uiso   1.00
H287   H     0.21845   0.61155   0.31215   0.00000  Uiso   1.00
H288   H     0.09496   0.88834   0.26801   0.00000  Uiso   1.00
H289   H     0.01795   0.66236   0.19755   0.00000  Uiso   1.00
H290   H     0.28045   0.86290   0.32197   0.00000  Uiso   1.00
H291   H     0.12279   0.95537   0.11562   0.00000  Uiso   1.00
H292   H     0.27213   0.54367   0.16851   0.00000  Uiso   1.00
H293   H     0.11217   0.87742   0.47355   0.00000  Uiso   1.00
H294   H     0.10853   0.62539   0.01710   0.00000  Uiso   1.00
N295   N     0.16667   0.75001   0.12935   0.00000  Uiso   1.00
N296   N     0.16667   0.74999   0.37066   0.00000  Uiso   1.00
O297   O     0.16667   0.68572   0.29072   0.00000  Uiso   1.00
O298   O     0.03352   0.58792   0.15855   0.00000  Uiso   1.00
O299   O     0.05329   0.65666   0.21348   0.00000  Uiso   1.00
O300   O     0.27551   0.84982   0.19946   0.00000  Uiso   1.00
O301   O     0.32274   0.90660   0.25201   0.00000  Uiso   1.00
O302   O     0.27936   0.84297   0.29330   0.00000  Uiso   1.00
O303   O     0.05593   0.99856   0.16070   0.00000  Uiso   1.00
O304   O     0.10292   0.54567   0.10895   0.00000  Uiso   1.00
O305   O     0.14437   0.97299   0.14124   0.00000  Uiso   1.00
O306   O     0.30592   0.99678   0.24823   0.00000  Uiso   1.00
O307   O     0.28622   0.95369   0.17218   0.00000  Uiso   1.00
O308   O     0.16666   0.81427   0.20929   0.00000  Uiso   1.00
O309   O     0.24151   0.52828   0.17820   0.00000  Uiso   1.00
O310   O     0.06704   0.79686   0.47021   0.00000  Uiso   1.00
O311   O     0.05870   0.83991   0.04371   0.00000  Uiso   1.00
O312   O     0.13493   0.85903   0.49652   0.00000  Uiso   1.00
O313   O     0.06368   0.70267   0.00152   0.00000  Uiso   1.00
O314   O     0.05769   0.65686   0.42773   0.00000  Uiso   1.00
O315   O     0.13154   0.64196   0.49775   0.00000  Uiso   1.00
O316   O     0.16667   0.68573   0.20928   0.00000  Uiso   1.00
O317   O     0.16666   0.81427   0.29072   0.00000  Uiso   1.00
O318   O     0.09161   0.74999   0.28132   0.00000  Uiso   1.00
O319   O     0.24172   0.75000   0.21868   0.00000  Uiso   1.00
O320   O     0.09161   0.75000   0.19989   0.00000  Uiso   1.00
O321   O     0.24172   0.75000   0.30012   0.00000  Uiso   1.00
O322   O     0.09447   0.64353   0.13462   0.00000  Uiso   1.00
S323   S     0.07654   0.61977   0.17705   0.00000  Uiso   1.00
S324   S     0.27568   0.87699   0.24511   0.00000  Uiso   1.00
S325   S     0.10808   0.51603   0.15283   0.00000  Uiso   1.00
S326   S     0.26422   0.98277   0.20804   0.00000  Uiso   1.00
S327   S     0.09626   0.81912   0.01455   0.00000  Uiso   1.00
S328   S     0.09416   0.67992   0.46690   0.00000  Uiso   1.00
C329   C     0.49760   0.66482   0.24948   0.00000  Uiso   1.00
C330   C     0.53143   0.77883   0.45093   0.00000  Uiso   1.00
C331   C     0.49932   0.75054   0.02718   0.00000  Uiso   1.00
C332   C     0.49934   0.74935   0.47265   0.00000  Uiso   1.00
C333   C     0.40137   0.75119   0.23766   0.00000  Uiso   1.00
C334   C     0.59866   0.74943   0.26235   0.00000  Uiso   1.00
C335   C     0.34639   0.75218   0.23079   0.00000  Uiso   1.00
C336   C     0.65367   0.74937   0.26928   0.00000  Uiso   1.00
C337   C     0.52987   0.54782   0.28176   0.00000  Uiso   1.00
C338   C     0.46200   0.95200   0.25778   0.00000  Uiso   1.00
C339   C     0.52766   0.59359   0.28334   0.00000  Uiso   1.00
C340   C     0.50209   0.83503   0.25037   0.00000  Uiso   1.00
C341   C     0.46213   0.90620   0.25956   0.00000  Uiso   1.00
C342   C     0.49501   0.61620   0.24817   0.00000  Uiso   1.00
C343   C     0.50549   0.88337   0.25084   0.00000  Uiso   1.00
C344   C     0.46257   0.59235   0.21117   0.00000  Uiso   1.00
C345   C     0.55047   0.90654   0.24134   0.00000  Uiso   1.00
C346   C     0.46937   0.54607   0.20614   0.00000  Uiso   1.00
C347   C     0.54838   0.95309   0.23392   0.00000  Uiso   1.00
C348   C     0.50165   0.52402   0.24321   0.00000  Uiso   1.00
C349   C     0.50424   0.97553   0.24426   0.00000  Uiso   1.00
C350   C     0.46832   0.78002   0.04974   0.00000  Uiso   1.00
C351   C     0.46759   0.71934   0.44187   0.00000  Uiso   1.00
C352   C     0.46940   0.77880   0.10115   0.00000  Uiso   1.00
C353   C     0.46870   0.72060   0.39073   0.00000  Uiso   1.00
C354   C     0.53045   0.72182   0.10805   0.00000  Uiso   1.00
C355   C     0.53122   0.77864   0.40004   0.00000  Uiso   1.00
C356   C     0.53066   0.72162   0.05722   0.00000  Uiso   1.00
Cu357  Cu    0.50000   0.74999   0.29822   0.00000  Uiso   1.00
Cu358  Cu    0.50000   0.75000   0.20179   0.00000  Uiso   1.00
F359   F     0.65580   0.75546   0.18404   0.00000  Uiso   1.00
F360   F     0.56306   0.80774   0.47901   0.00000  Uiso   1.00
F361   F     0.34426   0.74638   0.31606   0.00000  Uiso   1.00
F362   F     0.56052   0.52655   0.31750   0.00000  Uiso   1.00
F363   F     0.42003   0.97362   0.26834   0.00000  Uiso   1.00
F364   F     0.43981   0.80664   0.12320   0.00000  Uiso   1.00
F365   F     0.43849   0.69222   0.36080   0.00000  Uiso   1.00
F366   F     0.56111   0.69358   0.13605   0.00000  Uiso   1.00
F367   F     0.56268   0.80731   0.38015   0.00000  Uiso   1.00
F368   F     0.56159   0.69326   0.03734   0.00000  Uiso   1.00
H369   H     0.55179   0.61155   0.31215   0.00000  Uiso   1.00
H370   H     0.42829   0.88834   0.26801   0.00000  Uiso   1.00
H371   H     0.35129   0.66236   0.19755   0.00000  Uiso   1.00
H372   H     0.61379   0.86290   0.32197   0.00000  Uiso   1.00
H373   H     0.45612   0.95537   0.11562   0.00000  Uiso   1.00
H374   H     0.60546   0.54367   0.16851   0.00000  Uiso   1.00
H375   H     0.44550   0.87742   0.47355   0.00000  Uiso   1.00
H376   H     0.44186   0.62539   0.01710   0.00000  Uiso   1.00
N377   N     0.50000   0.75001   0.12935   0.00000  Uiso   1.00
N378   N     0.50000   0.74999   0.37066   0.00000  Uiso   1.00
O379   O     0.50000   0.68572   0.29072   0.00000  Uiso   1.00
O380   O     0.36685   0.58792   0.15855   0.00000  Uiso   1.00
O381   O     0.38662   0.65666   0.21348   0.00000  Uiso   1.00
O382   O     0.60885   0.84982   0.19946   0.00000  Uiso   1.00
O383   O     0.65608   0.90660   0.25201   0.00000  Uiso   1.00
O384   O     0.61269   0.84297   0.29330   0.00000  Uiso   1.00
O385   O     0.38927   0.99856   0.16070   0.00000  Uiso   1.00
O386   O     0.43626   0.54567   0.10895   0.00000  Uiso   1.00
O387   O     0.47770   0.97299   0.14124   0.00000  Uiso   1.00
O388   O     0.63925   0.99678   0.24823   0.00000  Uiso   1.00
O389   O     0.61956   0.95369   0.17218   0.00000  Uiso   1.00
O390   O     0.50000   0.81427   0.20929   0.00000  Uiso   1.00
O391   O     0.57484   0.52828   0.17820   0.00000  Uiso   1.00
O392   O     0.40037   0.79686   0.47021   0.00000  Uiso   1.00
O393   O     0.39203   0.83991   0.04371   0.00000  Uiso   1.00
O394   O     0.46826   0.85903   0.49652   0.00000  Uiso   1.00
O395   O     0.39701   0.70267   0.00152   0.00000  Uiso   1.00
O396   O     0.39102   0.65686   0.42773   0.00000  Uiso   1.00
O397   O     0.46487   0.64196   0.49775   0.00000  Uiso   1.00
O398   O     0.50000   0.68573   0.20928   0.00000  Uiso   1.00
O399   O     0.50000   0.81427   0.29072   0.00000  Uiso   1.00
O400   O     0.42495   0.74999   0.28132   0.00000  Uiso   1.00
O401   O     0.57505   0.75000   0.21868   0.00000  Uiso   1.00
O402   O     0.42495   0.75000   0.19989   0.00000  Uiso   1.00
O403   O     0.57505   0.75000   0.30012   0.00000  Uiso   1.00
O404   O     0.42780   0.64353   0.13462   0.00000  Uiso   1.00
S405   S     0.40988   0.61977   0.17705   0.00000  Uiso   1.00
S406   S     0.60902   0.87699   0.24511   0.00000  Uiso   1.00
S407   S     0.44141   0.51603   0.15283   0.00000  Uiso   1.00
S408   S     0.59755   0.98277   0.20804   0.00000  Uiso   1.00
S409   S     0.42959   0.81912   0.01455   0.00000  Uiso   1.00
S410   S     0.42750   0.67992   0.46690   0.00000  Uiso   1.00
C411   C     0.83093   0.66482   0.24948   0.00000  Uiso   1.00
C412   C     0.86476   0.77883   0.45093   0.00000  Uiso   1.00
C413   C     0.83265   0.75054   0.02718   0.00000  Uiso   1.00
C414   C     0.83267   0.74935   0.47265   0.00000  Uiso   1.00
C415   C     0.73471   0.75119   0.23766   0.00000  Uiso   1.00
C416   C     0.93200   0.74943   0.26235   0.00000  Uiso   1.00
C417   C     0.67972   0.75218   0.23079   0.00000  Uiso   1.00
C418   C     0.98700   0.74937   0.26928   0.00000  Uiso   1.00
C419   C     0.86320   0.54782   0.28176   0.00000  Uiso   1.00
C420   C     0.79533   0.95200   0.25778   0.00000  Uiso   1.00
C421   C     0.86100   0.59359   0.28334   0.00000  Uiso   1.00
C422   C     0.83542   0.83503   0.25037   0.00000  Uiso   1.00
C423   C     0.79546   0.90620   0.25956   0.00000  Uiso   1.00
C424   C     0.82834   0.61620   0.24817   0.00000  Uiso   1.00
C425   C     0.83882   0.88337   0.25084   0.00000  Uiso   1.00
C426   C     0.79590   0.59235   0.21117   0.00000  Uiso   1.00
C427   C     0.88381   0.90654   0.24134   0.00000  Uiso   1.00
C428   C     0.80270   0.54607   0.20614   0.00000  Uiso   1.00
C429   C     0.88172   0.95309   0.23392   0.00000  Uiso   1.00
C430   C     0.83499   0.52402   0.24321   0.00000  Uiso   1.00
C431   C     0.83757   0.97553   0.24426   0.00000  Uiso   1.00
C432   C     0.80165   0.78002   0.04974   0.00000  Uiso   1.00
C433   C     0.80093   0.71934   0.44187   0.00000  Uiso   1.00
C434   C     0.80273   0.77880   0.10115   0.00000  Uiso   1.00
C435   C     0.80203   0.72060   0.39073   0.00000  Uiso   1.00
C436   C     0.86378   0.72182   0.10805   0.00000  Uiso   1.00
C437   C     0.86455   0.77864   0.40004   0.00000  Uiso   1.00
C438   C     0.86399   0.72162   0.05722   0.00000  Uiso   1.00
Cu439  Cu    0.83333   0.74999   0.29822   0.00000  Uiso   1.00
Cu440  Cu    0.83333   0.75000   0.20179   0.00000  Uiso   1.00
F441   F     0.98913   0.75546   0.18404   0.00000  Uiso   1.00
F442   F     0.89639   0.80774   0.47901   0.00000  Uiso   1.00
F443   F     0.67759   0.74638   0.31606   0.00000  Uiso   1.00
F444   F     0.89385   0.52655   0.31750   0.00000  Uiso   1.00
F445   F     0.75336   0.97362   0.26834   0.00000  Uiso   1.00
F446   F     0.77315   0.80664   0.12320   0.00000  Uiso   1.00
F447   F     0.77183   0.69222   0.36080   0.00000  Uiso   1.00
F448   F     0.89444   0.69358   0.13605   0.00000  Uiso   1.00
F449   F     0.89601   0.80731   0.38015   0.00000  Uiso   1.00
F450   F     0.89492   0.69326   0.03734   0.00000  Uiso   1.00
H451   H     0.88512   0.61155   0.31215   0.00000  Uiso   1.00
H452   H     0.76162   0.88834   0.26801   0.00000  Uiso   1.00
H453   H     0.68462   0.66236   0.19755   0.00000  Uiso   1.00
H454   H     0.94712   0.86290   0.32197   0.00000  Uiso   1.00
H455   H     0.78945   0.95537   0.11562   0.00000  Uiso   1.00
H456   H     0.93880   0.54367   0.16851   0.00000  Uiso   1.00
H457   H     0.77884   0.87742   0.47355   0.00000  Uiso   1.00
H458   H     0.77519   0.62539   0.01710   0.00000  Uiso   1.00
N459   N     0.83333   0.75001   0.12935   0.00000  Uiso   1.00
N460   N     0.83333   0.74999   0.37066   0.00000  Uiso   1.00
O461   O     0.83334   0.68572   0.29072   0.00000  Uiso   1.00
O462   O     0.70019   0.58792   0.15855   0.00000  Uiso   1.00
O463   O     0.71995   0.65666   0.21348   0.00000  Uiso   1.00
O464   O     0.94218   0.84982   0.19946   0.00000  Uiso   1.00
O465   O     0.98941   0.90660   0.25201   0.00000  Uiso   1.00
O466   O     0.94602   0.84297   0.29330   0.00000  Uiso   1.00
O467   O     0.72260   0.99856   0.16070   0.00000  Uiso   1.00
O468   O     0.76959   0.54567   0.10895   0.00000  Uiso   1.00
O469   O     0.81103   0.97299   0.14124   0.00000  Uiso   1.00
O470   O     0.97259   0.99678   0.24823   0.00000  Uiso   1.00
O471   O     0.95289   0.95369   0.17218   0.00000  Uiso   1.00
O472   O     0.83333   0.81427   0.20929   0.00000  Uiso   1.00
O473   O     0.90817   0.52828   0.17820   0.00000  Uiso   1.00
O474   O     0.73371   0.79686   0.47021   0.00000  Uiso   1.00
O475   O     0.72536   0.83991   0.04371   0.00000  Uiso   1.00
O476   O     0.80160   0.85903   0.49652   0.00000  Uiso   1.00
O477   O     0.73034   0.70267   0.00152   0.00000  Uiso   1.00
O478   O     0.72436   0.65686   0.42773   0.00000  Uiso   1.00
O479   O     0.79820   0.64196   0.49775   0.00000  Uiso   1.00
O480   O     0.83334   0.68573   0.20928   0.00000  Uiso   1.00
O481   O     0.83333   0.81427   0.29072   0.00000  Uiso   1.00
O482   O     0.75828   0.74999   0.28132   0.00000  Uiso   1.00
O483   O     0.90839   0.75000   0.21868   0.00000  Uiso   1.00
O484   O     0.75828   0.75000   0.19989   0.00000  Uiso   1.00
O485   O     0.90839   0.75000   0.30012   0.00000  Uiso   1.00
O486   O     0.76114   0.64353   0.13462   0.00000  Uiso   1.00
S487   S     0.74321   0.61977   0.17705   0.00000  Uiso   1.00
S488   S     0.94235   0.87699   0.24511   0.00000  Uiso   1.00
S489   S     0.77475   0.51603   0.15283   0.00000  Uiso   1.00
S490   S     0.93089   0.98277   0.20804   0.00000  Uiso   1.00
S491   S     0.76293   0.81912   0.01455   0.00000  Uiso   1.00
S492   S     0.76083   0.67992   0.46690   0.00000  Uiso   1.00
C493   C     0.16427   0.16482   0.74948   0.00000  Uiso   1.00
C494   C     0.19809   0.27883   0.95093   0.00000  Uiso   1.00
C495   C     0.16598   0.25054   0.52718   0.00000  Uiso   1.00
C496   C     0.16601   0.24935   0.97265   0.00000  Uiso   1.00
C497   C     0.06804   0.25119   0.73766   0.00000  Uiso   1.00
C498   C     0.26533   0.24943   0.76235   0.00000  Uiso   1.00
C499   C     0.01306   0.25218   0.73079   0.00000  Uiso   1.00
C500   C     0.32034   0.24937   0.76928   0.00000  Uiso   1.00
C501   C     0.19654   0.04782   0.78176   0.00000  Uiso   1.00
C502   C     0.12866   0.45200   0.75778   0.00000  Uiso   1.00
C503   C     0.19433   0.09359   0.78334   0.00000  Uiso   1.00
C504   C     0.16875   0.33503   0.75037   0.00000  Uiso   1.00
C505   C     0.12879   0.40620   0.75956   0.00000  Uiso   1.00
C506   C     0.16168   0.11620   0.74817   0.00000  Uiso   1.00
C507   C     0.17215   0.38337   0.75084   0.00000  Uiso   1.00
C508   C     0.12924   0.09235   0.71117   0.00000  Uiso   1.00
C509   C     0.21714   0.40654   0.74134   0.00000  Uiso   1.00
C510   C     0.13604   0.04607   0.70614   0.00000  Uiso   1.00
C511   C     0.21505   0.45309   0.73392   0.00000  Uiso   1.00
C512   C     0.16832   0.02402   0.74321   0.00000  Uiso   1.00
C513   C     0.17090   0.47553   0.74426   0.00000  Uiso   1.00
C514   C     0.13499   0.28002   0.54974   0.00000  Uiso   1.00
C515   C     0.13426   0.21934   0.94187   0.00000  Uiso   1.00
C516   C     0.13606   0.27880   0.60115   0.00000  Uiso   1.00
C517   C     0.13537   0.22060   0.89073   0.00000  Uiso   1.00
C518   C     0.19712   0.22182   0.60805   0.00000  Uiso   1.00
C519   C     0.19789   0.27864   0.90004   0.00000  Uiso   1.00
C520   C     0.19733   0.22162   0.55722   0.00000  Uiso   1.00
Cu521  Cu    0.16667   0.24999   0.79822   0.00000  Uiso   1.00
Cu522  Cu    0.16667   0.25000   0.70179   0.00000  Uiso   1.00
F523   F     0.32247   0.25546   0.68404   0.00000  Uiso   1.00
F524   F     0.22973   0.30774   0.97901   0.00000  Uiso   1.00
F525   F     0.01092   0.24638   0.81606   0.00000  Uiso   1.00
F526   F     0.22718   0.02655   0.81750   0.00000  Uiso   1.00
F527   F     0.08669   0.47362   0.76834   0.00000  Uiso   1.00
F528   F     0.10648   0.30664   0.62320   0.00000  Uiso   1.00
F529   F     0.10516   0.19222   0.86080   0.00000  Uiso   1.00
F530   F     0.22777   0.19358   0.63605   0.00000  Uiso   1.00
F531   F     0.22934   0.30731   0.88015   0.00000  Uiso   1.00
F532   F     0.22825   0.19326   0.53734   0.00000  Uiso   1.00
H533   H     0.21845   0.11155   0.81215   0.00000  Uiso   1.00
H534   H     0.09496   0.38834   0.76801   0.00000  Uiso   1.00
H535   H     0.01795   0.16236   0.69755   0.00000  Uiso   1.00
H536   H     0.28045   0.36290   0.82197   0.00000  Uiso   1.00
H537   H     0.12279   0.45537   0.61562   0.00000  Uiso   1.00
H538   H     0.27213   0.04367   0.66851   0.00000  Uiso   1.00
H539   H     0.11217   0.37742   0.97355   0.00000  Uiso   1.00
H540   H     0.10853   0.12539   0.51710   0.00000  Uiso   1.00
N541   N     0.16667   0.25001   0.62935   0.00000  Uiso   1.00
N542   N     0.16667   0.24999   0.87066   0.00000  Uiso   1.00
O543   O     0.16667   0.18572   0.79072   0.00000  Uiso   1.00
O544   O     0.03352   0.08792   0.65855   0.00000  Uiso   1.00
O545   O     0.05329   0.15666   0.71348   0.00000  Uiso   1.00
O546   O     0.27551   0.34982   0.69946   0.00000  Uiso   1.00
O547   O     0.32274   0.40660   0.75201   0.00000  Uiso   1.00
O548   O     0.27936   0.34297   0.79330   0.00000  Uiso   1.00
O549   O     0.05593   0.49856   0.66070   0.00000  Uiso   1.00
O550   O     0.10292   0.04567   0.60895   0.00000  Uiso   1.00
O551   O     0.14437   0.47299   0.64124   0.00000  Uiso   1.00
O552   O     0.30592   0.49678   0.74823   0.00000  Uiso   1.00
O553   O     0.28622   0.45369   0.67218   0.00000  Uiso   1.00
O554   O     0.16666   0.31427   0.70929   0.00000  Uiso   1.00
O555   O     0.24151   0.02828   0.67820   0.00000  Uiso   1.00
O556   O     0.06704   0.29686   0.97021   0.00000  Uiso   1.00
O557   O     0.05870   0.33991   0.54371   0.00000  Uiso   1.00
O558   O     0.13493   0.35903   0.99652   0.00000  Uiso   1.00
O559   O     0.06368   0.20267   0.50152   0.00000  Uiso   1.00
O560   O     0.05769   0.15686   0.92773   0.00000  Uiso   1.00
O561   O     0.13154   0.14196   0.99775   0.00000  Uiso   1.00
O562   O     0.16667   0.18573   0.70928   0.00000  Uiso   1.00
O563   O     0.16666   0.31427   0.79072   0.00000  Uiso   1.00
O564   O     0.09161   0.24999   0.78132   0.00000  Uiso   1.00
O565   O     0.24172   0.25000   0.71868   0.00000  Uiso   1.00
O566   O     0.09161   0.25000   0.69989   0.00000  Uiso   1.00
O567   O     0.24172   0.25000   0.80012   0.00000  Uiso   1.00
O568   O     0.09447   0.14353   0.63462   0.00000  Uiso   1.00
S569   S     0.07654   0.11977   0.67705   0.00000  Uiso   1.00
S570   S     0.27568   0.37699   0.74511   0.00000  Uiso   1.00
S571   S     0.10808   0.01603   0.65283   0.00000  Uiso   1.00
S572   S     0.26422   0.48277   0.70804   0.00000  Uiso   1.00
S573   S     0.09626   0.31912   0.51455   0.00000  Uiso   1.00
S574   S     0.09416   0.17992   0.96690   0.00000  Uiso   1.00
C575   C     0.49760   0.16482   0.74948   0.00000  Uiso   1.00
C576   C     0.53143   0.27883   0.95093   0.00000  Uiso   1.00
C577   C     0.49932   0.25054   0.52718   0.00000  Uiso   1.00
C578   C     0.49934   0.24935   0.97265   0.00000  Uiso   1.00
C579   C     0.40137   0.25119   0.73766   0.00000  Uiso   1.00
C580   C     0.59866   0.24943   0.76235   0.00000  Uiso   1.00
C581   C     0.34639   0.25218   0.73079   0.00000  Uiso   1.00
C582   C     0.65367   0.24937   0.76928   0.00000  Uiso   1.00
C583   C     0.52987   0.04782   0.78176   0.00000  Uiso   1.00
C584   C     0.46200   0.45200   0.75778   0.00000  Uiso   1.00
C585   C     0.52766   0.09359   0.78334   0.00000  Uiso   1.00
C586   C     0.50209   0.33503   0.75037   0.00000  Uiso   1.00
C587   C     0.46213   0.40620   0.75956   0.00000  Uiso   1.00
C588   C     0.49501   0.11620   0.74817   0.00000  Uiso   1.00
C589   C     0.50549   0.38337   0.75084   0.00000  Uiso   1.00
C590   C     0.46257   0.09235   0.71117   0.00000  Uiso   1.00
C591   C     0.55047   0.40654   0.74134   0.00000  Uiso   1.00
C592   C     0.46937   0.04607   0.70614   0.00000  Uiso   1.00
C593   C     0.54838   0.45309   0.73392   0.00000  Uiso   1.00
C594   C     0.50165   0.02402   0.74321   0.00000  Uiso   1.00
C595   C     0.50424   0.47553   0.74426   0.00000  Uiso   1.00
C596   C     0.46832   0.28002   0.54974   0.00000  Uiso   1.00
C597   C     0.46759   0.21934   0.94187   0.00000  Uiso   1.00
C598   C     0.46940   0.27880   0.60115   0.00000  Uiso   1.00
C599   C     0.46870   0.22060   0.89073   0.00000  Uiso   1.00
C600   C     0.53045   0.22182   0.60805   0.00000  Uiso   1.00
C601   C     0.53122   0.27864   0.90004   0.00000  Uiso   1.00
C602   C     0.53066   0.22162   0.55722   0.00000  Uiso   1.00
Cu603  Cu    0.50000   0.24999   0.79822   0.00000  Uiso   1.00
Cu604  Cu    0.50000   0.25000   0.70179   0.00000  Uiso   1.00
F605   F     0.65580   0.25546   0.68404   0.00000  Uiso   1.00
F606   F     0.56306   0.30774   0.97901   0.00000  Uiso   1.00
F607   F     0.34426   0.24638   0.81606   0.00000  Uiso   1.00
F608   F     0.56052   0.02655   0.81750   0.00000  Uiso   1.00
F609   F     0.42003   0.47362   0.76834   0.00000  Uiso   1.00
F610   F     0.43981   0.30664   0.62320   0.00000  Uiso   1.00
F611   F     0.43849   0.19222   0.86080   0.00000  Uiso   1.00
F612   F     0.56111   0.19358   0.63605   0.00000  Uiso   1.00
F613   F     0.56268   0.30731   0.88015   0.00000  Uiso   1.00
F614   F     0.56159   0.19326   0.53734   0.00000  Uiso   1.00
H615   H     0.55179   0.11155   0.81215   0.00000  Uiso   1.00
H616   H     0.42829   0.38834   0.76801   0.00000  Uiso   1.00
H617   H     0.35129   0.16236   0.69755   0.00000  Uiso   1.00
H618   H     0.61379   0.36290   0.82197   0.00000  Uiso   1.00
H619   H     0.45612   0.45537   0.61562   0.00000  Uiso   1.00
H620   H     0.60546   0.04367   0.66851   0.00000  Uiso   1.00
H621   H     0.44550   0.37742   0.97355   0.00000  Uiso   1.00
H622   H     0.44186   0.12539   0.51710   0.00000  Uiso   1.00
N623   N     0.50000   0.25001   0.62935   0.00000  Uiso   1.00
N624   N     0.50000   0.24999   0.87066   0.00000  Uiso   1.00
O625   O     0.50000   0.18572   0.79072   0.00000  Uiso   1.00
O626   O     0.36685   0.08792   0.65855   0.00000  Uiso   1.00
O627   O     0.38662   0.15666   0.71348   0.00000  Uiso   1.00
O628   O     0.60885   0.34982   0.69946   0.00000  Uiso   1.00
O629   O     0.65608   0.40660   0.75201   0.00000  Uiso   1.00
O630   O     0.61269   0.34297   0.79330   0.00000  Uiso   1.00
O631   O     0.38927   0.49856   0.66070   0.00000  Uiso   1.00
O632   O     0.43626   0.04567   0.60895   0.00000  Uiso   1.00
O633   O     0.47770   0.47299   0.64124   0.00000  Uiso   1.00
O634   O     0.63925   0.49678   0.74823   0.00000  Uiso   1.00
O635   O     0.61956   0.45369   0.67218   0.00000  Uiso   1.00
O636   O     0.50000   0.31427   0.70929   0.00000  Uiso   1.00
O637   O     0.57484   0.02828   0.67820   0.00000  Uiso   1.00
O638   O     0.40037   0.29686   0.97021   0.00000  Uiso   1.00
O639   O     0.39203   0.33991   0.54371   0.00000  Uiso   1.00
O640   O     0.46826   0.35903   0.99652   0.00000  Uiso   1.00
O641   O     0.39701   0.20267   0.50152   0.00000  Uiso   1.00
O642   O     0.39102   0.15686   0.92773   0.00000  Uiso   1.00
O643   O     0.46487   0.14196   0.99775   0.00000  Uiso   1.00
O644   O     0.50000   0.18573   0.70928   0.00000  Uiso   1.00
O645   O     0.50000   0.31427   0.79072   0.00000  Uiso   1.00
O646   O     0.42495   0.24999   0.78132   0.00000  Uiso   1.00
O647   O     0.57505   0.25000   0.71868   0.00000  Uiso   1.00
O648   O     0.42495   0.25000   0.69989   0.00000  Uiso   1.00
O649   O     0.57505   0.25000   0.80012   0.00000  Uiso   1.00
O650   O     0.42780   0.14353   0.63462   0.00000  Uiso   1.00
S651   S     0.40988   0.11977   0.67705   0.00000  Uiso   1.00
S652   S     0.60902   0.37699   0.74511   0.00000  Uiso   1.00
S653   S     0.44141   0.01603   0.65283   0.00000  Uiso   1.00
S654   S     0.59755   0.48277   0.70804   0.00000  Uiso   1.00
S655   S     0.42959   0.31912   0.51455   0.00000  Uiso   1.00
S656   S     0.42750   0.17992   0.96690   0.00000  Uiso   1.00
C657   C     0.83093   0.16482   0.74948   0.00000  Uiso   1.00
C658   C     0.86476   0.27883   0.95093   0.00000  Uiso   1.00
C659   C     0.83265   0.25054   0.52718   0.00000  Uiso   1.00
C660   C     0.83267   0.24935   0.97265   0.00000  Uiso   1.00
C661   C     0.73471   0.25119   0.73766   0.00000  Uiso   1.00
C662   C     0.93200   0.24943   0.76235   0.00000  Uiso   1.00
C663   C     0.67972   0.25218   0.73079   0.00000  Uiso   1.00
C664   C     0.98700   0.24937   0.76928   0.00000  Uiso   1.00
C665   C     0.86320   0.04782   0.78176   0.00000  Uiso   1.00
C666   C     0.79533   0.45200   0.75778   0.00000  Uiso   1.00
C667   C     0.86100   0.09359   0.78334   0.00000  Uiso   1.00
C668   C     0.83542   0.33503   0.75037   0.00000  Uiso   1.00
C669   C     0.79546   0.40620   0.75956   0.00000  Uiso   1.00
C670   C     0.82834   0.11620   0.74817   0.00000  Uiso   1.00
C671   C     0.83882   0.38337   0.75084   0.00000  Uiso   1.00
C672   C     0.79590   0.09235   0.71117   0.00000  Uiso   1.00
C673   C     0.88381   0.40654   0.74134   0.00000  Uiso   1.00
C674   C     0.80270   0.04607   0.70614   0.00000  Uiso   1.00
C675   C     0.88172   0.45309   0.73392   0.00000  Uiso   1.00
C676   C     0.83499   0.02402   0.74321   0.00000  Uiso   1.00
C677   C     0.83757   0.47553   0.74426   0.00000  Uiso   1.00
C678   C     0.80165   0.28002   0.54974   0.00000  Uiso   1.00
C679   C     0.80093   0.21934   0.94187   0.00000  Uiso   1.00
C680   C     0.80273   0.27880   0.60115   0.00000  Uiso   1.00
C681   C     0.80203   0.22060   0.89073   0.00000  Uiso   1.00
C682   C     0.86378   0.22182   0.60805   0.00000  Uiso   1.00
C683   C     0.86455   0.27864   0.90004   0.00000  Uiso   1.00
C684   C     0.86399   0.22162   0.55722   0.00000  Uiso   1.00
Cu685  Cu    0.83333   0.24999   0.79822   0.00000  Uiso   1.00
Cu686  Cu    0.83333   0.25000   0.70179   0.00000  Uiso   1.00
F687   F     0.98913   0.25546   0.68404   0.00000  Uiso   1.00
F688   F     0.89639   0.30774   0.97901   0.00000  Uiso   1.00
F689   F     0.67759   0.24638   0.81606   0.00000  Uiso   1.00
F690   F     0.89385   0.02655   0.81750   0.00000  Uiso   1.00
F691   F     0.75336   0.47362   0.76834   0.00000  Uiso   1.00
F692   F     0.77315   0.30664   0.62320   0.00000  Uiso   1.00
F693   F     0.77183   0.19222   0.86080   0.00000  Uiso   1.00
F694   F     0.89444   0.19358   0.63605   0.00000  Uiso   1.00
F695   F     0.89601   0.30731   0.88015   0.00000  Uiso   1.00
F696   F     0.89492   0.19326   0.53734   0.00000  Uiso   1.00
H697   H     0.88512   0.11155   0.81215   0.00000  Uiso   1.00
H698   H     0.76162   0.38834   0.76801   0.00000  Uiso   1.00
H699   H     0.68462   0.16236   0.69755   0.00000  Uiso   1.00
H700   H     0.94712   0.36290   0.82197   0.00000  Uiso   1.00
H701   H     0.78945   0.45537   0.61562   0.00000  Uiso   1.00
H702   H     0.93880   0.04367   0.66851   0.00000  Uiso   1.00
H703   H     0.77884   0.37742   0.97355   0.00000  Uiso   1.00
H704   H     0.77519   0.12539   0.51710   0.00000  Uiso   1.00
N705   N     0.83333   0.25001   0.62935   0.00000  Uiso   1.00
N706   N     0.83333   0.24999   0.87066   0.00000  Uiso   1.00
O707   O     0.83334   0.18572   0.79072   0.00000  Uiso   1.00
O708   O     0.70019   0.08792   0.65855   0.00000  Uiso   1.00
O709   O     0.71995   0.15666   0.71348   0.00000  Uiso   1.00
O710   O     0.94218   0.34982   0.69946   0.00000  Uiso   1.00
O711   O     0.98941   0.40660   0.75201   0.00000  Uiso   1.00
O712   O     0.94602   0.34297   0.79330   0.00000  Uiso   1.00
O713   O     0.72260   0.49856   0.66070   0.00000  Uiso   1.00
O714   O     0.76959   0.04567   0.60895   0.00000  Uiso   1.00
O715   O     0.81103   0.47299   0.64124   0.00000  Uiso   1.00
O716   O     0.97259   0.49678   0.74823   0.00000  Uiso   1.00
O717   O     0.95289   0.45369   0.67218   0.00000  Uiso   1.00
O718   O     0.83333   0.31427   0.70929   0.00000  Uiso   1.00
O719   O     0.90817   0.02828   0.67820   0.00000  Uiso   1.00
O720   O     0.73371   0.29686   0.97021   0.00000  Uiso   1.00
O721   O     0.72536   0.33991   0.54371   0.00000  Uiso   1.00
O722   O     0.80160   0.35903   0.99652   0.00000  Uiso   1.00
O723   O     0.73034   0.20267   0.50152   0.00000  Uiso   1.00
O724   O     0.72436   0.15686   0.92773   0.00000  Uiso   1.00
O725   O     0.79820   0.14196   0.99775   0.00000  Uiso   1.00
O726   O     0.83334   0.18573   0.70928   0.00000  Uiso   1.00
O727   O     0.83333   0.31427   0.79072   0.00000  Uiso   1.00
O728   O     0.75828   0.24999   0.78132   0.00000  Uiso   1.00
O729   O     0.90839   0.25000   0.71868   0.00000  Uiso   1.00
O730   O     0.75828   0.25000   0.69989   0.00000  Uiso   1.00
O731   O     0.90839   0.25000   0.80012   0.00000  Uiso   1.00
O732   O     0.76114   0.14353   0.63462   0.00000  Uiso   1.00
S733   S     0.74321   0.11977   0.67705   0.00000  Uiso   1.00
S734   S     0.94235   0.37699   0.74511   0.00000  Uiso   1.00
S735   S     0.77475   0.01603   0.65283   0.00000  Uiso   1.00
S736   S     0.93089   0.48277   0.70804   0.00000  Uiso   1.00
S737   S     0.76293   0.31912   0.51455   0.00000  Uiso   1.00
S738   S     0.76083   0.17992   0.96690   0.00000  Uiso   1.00
C739   C     0.16427   0.66482   0.74948   0.00000  Uiso   1.00
C740   C     0.19809   0.77883   0.95093   0.00000  Uiso   1.00
C741   C     0.16598   0.75054   0.52718   0.00000  Uiso   1.00
C742   C     0.16601   0.74935   0.97265   0.00000  Uiso   1.00
C743   C     0.06804   0.75119   0.73766   0.00000  Uiso   1.00
C744   C     0.26533   0.74943   0.76235   0.00000  Uiso   1.00
C745   C     0.01306   0.75218   0.73079   0.00000  Uiso   1.00
C746   C     0.32034   0.74937   0.76928   0.00000  Uiso   1.00
C747   C     0.19654   0.54782   0.78176   0.00000  Uiso   1.00
C748   C     0.12866   0.95200   0.75778   0.00000  Uiso   1.00
C749   C     0.19433   0.59359   0.78334   0.00000  Uiso   1.00
C750   C     0.16875   0.83503   0.75037   0.00000  Uiso   1.00
C751   C     0.12879   0.90620   0.75956   0.00000  Uiso   1.00
C752   C     0.16168   0.61620   0.74817   0.00000  Uiso   1.00
C753   C     0.17215   0.88337   0.75084   0.00000  Uiso   1.00
C754   C     0.12924   0.59235   0.71117   0.00000  Uiso   1.00
C755   C     0.21714   0.90654   0.74134   0.00000  Uiso   1.00
C756   C     0.13604   0.54607   0.70614   0.00000  Uiso   1.00
C757   C     0.21505   0.95309   0.73392   0.00000  Uiso   1.00
C758   C     0.16832   0.52402   0.74321   0.00000  Uiso   1.00
C759   C     0.17090   0.97553   0.74426   0.00000  Uiso   1.00
C760   C     0.13499   0.78002   0.54974   0.00000  Uiso   1.00
C761   C     0.13426   0.71934   0.94187   0.00000  Uiso   1.00
C762   C     0.13606   0.77880   0.60115   0.00000  Uiso   1.00
C763   C     0.13537   0.72060   0.89073   0.00000  Uiso   1.00
C764   C     0.19712   0.72182   0.60805   0.00000  Uiso   1.00
C765   C     0.19789   0.77864   0.90004   0.00000  Uiso   1.00
C766   C     0.19733   0.72162   0.55722   0.00000  Uiso   1.00
Cu767  Cu    0.16667   0.74999   0.79822   0.00000  Uiso   1.00
Cu768  Cu    0.16667   0.75000   0.70179   0.00000  Uiso   1.00
F769   F     0.32247   0.75546   0.68404   0.00000  Uiso   1.00
F770   F     0.22973   0.80774   0.97901   0.00000  Uiso   1.00
F771   F     0.01092   0.74638   0.81606   0.00000  Uiso   1.00
F772   F     0.22718   0.52655   0.81750   0.00000  Uiso   1.00
F773   F     0.08669   0.97362   0.76834   0.00000  Uiso   1.00
F774   F     0.10648   0.80664   0.62320   0.00000  Uiso   1.00
F775   F     0.10516   0.69222   0.86080   0.00000  Uiso   1.00
F776   F     0.22777   0.69358   0.63605   0.00000  Uiso   1.00
F777   F     0.22934   0.80731   0.88015   0.00000  Uiso   1.00
F778   F     0.22825   0.69326   0.53734   0.00000  Uiso   1.00
H779   H     0.21845   0.61155   0.81215   0.00000  Uiso   1.00
H780   H     0.09496   0.88834   0.76801   0.00000  Uiso   1.00
H781   H     0.01795   0.66236   0.69755   0.00000  Uiso   1.00
H782   H     0.28045   0.86290   0.82197   0.00000  Uiso   1.00
H783   H     0.12279   0.95537   0.61562   0.00000  Uiso   1.00
H784   H     0.27213   0.54367   0.66851   0.00000  Uiso   1.00
H785   H     0.11217   0.87742   0.97355   0.00000  Uiso   1.00
H786   H     0.10853   0.62539   0.51710   0.00000  Uiso   1.00
N787   N     0.16667   0.75001   0.62935   0.00000  Uiso   1.00
N788   N     0.16667   0.74999   0.87066   0.00000  Uiso   1.00
O789   O     0.16667   0.68572   0.79072   0.00000  Uiso   1.00
O790   O     0.03352   0.58792   0.65855   0.00000  Uiso   1.00
O791   O     0.05329   0.65666   0.71348   0.00000  Uiso   1.00
O792   O     0.27551   0.84982   0.69946   0.00000  Uiso   1.00
O793   O     0.32274   0.90660   0.75201   0.00000  Uiso   1.00
O794   O     0.27936   0.84297   0.79330   0.00000  Uiso   1.00
O795   O     0.05593   0.99856   0.66070   0.00000  Uiso   1.00
O796   O     0.10292   0.54567   0.60895   0.00000  Uiso   1.00
O797   O     0.14437   0.97299   0.64124   0.00000  Uiso   1.00
O798   O     0.30592   0.99678   0.74823   0.00000  Uiso   1.00
O799   O     0.28622   0.95369   0.67218   0.00000  Uiso   1.00
O800   O     0.16666   0.81427   0.70929   0.00000  Uiso   1.00
O801   O     0.24151   0.52828   0.67820   0.00000  Uiso   1.00
O802   O     0.06704   0.79686   0.97021   0.00000  Uiso   1.00
O803   O     0.05870   0.83991   0.54371   0.00000  Uiso   1.00
O804   O     0.13493   0.85903   0.99652   0.00000  Uiso   1.00
O805   O     0.06368   0.70267   0.50152   0.00000  Uiso   1.00
O806   O     0.05769   0.65686   0.92773   0.00000  Uiso   1.00
O807   O     0.13154   0.64196   0.99775   0.00000  Uiso   1.00
O808   O     0.16667   0.68573   0.70928   0.00000  Uiso   1.00
O809   O     0.16666   0.81427   0.79072   0.00000  Uiso   1.00
O810   O     0.09161   0.74999   0.78132   0.00000  Uiso   1.00
O811   O     0.24172   0.75000   0.71868   0.00000  Uiso   1.00
O812   O     0.09161   0.75000   0.69989   0.00000  Uiso   1.00
O813   O     0.24172   0.75000   0.80012   0.00000  Uiso   1.00
O814   O     0.09447   0.64353   0.63462   0.00000  Uiso   1.00
S815   S     0.07654   0.61977   0.67705   0.00000  Uiso   1.00
S816   S     0.27568   0.87699   0.74511   0.00000  Uiso   1.00
S817   S     0.10808   0.51603   0.65283   0.00000  Uiso   1.00
S818   S     0.26422   0.98277   0.70804   0.00000  Uiso   1.00
S819   S     0.09626   0.81912   0.51455   0.00000  Uiso   1.00
S820   S     0.09416   0.67992   0.96690   0.00000  Uiso   1.00
C821   C     0.49760   0.66482   0.74948   0.00000  Uiso   1.00
C822   C     0.53143   0.77883   0.95093   0.00000  Uiso   1.00
C823   C     0.49932   0.75054   0.52718   0.00000  Uiso   1.00
C824   C     0.49934   0.74935   0.97265   0.00000  Uiso   1.00
C825   C     0.40137   0.75119   0.73766   0.00000  Uiso   1.00
C826   C     0.59866   0.74943   0.76235   0.00000  Uiso   1.00
C827   C     0.34639   0.75218   0.73079   0.00000  Uiso   1.00
C828   C     0.65367   0.74937   0.76928   0.00000  Uiso   1.00
C829   C     0.52987   0.54782   0.78176   0.00000  Uiso   1.00
C830   C     0.46200   0.95200   0.75778   0.00000  Uiso   1.00
C831   C     0.52766   0.59359   0.78334   0.00000  Uiso   1.00
C832   C     0.50209   0.83503   0.75037   0.00000  Uiso   1.00
C833   C     0.46213   0.90620   0.75956   0.00000  Uiso   1.00
C834   C     0.49501   0.61620   0.74817   0.00000  Uiso   1.00
C835   C     0.50549   0.88337   0.75084   0.00000  Uiso   1.00
C836   C     0.46257   0.59235   0.71117   0.00000  Uiso   1.00
C837   C     0.55047   0.90654   0.74134   0.00000  Uiso   1.00
C838   C     0.46937   0.54607   0.70614   0.00000  Uiso   1.00
C839   C     0.54838   0.95309   0.73392   0.00000  Uiso   1.00
C840   C     0.50165   0.52402   0.74321   0.00000  Uiso   1.00
C841   C     0.50424   0.97553   0.74426   0.00000  Uiso   1.00
C842   C     0.46832   0.78002   0.54974   0.00000  Uiso   1.00
C843   C     0.46759   0.71934   0.94187   0.00000  Uiso   1.00
C844   C     0.46940   0.77880   0.60115   0.00000  Uiso   1.00
C845   C     0.46870   0.72060   0.89073   0.00000  Uiso   1.00
C846   C     0.53045   0.72182   0.60805   0.00000  Uiso   1.00
C847   C     0.53122   0.77864   0.90004   0.00000  Uiso   1.00
C848   C     0.53066   0.72162   0.55722   0.00000  Uiso   1.00
Cu849  Cu    0.50000   0.74999   0.79822   0.00000  Uiso   1.00
Cu850  Cu    0.50000   0.75000   0.70179   0.00000  Uiso   1.00
F851   F     0.65580   0.75546   0.68404   0.00000  Uiso   1.00
F852   F     0.56306   0.80774   0.97901   0.00000  Uiso   1.00
F853   F     0.34426   0.74638   0.81606   0.00000  Uiso   1.00
F854   F     0.56052   0.52655   0.81750   0.00000  Uiso   1.00
F855   F     0.42003   0.97362   0.76834   0.00000  Uiso   1.00
F856   F     0.43981   0.80664   0.62320   0.00000  Uiso   1.00
F857   F     0.43849   0.69222   0.86080   0.00000  Uiso   1.00
F858   F     0.56111   0.69358   0.63605   0.00000  Uiso   1.00
F859   F     0.56268   0.80731   0.88015   0.00000  Uiso   1.00
F860   F     0.56159   0.69326   0.53734   0.00000  Uiso   1.00
H861   H     0.55179   0.61155   0.81215   0.00000  Uiso   1.00
H862   H     0.42829   0.88834   0.76801   0.00000  Uiso   1.00
H863   H     0.35129   0.66236   0.69755   0.00000  Uiso   1.00
H864   H     0.61379   0.86290   0.82197   0.00000  Uiso   1.00
H865   H     0.45612   0.95537   0.61562   0.00000  Uiso   1.00
H866   H     0.60546   0.54367   0.66851   0.00000  Uiso   1.00
H867   H     0.44550   0.87742   0.97355   0.00000  Uiso   1.00
H868   H     0.44186   0.62539   0.51710   0.00000  Uiso   1.00
N869   N     0.50000   0.75001   0.62935   0.00000  Uiso   1.00
N870   N     0.50000   0.74999   0.87066   0.00000  Uiso   1.00
O871   O     0.50000   0.68572   0.79072   0.00000  Uiso   1.00
O872   O     0.36685   0.58792   0.65855   0.00000  Uiso   1.00
O873   O     0.38662   0.65666   0.71348   0.00000  Uiso   1.00
O874   O     0.60885   0.84982   0.69946   0.00000  Uiso   1.00
O875   O     0.65608   0.90660   0.75201   0.00000  Uiso   1.00
O876   O     0.61269   0.84297   0.79330   0.00000  Uiso   1.00
O877   O     0.38927   0.99856   0.66070   0.00000  Uiso   1.00
O878   O     0.43626   0.54567   0.60895   0.00000  Uiso   1.00
O879   O     0.47770   0.97299   0.64124   0.00000  Uiso   1.00
O880   O     0.63925   0.99678   0.74823   0.00000  Uiso   1.00
O881   O     0.61956   0.95369   0.67218   0.00000  Uiso   1.00
O882   O     0.50000   0.81427   0.70929   0.00000  Uiso   1.00
O883   O     0.57484   0.52828   0.67820   0.00000  Uiso   1.00
O884   O     0.40037   0.79686   0.97021   0.00000  Uiso   1.00
O885   O     0.39203   0.83991   0.54371   0.00000  Uiso   1.00
O886   O     0.46826   0.85903   0.99652   0.00000  Uiso   1.00
O887   O     0.39701   0.70267   0.50152   0.00000  Uiso   1.00
O888   O     0.39102   0.65686   0.92773   0.00000  Uiso   1.00
O889   O     0.46487   0.64196   0.99775   0.00000  Uiso   1.00
O890   O     0.50000   0.68573   0.70928   0.00000  Uiso   1.00
O891   O     0.50000   0.81427   0.79072   0.00000  Uiso   1.00
O892   O     0.42495   0.74999   0.78132   0.00000  Uiso   1.00
O893   O     0.57505   0.75000   0.71868   0.00000  Uiso   1.00
O894   O     0.42495   0.75000   0.69989   0.00000  Uiso   1.00
O895   O     0.57505   0.75000   0.80012   0.00000  Uiso   1.00
O896   O     0.42780   0.64353   0.63462   0.00000  Uiso   1.00
S897   S     0.40988   0.61977   0.67705   0.00000  Uiso   1.00
S898   S     0.60902   0.87699   0.74511   0.00000  Uiso   1.00
S899   S     0.44141   0.51603   0.65283   0.00000  Uiso   1.00
S900   S     0.59755   0.98277   0.70804   0.00000  Uiso   1.00
S901   S     0.42959   0.81912   0.51455   0.00000  Uiso   1.00
S902   S     0.42750   0.67992   0.96690   0.00000  Uiso   1.00
C903   C     0.83093   0.66482   0.74948   0.00000  Uiso   1.00
C904   C     0.86476   0.77883   0.95093   0.00000  Uiso   1.00
C905   C     0.83265   0.75054   0.52718   0.00000  Uiso   1.00
C906   C     0.83267   0.74935   0.97265   0.00000  Uiso   1.00
C907   C     0.73471   0.75119   0.73766   0.00000  Uiso   1.00
C908   C     0.93200   0.74943   0.76235   0.00000  Uiso   1.00
C909   C     0.67972   0.75218   0.73079   0.00000  Uiso   1.00
C910   C     0.98700   0.74937   0.76928   0.00000  Uiso   1.00
C911   C     0.86320   0.54782   0.78176   0.00000  Uiso   1.00
C912   C     0.79533   0.95200   0.75778   0.00000  Uiso   1.00
C913   C     0.86100   0.59359   0.78334   0.00000  Uiso   1.00
C914   C     0.83542   0.83503   0.75037   0.00000  Uiso   1.00
C915   C     0.79546   0.90620   0.75956   0.00000  Uiso   1.00
C916   C     0.82834   0.61620   0.74817   0.00000  Uiso   1.00
C917   C     0.83882   0.88337   0.75084   0.00000  Uiso   1.00
C918   C     0.79590   0.59235   0.71117   0.00000  Uiso   1.00
C919   C     0.88381   0.90654   0.74134   0.00000  Uiso   1.00
C920   C     0.80270   0.54607   0.70614   0.00000  Uiso   1.00
C921   C     0.88172   0.95309   0.73392   0.00000  Uiso   1.00
C922   C     0.83499   0.52402   0.74321   0.00000  Uiso   1.00
C923   C     0.83757   0.97553   0.74426   0.00000  Uiso   1.00
C924   C     0.80165   0.78002   0.54974   0.00000  Uiso   1.00
C925   C     0.80093   0.71934   0.94187   0.00000  Uiso   1.00
C926   C     0.80273   0.77880   0.60115   0.00000  Uiso   1.00
C927   C     0.80203   0.72060   0.89073   0.00000  Uiso   1.00
C928   C     0.86378   0.72182   0.60805   0.00000  Uiso   1.00
C929   C     0.86455   0.77864   0.90004   0.00000  Uiso   1.00
C930   C     0.86399   0.72162   0.55722   0.00000  Uiso   1.00
Cu931  Cu    0.83333   0.74999   0.79822   0.00000  Uiso   1.00
Cu932  Cu    0.83333   0.75000   0.70179   0.00000  Uiso   1.00
F933   F     0.98913   0.75546   0.68404   0.00000  Uiso   1.00
F934   F     0.89639   0.80774   0.97901   0.00000  Uiso   1.00
F935   F     0.67759   0.74638   0.81606   0.00000  Uiso   1.00
F936   F     0.89385   0.52655   0.81750   0.00000  Uiso   1.00
F937   F     0.75336   0.97362   0.76834   0.00000  Uiso   1.00
F938   F     0.77315   0.80664   0.62320   0.00000  Uiso   1.00
F939   F     0.77183   0.69222   0.86080   0.00000  Uiso   1.00
F940   F     0.89444   0.69358   0.63605   0.00000  Uiso   1.00
F941   F     0.89601   0.80731   0.88015   0.00000  Uiso   1.00
F942   F     0.89492   0.69326   0.53734   0.00000  Uiso   1.00
H943   H     0.88512   0.61155   0.81215   0.00000  Uiso   1.00
H944   H     0.76162   0.88834   0.76801   0.00000  Uiso   1.00
H945   H     0.68462   0.66236   0.69755   0.00000  Uiso   1.00
H946   H     0.94712   0.86290   0.82197   0.00000  Uiso   1.00
H947   H     0.78945   0.95537   0.61562   0.00000  Uiso   1.00
H948   H     0.93880   0.54367   0.66851   0.00000  Uiso   1.00
H949   H     0.77884   0.87742   0.97355   0.00000  Uiso   1.00
H950   H     0.77519   0.62539   0.51710   0.00000  Uiso   1.00
N951   N     0.83333   0.75001   0.62935   0.00000  Uiso   1.00
N952   N     0.83333   0.74999   0.87066   0.00000  Uiso   1.00
O953   O     0.83334   0.68572   0.79072   0.00000  Uiso   1.00
O954   O     0.70019   0.58792   0.65855   0.00000  Uiso   1.00
O955   O     0.71995   0.65666   0.71348   0.00000  Uiso   1.00
O956   O     0.94218   0.84982   0.69946   0.00000  Uiso   1.00
O957   O     0.98941   0.90660   0.75201   0.00000  Uiso   1.00
O958   O     0.94602   0.84297   0.79330   0.00000  Uiso   1.00
O959   O     0.72260   0.99856   0.66070   0.00000  Uiso   1.00
O960   O     0.76959   0.54567   0.60895   0.00000  Uiso   1.00
O961   O     0.81103   0.97299   0.64124   0.00000  Uiso   1.00
O962   O     0.97259   0.99678   0.74823   0.00000  Uiso   1.00
O963   O     0.95289   0.95369   0.67218   0.00000  Uiso   1.00
O964   O     0.83333   0.81427   0.70929   0.00000  Uiso   1.00
O965   O     0.90817   0.52828   0.67820   0.00000  Uiso   1.00
O966   O     0.73371   0.79686   0.97021   0.00000  Uiso   1.00
O967   O     0.72536   0.83991   0.54371   0.00000  Uiso   1.00
O968   O     0.80160   0.85903   0.99652   0.00000  Uiso   1.00
O969   O     0.73034   0.70267   0.50152   0.00000  Uiso   1.00
O970   O     0.72436   0.65686   0.92773   0.00000  Uiso   1.00
O971   O     0.79820   0.64196   0.99775   0.00000  Uiso   1.00
O972   O     0.83334   0.68573   0.70928   0.00000  Uiso   1.00
O973   O     0.83333   0.81427   0.79072   0.00000  Uiso   1.00
O974   O     0.75828   0.74999   0.78132   0.00000  Uiso   1.00
O975   O     0.90839   0.75000   0.71868   0.00000  Uiso   1.00
O976   O     0.75828   0.75000   0.69989   0.00000  Uiso   1.00
O977   O     0.90839   0.75000   0.80012   0.00000  Uiso   1.00
O978   O     0.76114   0.64353   0.63462   0.00000  Uiso   1.00
S979   S     0.74321   0.61977   0.67705   0.00000  Uiso   1.00
S980   S     0.94235   0.87699   0.74511   0.00000  Uiso   1.00
S981   S     0.77475   0.51603   0.65283   0.00000  Uiso   1.00
S982   S     0.93089   0.98277   0.70804   0.00000  Uiso   1.00
S983   S     0.76293   0.81912   0.51455   0.00000  Uiso   1.00
S984   S     0.76083   0.67992   0.96690   0.00000  Uiso   1.00
loop_
_geom_bond_atom_site_label_1
_geom_bond_atom_site_label_2
_geom_bond_distance
_geom_bond_site_symmetry_2
_ccdc_geom_bond_type
C1     O51     1.295   .     A
C1     O70     1.289   .     A
C1     C14     1.467   .     S
C2     C4      1.406   .     A
C2     F32     1.358   .     S
C2     C27     1.407   .     A
C3     C28     1.406   .     A
C3     C22     1.417   .     A
C3     C496    1.509   1_554 S
C4     C23     1.417   .     A
C4     C495    1.509   .     S
C5     O72     1.280   .     A
C5     O74     1.287   .     A
C5     C7      1.433   .     S
C6     O75     1.287   .     A
C6     C8      1.432   .     S
C6     O73     1.281   .     A
C7     C172    1.345   1_455 S
C7     F195    1.363   1_455 S
C8     C89     1.345   .     S
C8     F115    1.363   .     S
C9     C11     1.383   .     A
C9     C20     1.399   .     A
C9     F34     1.358   .     S
C10    F35     1.358   .     S
C10    C21     1.400   .     A
C10    C13     1.382   .     A
C11    C14     1.396   .     A
C11    H41     1.084   .     S
C12    O62     1.290   .     A
C12    C15     1.459   .     S
C12    O71     1.289   .     A
C13    H42     1.084   .     S
C13    C15     1.392   .     A
C14    C16     1.422   .     A
C15    C17     1.418   .     A
C16    S77     1.785   .     S
C16    C18     1.419   .     A
C17    S78     1.785   .     S
C17    C19     1.421   .     A
C18    S79     1.789   .     S
C18    C20     1.415   .     A
C19    C21     1.417   .     A
C19    S80     1.788   .     S
C20    C267    1.466   1_545 S
C21    C266    1.466   .     S
C22    S81     1.778   .     S
C22    C24     1.419   .     A
C23    S82     1.778   .     S
C23    C25     1.420   .     A
C24    F36     1.355   .     S
C24    N49     1.368   .     A
C25    N50     1.368   .     A
C25    F37     1.355   .     S
C26    N49     1.365   .     A
C26    F38     1.355   .     S
C26    C28     1.407   .     A
C27    F39     1.354   .     S
C27    N50     1.365   .     A
C28    F40     1.358   .     S
Cu29   O72     1.964   .     S
Cu29   Cu30    2.668   .     S
Cu29   O51     1.949   .     S
Cu29   O75     1.967   .     S
Cu29   N50     2.004   .     S
Cu29   O71     1.950   .     S
Cu30   O74     1.967   .     S
Cu30   O70     1.950   .     S
Cu30   O73     1.964   .     S
Cu30   N49     2.004   .     S
Cu30   O62     1.949   .     S
F31    C89     1.363   .     S
F33    C172    1.363   1_455 S
H43    O53     0.991   .     S
H44    O56     0.990   .     S
H45    O59     0.990   .     S
H46    O63     0.990   .     S
H47    O66     0.991   .     S
H48    O561    0.991   1_554 S
O52    S77     1.502   .     D
O53    S77     1.678   .     S
O54    S78     1.502   .     D
O55    S78     1.501   .     D
O56    S78     1.679   .     S
O57    S325    1.503   .     S
O58    S79     1.503   .     D
O59    S325    1.682   .     S
O60    S80     1.503   .     D
O61    S80     1.503   .     D
O63    S326    1.682   1_545 S
O64    S573    1.503   .     S
O65    S81     1.503   .     D
O66    S573    1.681   .     S
O67    S574    1.503   1_554 S
O68    S82     1.503   .     D
O69    S82     1.681   .     S
O69    H540    0.991   .     S
O76    S77     1.503   .     D
S79    O305    1.682   1_545 S
S79    O303    1.503   1_545 S
S80    O309    1.682   .     S
S81    O556    1.503   1_554 S
S81    O558    1.681   1_554 S
S82    O559    1.503   .     S
C83    O133    1.295   .     A
C83    O152    1.289   .     A
C83    C96     1.467   .     S
C84    C86     1.406   .     A
C84    F114    1.358   .     S
C84    C109    1.407   .     A
C85    C110    1.406   .     A
C85    C104    1.417   .     A
C85    C578    1.509   1_554 S
C86    C105    1.417   .     A
C86    C577    1.509   .     S
C87    O154    1.280   .     A
C87    O156    1.287   .     A
C87    C89     1.433   .     S
C88    O157    1.287   .     A
C88    C90     1.432   .     S
C88    O155    1.281   .     A
C90    C171    1.345   .     S
C90    F197    1.363   .     S
C91    C93     1.383   .     A
C91    C102    1.399   .     A
C91    F116    1.358   .     S
C92    F117    1.358   .     S
C92    C103    1.400   .     A
C92    C95     1.382   .     A
C93    C96     1.396   .     A
C93    H123    1.084   .     S
C94    O144    1.290   .     A
C94    C97     1.459   .     S
C94    O153    1.289   .     A
C95    H124    1.084   .     S
C95    C97     1.392   .     A
C96    C98     1.422   .     A
C97    C99     1.418   .     A
C98    S159    1.785   .     S
C98    C100    1.419   .     A
C99    S160    1.785   .     S
C99    C101    1.421   .     A
C100   S161    1.789   .     S
C100   C102    1.415   .     A
C101   C103    1.417   .     A
C101   S162    1.788   .     S
C102   C349    1.466   1_545 S
C103   C348    1.466   .     S
C104   S163    1.778   .     S
C104   C106    1.419   .     A
C105   S164    1.778   .     S
C105   C107    1.420   .     A
C106   F118    1.355   .     S
C106   N131    1.368   .     A
C107   N132    1.368   .     A
C107   F119    1.355   .     S
C108   N131    1.365   .     A
C108   F120    1.355   .     S
C108   C110    1.407   .     A
C109   F121    1.354   .     S
C109   N132    1.365   .     A
C110   F122    1.358   .     S
Cu111  O154    1.964   .     S
Cu111  Cu112   2.668   .     S
Cu111  O133    1.949   .     S
Cu111  O157    1.967   .     S
Cu111  N132    2.004   .     S
Cu111  O153    1.950   .     S
Cu112  O156    1.967   .     S
Cu112  O152    1.950   .     S
Cu112  O155    1.964   .     S
Cu112  N131    2.004   .     S
Cu112  O144    1.949   .     S
F113   C171    1.363   .     S
H125   O135    0.991   .     S
H126   O138    0.990   .     S
H127   O141    0.990   .     S
H128   O145    0.990   .     S
H129   O148    0.991   .     S
H130   O643    0.991   1_554 S
O134   S159    1.502   .     D
O135   S159    1.678   .     S
O136   S160    1.502   .     D
O137   S160    1.501   .     D
O138   S160    1.679   .     S
O139   S407    1.503   .     S
O140   S161    1.503   .     D
O141   S407    1.682   .     S
O142   S162    1.503   .     D
O143   S162    1.503   .     D
O145   S408    1.682   1_545 S
O146   S655    1.503   .     S
O147   S163    1.503   .     D
O148   S655    1.681   .     S
O149   S656    1.503   1_554 S
O150   S164    1.503   .     D
O151   S164    1.681   .     S
O151   H622    0.991   .     S
O158   S159    1.503   .     D
S161   O387    1.682   1_545 S
S161   O385    1.503   1_545 S
S162   O391    1.682   .     S
S163   O638    1.503   1_554 S
S163   O640    1.681   1_554 S
S164   O641    1.503   .     S
C165   O215    1.295   .     A
C165   O234    1.289   .     A
C165   C178    1.467   .     S
C166   C168    1.406   .     A
C166   F196    1.358   .     S
C166   C191    1.407   .     A
C167   C192    1.406   .     A
C167   C186    1.417   .     A
C167   C660    1.509   1_554 S
C168   C187    1.417   .     A
C168   C659    1.509   .     S
C169   O236    1.280   .     A
C169   O238    1.287   .     A
C169   C171    1.433   .     S
C170   O239    1.287   .     A
C170   C172    1.432   .     S
C170   O237    1.281   .     A
C172   C7      1.345   1_655 S
C172   F33     1.363   1_655 S
C173   C175    1.383   .     A
C173   C184    1.399   .     A
C173   F198    1.358   .     S
C174   F199    1.358   .     S
C174   C185    1.400   .     A
C174   C177    1.382   .     A
C175   C178    1.396   .     A
C175   H205    1.084   .     S
C176   O226    1.290   .     A
C176   C179    1.459   .     S
C176   O235    1.289   .     A
C177   H206    1.084   .     S
C177   C179    1.392   .     A
C178   C180    1.422   .     A
C179   C181    1.418   .     A
C180   S241    1.785   .     S
C180   C182    1.419   .     A
C181   S242    1.785   .     S
C181   C183    1.421   .     A
C182   S243    1.789   .     S
C182   C184    1.415   .     A
C183   C185    1.417   .     A
C183   S244    1.788   .     S
C184   C431    1.466   1_545 S
C185   C430    1.466   .     S
C186   S245    1.778   .     S
C186   C188    1.419   .     A
C187   S246    1.778   .     S
C187   C189    1.420   .     A
C188   F200    1.355   .     S
C188   N213    1.368   .     A
C189   N214    1.368   .     A
C189   F201    1.355   .     S
C190   N213    1.365   .     A
C190   F202    1.355   .     S
C190   C192    1.407   .     A
C191   F203    1.354   .     S
C191   N214    1.365   .     A
C192   F204    1.358   .     S
Cu193  O236    1.964   .     S
Cu193  Cu194   2.668   .     S
Cu193  O215    1.949   .     S
Cu193  O239    1.967   .     S
Cu193  N214    2.004   .     S
Cu193  O235    1.950   .     S
Cu194  O238    1.967   .     S
Cu194  O234    1.950   .     S
Cu194  O237    1.964   .     S
Cu194  N213    2.004   .     S
Cu194  O226    1.949   .     S
F195   C7      1.363   1_655 S
H207   O217    0.991   .     S
H208   O220    0.990   .     S
H209   O223    0.990   .     S
H210   O227    0.990   .     S
H211   O230    0.991   .     S
H212   O725    0.991   1_554 S
O216   S241    1.502   .     D
O217   S241    1.678   .     S
O218   S242    1.502   .     D
O219   S242    1.501   .     D
O220   S242    1.679   .     S
O221   S489    1.503   .     S
O222   S243    1.503   .     D
O223   S489    1.682   .     S
O224   S244    1.503   .     D
O225   S244    1.503   .     D
O227   S490    1.682   1_545 S
O228   S737    1.503   .     S
O229   S245    1.503   .     D
O230   S737    1.681   .     S
O231   S738    1.503   1_554 S
O232   S246    1.503   .     D
O233   S246    1.681   .     S
O233   H704    0.991   .     S
O240   S241    1.503   .     D
S243   O469    1.682   1_545 S
S243   O467    1.503   1_545 S
S244   O473    1.682   .     S
S245   O720    1.503   1_554 S
S245   O722    1.681   1_554 S
S246   O723    1.503   .     S
C247   O297    1.295   .     A
C247   O316    1.289   .     A
C247   C260    1.467   .     S
C248   C250    1.406   .     A
C248   F278    1.358   .     S
C248   C273    1.407   .     A
C249   C274    1.406   .     A
C249   C268    1.417   .     A
C249   C742    1.509   1_554 S
C250   C269    1.417   .     A
C250   C741    1.509   .     S
C251   O318    1.280   .     A
C251   O320    1.287   .     A
C251   C253    1.433   .     S
C252   O321    1.287   .     A
C252   C254    1.432   .     S
C252   O319    1.281   .     A
C253   C418    1.345   1_455 S
C253   F441    1.363   1_455 S
C254   C335    1.345   .     S
C254   F361    1.363   .     S
C255   C257    1.383   .     A
C255   C266    1.399   .     A
C255   F280    1.358   .     S
C256   F281    1.358   .     S
C256   C267    1.400   .     A
C256   C259    1.382   .     A
C257   C260    1.396   .     A
C257   H287    1.084   .     S
C258   O308    1.290   .     A
C258   C261    1.459   .     S
C258   O317    1.289   .     A
C259   H288    1.084   .     S
C259   C261    1.392   .     A
C260   C262    1.422   .     A
C261   C263    1.418   .     A
C262   S323    1.785   .     S
C262   C264    1.419   .     A
C263   S324    1.785   .     S
C263   C265    1.421   .     A
C264   S325    1.789   .     S
C264   C266    1.415   .     A
C265   C267    1.417   .     A
C265   S326    1.788   .     S
C267   C20     1.466   1_565 S
C268   S327    1.778   .     S
C268   C270    1.419   .     A
C269   S328    1.778   .     S
C269   C271    1.420   .     A
C270   F282    1.355   .     S
C270   N295    1.368   .     A
C271   N296    1.368   .     A
C271   F283    1.355   .     S
C272   N295    1.365   .     A
C272   F284    1.355   .     S
C272   C274    1.407   .     A
C273   F285    1.354   .     S
C273   N296    1.365   .     A
C274   F286    1.358   .     S
Cu275  O318    1.964   .     S
Cu275  Cu276   2.668   .     S
Cu275  O297    1.949   .     S
Cu275  O321    1.967   .     S
Cu275  N296    2.004   .     S
Cu275  O317    1.950   .     S
Cu276  O320    1.967   .     S
Cu276  O316    1.950   .     S
Cu276  O319    1.964   .     S
Cu276  N295    2.004   .     S
Cu276  O308    1.949   .     S
F277   C335    1.363   .     S
F279   C418    1.363   1_455 S
H289   O299    0.991   .     S
H290   O302    0.990   .     S
H291   O305    0.990   .     S
H292   O309    0.990   .     S
H293   O312    0.991   .     S
H294   O807    0.991   1_554 S
O298   S323    1.502   .     D
O299   S323    1.678   .     S
O300   S324    1.502   .     D
O301   S324    1.501   .     D
O302   S324    1.679   .     S
O303   S79     1.503   1_565 S
O304   S325    1.503   .     D
O305   S79     1.682   1_565 S
O306   S326    1.503   .     D
O307   S326    1.503   .     D
O310   S819    1.503   .     S
O311   S327    1.503   .     D
O312   S819    1.681   .     S
O313   S820    1.503   1_554 S
O314   S328    1.503   .     D
O315   S328    1.681   .     S
O315   H786    0.991   .     S
O322   S323    1.503   .     D
S326   O63     1.682   1_565 S
S327   O802    1.503   1_554 S
S327   O804    1.681   1_554 S
S328   O805    1.503   .     S
C329   O379    1.295   .     A
C329   O398    1.289   .     A
C329   C342    1.467   .     S
C330   C332    1.406   .     A
C330   F360    1.358   .     S
C330   C355    1.407   .     A
C331   C356    1.406   .     A
C331   C350    1.417   .     A
C331   C824    1.509   1_554 S
C332   C351    1.417   .     A
C332   C823    1.509   .     S
C333   O400    1.280   .     A
C333   O402    1.287   .     A
C333   C335    1.433   .     S
C334   O403    1.287   .     A
C334   C336    1.432   .     S
C334   O401    1.281   .     A
C336   C417    1.345   .     S
C336   F443    1.363   .     S
C337   C339    1.383   .     A
C337   C348    1.399   .     A
C337   F362    1.358   .     S
C338   F363    1.358   .     S
C338   C349    1.400   .     A
C338   C341    1.382   .     A
C339   C342    1.396   .     A
C339   H369    1.084   .     S
C340   O390    1.290   .     A
C340   C343    1.459   .     S
C340   O399    1.289   .     A
C341   H370    1.084   .     S
C341   C343    1.392   .     A
C342   C344    1.422   .     A
C343   C345    1.418   .     A
C344   S405    1.785   .     S
C344   C346    1.419   .     A
C345   S406    1.785   .     S
C345   C347    1.421   .     A
C346   S407    1.789   .     S
C346   C348    1.415   .     A
C347   C349    1.417   .     A
C347   S408    1.788   .     S
C349   C102    1.466   1_565 S
C350   S409    1.778   .     S
C350   C352    1.419   .     A
C351   S410    1.778   .     S
C351   C353    1.420   .     A
C352   F364    1.355   .     S
C352   N377    1.368   .     A
C353   N378    1.368   .     A
C353   F365    1.355   .     S
C354   N377    1.365   .     A
C354   F366    1.355   .     S
C354   C356    1.407   .     A
C355   F367    1.354   .     S
C355   N378    1.365   .     A
C356   F368    1.358   .     S
Cu357  O400    1.964   .     S
Cu357  Cu358   2.668   .     S
Cu357  O379    1.949   .     S
Cu357  O403    1.967   .     S
Cu357  N378    2.004   .     S
Cu357  O399    1.950   .     S
Cu358  O402    1.967   .     S
Cu358  O398    1.950   .     S
Cu358  O401    1.964   .     S
Cu358  N377    2.004   .     S
Cu358  O390    1.949   .     S
F359   C417    1.363   .     S
H371   O381    0.991   .     S
H372   O384    0.990   .     S
H373   O387    0.990   .     S
H374   O391    0.990   .     S
H375   O394    0.991   .     S
H376   O889    0.991   1_554 S
O380   S405    1.502   .     D
O381   S405    1.678   .     S
O382   S406    1.502   .     D
O383   S406    1.501   .     D
O384   S406    1.679   .     S
O385   S161    1.503   1_565 S
O386   S407    1.503   .     D
O387   S161    1.682   1_565 S
O388   S408    1.503   .     D
O389   S408    1.503   .     D
O392   S901    1.503   .     S
O393   S409    1.503   .     D
O394   S901    1.681   .     S
O395   S902    1.503   1_554 S
O396   S410    1.503   .     D
O397   S410    1.681   .     S
O397   H868    0.991   .     S
O404   S405    1.503   .     D
S408   O145    1.682   1_565 S
S409   O884    1.503   1_554 S
S409   O886    1.681   1_554 S
S410   O887    1.503   .     S
C411   O461    1.295   .     A
C411   O480    1.289   .     A
C411   C424    1.467   .     S
C412   C414    1.406   .     A
C412   F442    1.358   .     S
C412   C437    1.407   .     A
C413   C438    1.406   .     A
C413   C432    1.417   .     A
C413   C906    1.509   1_554 S
C414   C433    1.417   .     A
C414   C905    1.509   .     S
C415   O482    1.280   .     A
C415   O484    1.287   .     A
C415   C417    1.433   .     S
C416   O485    1.287   .     A
C416   C418    1.432   .     S
C416   O483    1.281   .     A
C418   C253    1.345   1_655 S
C418   F279    1.363   1_655 S
C419   C421    1.383   .     A
C419   C430    1.399   .     A
C419   F444    1.358   .     S
C420   F445    1.358   .     S
C420   C431    1.400   .     A
C420   C423    1.382   .     A
C421   C424    1.396   .     A
C421   H451    1.084   .     S
C422   O472    1.290   .     A
C422   C425    1.459   .     S
C422   O481    1.289   .     A
C423   H452    1.084   .     S
C423   C425    1.392   .     A
C424   C426    1.422   .     A
C425   C427    1.418   .     A
C426   S487    1.785   .     S
C426   C428    1.419   .     A
C427   S488    1.785   .     S
C427   C429    1.421   .     A
C428   S489    1.789   .     S
C428   C430    1.415   .     A
C429   C431    1.417   .     A
C429   S490    1.788   .     S
C431   C184    1.466   1_565 S
C432   S491    1.778   .     S
C432   C434    1.419   .     A
C433   S492    1.778   .     S
C433   C435    1.420   .     A
C434   F446    1.355   .     S
C434   N459    1.368   .     A
C435   N460    1.368   .     A
C435   F447    1.355   .     S
C436   N459    1.365   .     A
C436   F448    1.355   .     S
C436   C438    1.407   .     A
C437   F449    1.354   .     S
C437   N460    1.365   .     A
C438   F450    1.358   .     S
Cu439  O482    1.964   .     S
Cu439  Cu440   2.668   .     S
Cu439  O461    1.949   .     S
Cu439  O485    1.967   .     S
Cu439  N460    2.004   .     S
Cu439  O481    1.950   .     S
Cu440  O484    1.967   .     S
Cu440  O480    1.950   .     S
Cu440  O483    1.964   .     S
Cu440  N459    2.004   .     S
Cu440  O472    1.949   .     S
F441   C253    1.363   1_655 S
H453   O463    0.991   .     S
H454   O466    0.990   .     S
H455   O469    0.990   .     S
H456   O473    0.990   .     S
H457   O476    0.991   .     S
H458   O971    0.991   1_554 S
O462   S487    1.502   .     D
O463   S487    1.678   .     S
O464   S488    1.502   .     D
O465   S488    1.501   .     D
O466   S488    1.679   .     S
O467   S243    1.503   1_565 S
O468   S489    1.503   .     D
O469   S243    1.682   1_565 S
O470   S490    1.503   .     D
O471   S490    1.503   .     D
O474   S983    1.503   .     S
O475   S491    1.503   .     D
O476   S983    1.681   .     S
O477   S984    1.503   1_554 S
O478   S492    1.503   .     D
O479   S492    1.681   .     S
O479   H950    0.991   .     S
O486   S487    1.503   .     D
S490   O227    1.682   1_565 S
S491   O966    1.503   1_554 S
S491   O968    1.681   1_554 S
S492   O969    1.503   .     S
C493   O543    1.295   .     A
C493   O562    1.289   .     A
C493   C506    1.467   .     S
C494   C496    1.406   .     A
C494   F524    1.358   .     S
C494   C519    1.407   .     A
C495   C520    1.406   .     A
C495   C514    1.417   .     A
C496   C515    1.417   .     A
C496   C3      1.509   1_556 S
C497   O564    1.280   .     A
C497   O566    1.287   .     A
C497   C499    1.433   .     S
C498   O567    1.287   .     A
C498   C500    1.432   .     S
C498   O565    1.281   .     A
C499   C664    1.345   1_455 S
C499   F687    1.363   1_455 S
C500   C581    1.345   .     S
C500   F607    1.363   .     S
C501   C503    1.383   .     A
C501   C512    1.399   .     A
C501   F526    1.358   .     S
C502   F527    1.358   .     S
C502   C513    1.400   .     A
C502   C505    1.382   .     A
C503   C506    1.396   .     A
C503   H533    1.084   .     S
C504   O554    1.290   .     A
C504   C507    1.459   .     S
C504   O563    1.289   .     A
C505   H534    1.084   .     S
C505   C507    1.392   .     A
C506   C508    1.422   .     A
C507   C509    1.418   .     A
C508   S569    1.785   .     S
C508   C510    1.419   .     A
C509   S570    1.785   .     S
C509   C511    1.421   .     A
C510   S571    1.789   .     S
C510   C512    1.415   .     A
C511   C513    1.417   .     A
C511   S572    1.788   .     S
C512   C759    1.466   1_545 S
C513   C758    1.466   .     S
C514   S573    1.778   .     S
C514   C516    1.419   .     A
C515   S574    1.778   .     S
C515   C517    1.420   .     A
C516   F528    1.355   .     S
C516   N541    1.368   .     A
C517   N542    1.368   .     A
C517   F529    1.355   .     S
C518   N541    1.365   .     A
C518   F530    1.355   .     S
C518   C520    1.407   .     A
C519   F531    1.354   .     S
C519   N542    1.365   .     A
C520   F532    1.358   .     S
Cu521  O564    1.964   .     S
Cu521  Cu522   2.668   .     S
Cu521  O543    1.949   .     S
Cu521  O567    1.967   .     S
Cu521  N542    2.004   .     S
Cu521  O563    1.950   .     S
Cu522  O566    1.967   .     S
Cu522  O562    1.950   .     S
Cu522  O565    1.964   .     S
Cu522  N541    2.004   .     S
Cu522  O554    1.949   .     S
F523   C581    1.363   .     S
F525   C664    1.363   1_455 S
H535   O545    0.991   .     S
H536   O548    0.990   .     S
H537   O551    0.990   .     S
H538   O555    0.990   .     S
H539   O558    0.991   .     S
O544   S569    1.502   .     D
O545   S569    1.678   .     S
O546   S570    1.502   .     D
O547   S570    1.501   .     D
O548   S570    1.679   .     S
O549   S817    1.503   .     S
O550   S571    1.503   .     D
O551   S817    1.682   .     S
O552   S572    1.503   .     D
O553   S572    1.503   .     D
O555   S818    1.682   1_545 S
O556   S81     1.503   1_556 S
O557   S573    1.503   .     D
O558   S81     1.681   1_556 S
O560   S574    1.503   .     D
O561   S574    1.681   .     S
O561   H48     0.991   1_556 S
O568   S569    1.503   .     D
S571   O797    1.682   1_545 S
S571   O795    1.503   1_545 S
S572   O801    1.682   .     S
S574   O67     1.503   1_556 S
C575   O625    1.295   .     A
C575   O644    1.289   .     A
C575   C588    1.467   .     S
C576   C578    1.406   .     A
C576   F606    1.358   .     S
C576   C601    1.407   .     A
C577   C602    1.406   .     A
C577   C596    1.417   .     A
C578   C597    1.417   .     A
C578   C85     1.509   1_556 S
C579   O646    1.280   .     A
C579   O648    1.287   .     A
C579   C581    1.433   .     S
C580   O649    1.287   .     A
C580   C582    1.432   .     S
C580   O647    1.281   .     A
C582   C663    1.345   .     S
C582   F689    1.363   .     S
C583   C585    1.383   .     A
C583   C594    1.399   .     A
C583   F608    1.358   .     S
C584   F609    1.358   .     S
C584   C595    1.400   .     A
C584   C587    1.382   .     A
C585   C588    1.396   .     A
C585   H615    1.084   .     S
C586   O636    1.290   .     A
C586   C589    1.459   .     S
C586   O645    1.289   .     A
C587   H616    1.084   .     S
C587   C589    1.392   .     A
C588   C590    1.422   .     A
C589   C591    1.418   .     A
C590   S651    1.785   .     S
C590   C592    1.419   .     A
C591   S652    1.785   .     S
C591   C593    1.421   .     A
C592   S653    1.789   .     S
C592   C594    1.415   .     A
C593   C595    1.417   .     A
C593   S654    1.788   .     S
C594   C841    1.466   1_545 S
C595   C840    1.466   .     S
C596   S655    1.778   .     S
C596   C598    1.419   .     A
C597   S656    1.778   .     S
C597   C599    1.420   .     A
C598   F610    1.355   .     S
C598   N623    1.368   .     A
C599   N624    1.368   .     A
C599   F611    1.355   .     S
C600   N623    1.365   .     A
C600   F612    1.355   .     S
C600   C602    1.407   .     A
C601   F613    1.354   .     S
C601   N624    1.365   .     A
C602   F614    1.358   .     S
Cu603  O646    1.964   .     S
Cu603  Cu604   2.668   .     S
Cu603  O625    1.949   .     S
Cu603  O649    1.967   .     S
Cu603  N624    2.004   .     S
Cu603  O645    1.950   .     S
Cu604  O648    1.967   .     S
Cu604  O644    1.950   .     S
Cu604  O647    1.964   .     S
Cu604  N623    2.004   .     S
Cu604  O636    1.949   .     S
F605   C663    1.363   .     S
H617   O627    0.991   .     S
H618   O630    0.990   .     S
H619   O633    0.990   .     S
H620   O637    0.990   .     S
H621   O640    0.991   .     S
O626   S651    1.502   .     D
O627   S651    1.678   .     S
O628   S652    1.502   .     D
O629   S652    1.501   .     D
O630   S652    1.679   .     S
O631   S899    1.503   .     S
O632   S653    1.503   .     D
O633   S899    1.682   .     S
O634   S654    1.503   .     D
O635   S654    1.503   .     D
O637   S900    1.682   1_545 S
O638   S163    1.503   1_556 S
O639   S655    1.503   .     D
O640   S163    1.681   1_556 S
O642   S656    1.503   .     D
O643   S656    1.681   .     S
O643   H130    0.991   1_556 S
O650   S651    1.503   .     D
S653   O879    1.682   1_545 S
S653   O877    1.503   1_545 S
S654   O883    1.682   .     S
S656   O149    1.503   1_556 S
C657   O707    1.295   .     A
C657   O726    1.289   .     A
C657   C670    1.467   .     S
C658   C660    1.406   .     A
C658   F688    1.358   .     S
C658   C683    1.407   .     A
C659   C684    1.406   .     A
C659   C678    1.417   .     A
C660   C679    1.417   .     A
C660   C167    1.509   1_556 S
C661   O728    1.280   .     A
C661   O730    1.287   .     A
C661   C663    1.433   .     S
C662   O731    1.287   .     A
C662   C664    1.432   .     S
C662   O729    1.281   .     A
C664   C499    1.345   1_655 S
C664   F525    1.363   1_655 S
C665   C667    1.383   .     A
C665   C676    1.399   .     A
C665   F690    1.358   .     S
C666   F691    1.358   .     S
C666   C677    1.400   .     A
C666   C669    1.382   .     A
C667   C670    1.396   .     A
C667   H697    1.084   .     S
C668   O718    1.290   .     A
C668   C671    1.459   .     S
C668   O727    1.289   .     A
C669   H698    1.084   .     S
C669   C671    1.392   .     A
C670   C672    1.422   .     A
C671   C673    1.418   .     A
C672   S733    1.785   .     S
C672   C674    1.419   .     A
C673   S734    1.785   .     S
C673   C675    1.421   .     A
C674   S735    1.789   .     S
C674   C676    1.415   .     A
C675   C677    1.417   .     A
C675   S736    1.788   .     S
C676   C923    1.466   1_545 S
C677   C922    1.466   .     S
C678   S737    1.778   .     S
C678   C680    1.419   .     A
C679   S738    1.778   .     S
C679   C681    1.420   .     A
C680   F692    1.355   .     S
C680   N705    1.368   .     A
C681   N706    1.368   .     A
C681   F693    1.355   .     S
C682   N705    1.365   .     A
C682   F694    1.355   .     S
C682   C684    1.407   .     A
C683   F695    1.354   .     S
C683   N706    1.365   .     A
C684   F696    1.358   .     S
Cu685  O728    1.964   .     S
Cu685  Cu686   2.668   .     S
Cu685  O707    1.949   .     S
Cu685  O731    1.967   .     S
Cu685  N706    2.004   .     S
Cu685  O727    1.950   .     S
Cu686  O730    1.967   .     S
Cu686  O726    1.950   .     S
Cu686  O729    1.964   .     S
Cu686  N705    2.004   .     S
Cu686  O718    1.949   .     S
F687   C499    1.363   1_655 S
H699   O709    0.991   .     S
H700   O712    0.990   .     S
H701   O715    0.990   .     S
H702   O719    0.990   .     S
H703   O722    0.991   .     S
O708   S733    1.502   .     D
O709   S733    1.678   .     S
O710   S734    1.502   .     D
O711   S734    1.501   .     D
O712   S734    1.679   .     S
O713   S981    1.503   .     S
O714   S735    1.503   .     D
O715   S981    1.682   .     S
O716   S736    1.503   .     D
O717   S736    1.503   .     D
O719   S982    1.682   1_545 S
O720   S245    1.503   1_556 S
O721   S737    1.503   .     D
O722   S245    1.681   1_556 S
O724   S738    1.503   .     D
O725   S738    1.681   .     S
O725   H212    0.991   1_556 S
O732   S733    1.503   .     D
S735   O961    1.682   1_545 S
S735   O959    1.503   1_545 S
S736   O965    1.682   .     S
S738   O231    1.503   1_556 S
C739   O789    1.295   .     A
C739   O808    1.289   .     A
C739   C752    1.467   .     S
C740   C742    1.406   .     A
C740   F770    1.358   .     S
C740   C765    1.407   .     A
C741   C766    1.406   .     A
C741   C760    1.417   .     A
C742   C761    1.417   .     A
C742   C249    1.509   1_556 S
C743   O810    1.280   .     A
C743   O812    1.287   .     A
C743   C745    1.433   .     S
C744   O813    1.287   .     A
C744   C746    1.432   .     S
C744   O811    1.281   .     A
C745   C910    1.345   1_455 S
C745   F933    1.363   1_455 S
C746   C827    1.345   .     S
C746   F853    1.363   .     S
C747   C749    1.383   .     A
C747   C758    1.399   .     A
C747   F772    1.358   .     S
C748   F773    1.358   .     S
C748   C759    1.400   .     A
C748   C751    1.382   .     A
C749   C752    1.396   .     A
C749   H779    1.084   .     S
C750   O800    1.290   .     A
C750   C753    1.459   .     S
C750   O809    1.289   .     A
C751   H780    1.084   .     S
C751   C753    1.392   .     A
C752   C754    1.422   .     A
C753   C755    1.418   .     A
C754   S815    1.785   .     S
C754   C756    1.419   .     A
C755   S816    1.785   .     S
C755   C757    1.421   .     A
C756   S817    1.789   .     S
C756   C758    1.415   .     A
C757   C759    1.417   .     A
C757   S818    1.788   .     S
C759   C512    1.466   1_565 S
C760   S819    1.778   .     S
C760   C762    1.419   .     A
C761   S820    1.778   .     S
C761   C763    1.420   .     A
C762   F774    1.355   .     S
C762   N787    1.368   .     A
C763   N788    1.368   .     A
C763   F775    1.355   .     S
C764   N787    1.365   .     A
C764   F776    1.355   .     S
C764   C766    1.407   .     A
C765   F777    1.354   .     S
C765   N788    1.365   .     A
C766   F778    1.358   .     S
Cu767  O810    1.964   .     S
Cu767  Cu768   2.668   .     S
Cu767  O789    1.949   .     S
Cu767  O813    1.967   .     S
Cu767  N788    2.004   .     S
Cu767  O809    1.950   .     S
Cu768  O812    1.967   .     S
Cu768  O808    1.950   .     S
Cu768  O811    1.964   .     S
Cu768  N787    2.004   .     S
Cu768  O800    1.949   .     S
F769   C827    1.363   .     S
F771   C910    1.363   1_455 S
H781   O791    0.991   .     S
H782   O794    0.990   .     S
H783   O797    0.990   .     S
H784   O801    0.990   .     S
H785   O804    0.991   .     S
O790   S815    1.502   .     D
O791   S815    1.678   .     S
O792   S816    1.502   .     D
O793   S816    1.501   .     D
O794   S816    1.679   .     S
O795   S571    1.503   1_565 S
O796   S817    1.503   .     D
O797   S571    1.682   1_565 S
O798   S818    1.503   .     D
O799   S818    1.503   .     D
O802   S327    1.503   1_556 S
O803   S819    1.503   .     D
O804   S327    1.681   1_556 S
O806   S820    1.503   .     D
O807   S820    1.681   .     S
O807   H294    0.991   1_556 S
O814   S815    1.503   .     D
S818   O555    1.682   1_565 S
S820   O313    1.503   1_556 S
C821   O871    1.295   .     A
C821   O890    1.289   .     A
C821   C834    1.467   .     S
C822   C824    1.406   .     A
C822   F852    1.358   .     S
C822   C847    1.407   .     A
C823   C848    1.406   .     A
C823   C842    1.417   .     A
C824   C843    1.417   .     A
C824   C331    1.509   1_556 S
C825   O892    1.280   .     A
C825   O894    1.287   .     A
C825   C827    1.433   .     S
C826   O895    1.287   .     A
C826   C828    1.432   .     S
C826   O893    1.281   .     A
C828   C909    1.345   .     S
C828   F935    1.363   .     S
C829   C831    1.383   .     A
C829   C840    1.399   .     A
C829   F854    1.358   .     S
C830   F855    1.358   .     S
C830   C841    1.400   .     A
C830   C833    1.382   .     A
C831   C834    1.396   .     A
C831   H861    1.084   .     S
C832   O882    1.290   .     A
C832   C835    1.459   .     S
C832   O891    1.289   .     A
C833   H862    1.084   .     S
C833   C835    1.392   .     A
C834   C836    1.422   .     A
C835   C837    1.418   .     A
C836   S897    1.785   .     S
C836   C838    1.419   .     A
C837   S898    1.785   .     S
C837   C839    1.421   .     A
C838   S899    1.789   .     S
C838   C840    1.415   .     A
C839   C841    1.417   .     A
C839   S900    1.788   .     S
C841   C594    1.466   1_565 S
C842   S901    1.778   .     S
C842   C844    1.419   .     A
C843   S902    1.778   .     S
C843   C845    1.420   .     A
C844   F856    1.355   .     S
C844   N869    1.368   .     A
C845   N870    1.368   .     A
C845   F857    1.355   .     S
C846   N869    1.365   .     A
C846   F858    1.355   .     S
C846   C848    1.407   .     A
C847   F859    1.354   .     S
C847   N870    1.365   .     A
C848   F860    1.358   .     S
Cu849  O892    1.964   .     S
Cu849  Cu850   2.668   .     S
Cu849  O871    1.949   .     S
Cu849  O895    1.967   .     S
Cu849  N870    2.004   .     S
Cu849  O891    1.950   .     S
Cu850  O894    1.967   .     S
Cu850  O890    1.950   .     S
Cu850  O893    1.964   .     S
Cu850  N869    2.004   .     S
Cu850  O882    1.949   .     S
F851   C909    1.363   .     S
H863   O873    0.991   .     S
H864   O876    0.990   .     S
H865   O879    0.990   .     S
H866   O883    0.990   .     S
H867   O886    0.991   .     S
O872   S897    1.502   .     D
O873   S897    1.678   .     S
O874   S898    1.502   .     D
O875   S898    1.501   .     D
O876   S898    1.679   .     S
O877   S653    1.503   1_565 S
O878   S899    1.503   .     D
O879   S653    1.682   1_565 S
O880   S900    1.503   .     D
O881   S900    1.503   .     D
O884   S409    1.503   1_556 S
O885   S901    1.503   .     D
O886   S409    1.681   1_556 S
O888   S902    1.503   .     D
O889   S902    1.681   .     S
O889   H376    0.991   1_556 S
O896   S897    1.503   .     D
S900   O637    1.682   1_565 S
S902   O395    1.503   1_556 S
C903   O953    1.295   .     A
C903   O972    1.289   .     A
C903   C916    1.467   .     S
C904   C906    1.406   .     A
C904   F934    1.358   .     S
C904   C929    1.407   .     A
C905   C930    1.406   .     A
C905   C924    1.417   .     A
C906   C925    1.417   .     A
C906   C413    1.509   1_556 S
C907   O974    1.280   .     A
C907   O976    1.287   .     A
C907   C909    1.433   .     S
C908   O977    1.287   .     A
C908   C910    1.432   .     S
C908   O975    1.281   .     A
C910   C745    1.345   1_655 S
C910   F771    1.363   1_655 S
C911   C913    1.383   .     A
C911   C922    1.399   .     A
C911   F936    1.358   .     S
C912   F937    1.358   .     S
C912   C923    1.400   .     A
C912   C915    1.382   .     A
C913   C916    1.396   .     A
C913   H943    1.084   .     S
C914   O964    1.290   .     A
C914   C917    1.459   .     S
C914   O973    1.289   .     A
C915   H944    1.084   .     S
C915   C917    1.392   .     A
C916   C918    1.422   .     A
C917   C919    1.418   .     A
C918   S979    1.785   .     S
C918   C920    1.419   .     A
C919   S980    1.785   .     S
C919   C921    1.421   .     A
C920   S981    1.789   .     S
C920   C922    1.415   .     A
C921   C923    1.417   .     A
C921   S982    1.788   .     S
C923   C676    1.466   1_565 S
C924   S983    1.778   .     S
C924   C926    1.419   .     A
C925   S984    1.778   .     S
C925   C927    1.420   .     A
C926   F938    1.355   .     S
C926   N951    1.368   .     A
C927   N952    1.368   .     A
C927   F939    1.355   .     S
C928   N951    1.365   .     A
C928   F940    1.355   .     S
C928   C930    1.407   .     A
C929   F941    1.354   .     S
C929   N952    1.365   .     A
C930   F942    1.358   .     S
Cu931  O974    1.964   .     S
Cu931  Cu932   2.668   .     S
Cu931  O953    1.949   .     S
Cu931  O977    1.967   .     S
Cu931  N952    2.004   .     S
Cu931  O973    1.950   .     S
Cu932  O976    1.967   .     S
Cu932  O972    1.950   .     S
Cu932  O975    1.964   .     S
Cu932  N951    2.004   .     S
Cu932  O964    1.949   .     S
F933   C745    1.363   1_655 S
H945   O955    0.991   .     S
H946   O958    0.990   .     S
H947   O961    0.990   .     S
H948   O965    0.990   .     S
H949   O968    0.991   .     S
O954   S979    1.502   .     D
O955   S979    1.678   .     S
O956   S980    1.502   .     D
O957   S980    1.501   .     D
O958   S980    1.679   .     S
O959   S735    1.503   1_565 S
O960   S981    1.503   .     D
O961   S735    1.682   1_565 S
O962   S982    1.503   .     D
O963   S982    1.503   .     D
O966   S491    1.503   1_556 S
O967   S983    1.503   .     D
O968   S491    1.681   1_556 S
O970   S984    1.503   .     D
O971   S984    1.681   .     S
O971   H458    0.991   1_556 S
O978   S979    1.503   .     D
S982   O719    1.682   1_565 S
S984   O477    1.503   1_556 S
