data_str_m2_o1_o1_pcu_sym.49
_audit_creation_date              2020-01-03
_audit_creation_method            'Materials Studio'
_symmetry_space_group_name_H-M    'P1'
_symmetry_Int_Tables_number       1
_symmetry_cell_setting            triclinic
loop_
_symmetry_equiv_pos_as_xyz
  x,y,z
_cell_length_a                    32.1105
_cell_length_b                    29.7399
_cell_length_c                    29.1178
_cell_angle_alpha                 90.7115
_cell_angle_beta                  88.5460
_cell_angle_gamma                 90.2934
loop_
_atom_site_label
_atom_site_type_symbol
_atom_site_fract_x
_atom_site_fract_y
_atom_site_fract_z
_atom_site_U_iso_or_equiv
_atom_site_adp_type
_atom_site_occupancy
C1     C     0.06153   0.19317   0.16592   0.00000  Uiso   1.00
C2     C     0.49784   0.28957   0.30952   0.00000  Uiso   1.00
C3     C     0.00297   0.28946   0.02490   0.00000  Uiso   1.00
C4     C     0.00203   0.21037   0.30808   0.00000  Uiso   1.00
C5     C     0.24773   0.46015   0.02394   0.00000  Uiso   1.00
C6     C     0.24784   0.03957   0.30952   0.00000  Uiso   1.00
C7     C     0.25297   0.03946   0.02490   0.00000  Uiso   1.00
C8     C     0.25202   0.46037   0.30808   0.00000  Uiso   1.00
C9     C     0.38472   0.14699   0.12705   0.00000  Uiso   1.00
C10    C     0.11628   0.35060   0.20827   0.00000  Uiso   1.00
C11    C     0.11394   0.35556   0.12518   0.00000  Uiso   1.00
C12    C     0.43843   0.30682   0.16712   0.00000  Uiso   1.00
C13    C     0.39020   0.14011   0.20977   0.00000  Uiso   1.00
C14    C     0.11835   0.15190   0.20463   0.00000  Uiso   1.00
C15    C     0.38347   0.34920   0.12549   0.00000  Uiso   1.00
C16    C     0.38930   0.36093   0.20795   0.00000  Uiso   1.00
C17    C     0.10775   0.13716   0.12339   0.00000  Uiso   1.00
C18    C     0.13473   0.39698   0.12705   0.00000  Uiso   1.00
C19    C     0.36628   0.10060   0.20827   0.00000  Uiso   1.00
C20    C     0.36394   0.10557   0.12518   0.00000  Uiso   1.00
C21    C     0.14020   0.39011   0.20977   0.00000  Uiso   1.00
C22    C     0.36833   0.40189   0.20463   0.00000  Uiso   1.00
C23    C     0.43837   0.19319   0.16712   0.00000  Uiso   1.00
C24    C     0.13347   0.09920   0.12549   0.00000  Uiso   1.00
C25    C     0.13931   0.11094   0.20794   0.00000  Uiso   1.00
C26    C     0.35775   0.38716   0.12339   0.00000  Uiso   1.00
C27    C     0.09909   0.33613   0.16644   0.00000  Uiso   1.00
C28    C     0.40255   0.16137   0.16836   0.00000  Uiso   1.00
C29    C     0.40222   0.33793   0.16729   0.00000  Uiso   1.00
C30    C     0.09749   0.16187   0.16405   0.00000  Uiso   1.00
C31    C     0.34908   0.08613   0.16644   0.00000  Uiso   1.00
C32    C     0.15255   0.41137   0.16836   0.00000  Uiso   1.00
C33    C     0.15222   0.08793   0.16729   0.00000  Uiso   1.00
C34    C     0.06204   0.30608   0.16644   0.00000  Uiso   1.00
C35    C     0.34749   0.41186   0.16406   0.00000  Uiso   1.00
C36    C     0.48851   0.16537   0.04547   0.00000  Uiso   1.00
C37    C     0.48766   0.33391   0.28886   0.00000  Uiso   1.00
C38    C     0.01494   0.33310   0.04682   0.00000  Uiso   1.00
C39    C     0.01180   0.16673   0.28449   0.00000  Uiso   1.00
C40    C     0.23851   0.41537   0.04548   0.00000  Uiso   1.00
C41    C     0.23766   0.08391   0.28886   0.00000  Uiso   1.00
C42    C     0.26494   0.08310   0.04682   0.00000  Uiso   1.00
C43    C     0.26179   0.41672   0.28450   0.00000  Uiso   1.00
C44    C     0.37482   0.18049   0.09199   0.00000  Uiso   1.00
C45    C     0.31153   0.44317   0.16592   0.00000  Uiso   1.00
C46    C     0.11852   0.32007   0.24777   0.00000  Uiso   1.00
C47    C     0.11801   0.32848   0.08197   0.00000  Uiso   1.00
C48    C     0.39447   0.16334   0.25481   0.00000  Uiso   1.00
C49    C     0.12847   0.18793   0.23827   0.00000  Uiso   1.00
C50    C     0.38510   0.31849   0.08504   0.00000  Uiso   1.00
C51    C     0.38699   0.33809   0.25312   0.00000  Uiso   1.00
C52    C     0.09659   0.15357   0.07739   0.00000  Uiso   1.00
C53    C     0.12482   0.43048   0.09198   0.00000  Uiso   1.00
C54    C     0.36851   0.07008   0.24777   0.00000  Uiso   1.00
C55    C     0.36800   0.07849   0.08196   0.00000  Uiso   1.00
C56    C     0.18843   0.05682   0.16712   0.00000  Uiso   1.00
C57    C     0.14446   0.41335   0.25481   0.00000  Uiso   1.00
C58    C     0.37846   0.43792   0.23826   0.00000  Uiso   1.00
C59    C     0.13511   0.06849   0.08504   0.00000  Uiso   1.00
C60    C     0.13700   0.08810   0.25312   0.00000  Uiso   1.00
C61    C     0.34663   0.40360   0.07740   0.00000  Uiso   1.00
C62    C     0.18837   0.44319   0.16712   0.00000  Uiso   1.00
C63    C     0.31204   0.05608   0.16644   0.00000  Uiso   1.00
C64    C     0.49773   0.21015   0.02393   0.00000  Uiso   1.00
Cu65   Cu    0.00000   0.25000   0.21355   0.00000  Uiso   1.00
Cu66   Cu    0.00000   0.25000   0.11978   0.00000  Uiso   1.00
Cu67   Cu    0.25000  -0.00000   0.21355   0.00000  Uiso   1.00
Cu68   Cu    0.25000  -0.00000   0.11978   0.00000  Uiso   1.00
H69    H     0.46101   0.10443   0.03936   0.00000  Uiso   1.00
H70    H     0.15709   0.28285   0.28568   0.00000  Uiso   1.00
H71    H     0.13336   0.32674   0.01474   0.00000  Uiso   1.00
H72    H     0.38504   0.21991   0.29189   0.00000  Uiso   1.00
H73    H     0.10991   0.22720   0.29184   0.00000  Uiso   1.00
H74    H     0.35205   0.27647   0.04509   0.00000  Uiso   1.00
H75    H     0.37450   0.34252   0.32083   0.00000  Uiso   1.00
H76    H     0.09693   0.20503   0.03328   0.00000  Uiso   1.00
H77    H     0.14323   0.46506   0.03596   0.00000  Uiso   1.00
H78    H     0.40707   0.03284   0.28568   0.00000  Uiso   1.00
H79    H     0.38336   0.07676   0.01474   0.00000  Uiso   1.00
H80    H     0.45841   0.39343   0.29785   0.00000  Uiso   1.00
H81    H     0.13502   0.46993   0.29189   0.00000  Uiso   1.00
H82    H     0.35990   0.47716   0.29186   0.00000  Uiso   1.00
H83    H     0.10206   0.02646   0.04510   0.00000  Uiso   1.00
H84    H     0.12451   0.09252   0.32083   0.00000  Uiso   1.00
H85    H     0.34708   0.45506   0.03330   0.00000  Uiso   1.00
H86    H     0.04881   0.39009   0.04053   0.00000  Uiso   1.00
H87    H     0.04680   0.11070   0.28325   0.00000  Uiso   1.00
H88    H     0.21100   0.35444   0.03937   0.00000  Uiso   1.00
H89    H     0.20842   0.14344   0.29785   0.00000  Uiso   1.00
H90    H     0.29881   0.14009   0.04053   0.00000  Uiso   1.00
H91    H     0.29677   0.36068   0.28326   0.00000  Uiso   1.00
H92    H     0.39323   0.21507   0.03597   0.00000  Uiso   1.00
N93    N     0.00000   0.25000   0.28402   0.00000  Uiso   1.00
N94    N     0.00000   0.25000   0.04931   0.00000  Uiso   1.00
N95    N     0.25000  -0.00000   0.28402   0.00000  Uiso   1.00
N96    N     0.25000  -0.00000   0.04931   0.00000  Uiso   1.00
O97    O     0.04509   0.20491   0.20625   0.00000  Uiso   1.00
O98    O     0.20492   0.04509   0.12709   0.00000  Uiso   1.00
O99    O     0.20492   0.04509   0.20625   0.00000  Uiso   1.00
O100   O     0.29509   0.45491   0.12709   0.00000  Uiso   1.00
O101   O     0.20492   0.45491   0.12709   0.00000  Uiso   1.00
O102   O     0.29509   0.04509   0.20625   0.00000  Uiso   1.00
O103   O     0.29509   0.04509   0.12709   0.00000  Uiso   1.00
O104   O     0.20492   0.45491   0.20625   0.00000  Uiso   1.00
O105   O     0.00353   0.15438   0.08143   0.00000  Uiso   1.00
O106   O     0.46340   0.13415   0.02276   0.00000  Uiso   1.00
O107   O     0.00499   0.34718   0.25397   0.00000  Uiso   1.00
O108   O     0.45492   0.29509   0.12709   0.00000  Uiso   1.00
O109   O     0.46076   0.36306   0.31298   0.00000  Uiso   1.00
O110   O     0.49614   0.34820   0.08036   0.00000  Uiso   1.00
O111   O     0.04532   0.35967   0.02504   0.00000  Uiso   1.00
O112   O     0.48976   0.15134   0.25475   0.00000  Uiso   1.00
O113   O     0.04446   0.14069   0.30005   0.00000  Uiso   1.00
O114   O     0.25355   0.40437   0.08141   0.00000  Uiso   1.00
O115   O     0.21339   0.38416   0.02278   0.00000  Uiso   1.00
O116   O     0.25498   0.09718   0.25396   0.00000  Uiso   1.00
O117   O     0.21077   0.11307   0.31299   0.00000  Uiso   1.00
O118   O     0.24615   0.09820   0.08036   0.00000  Uiso   1.00
O119   O     0.45492   0.29509   0.20625   0.00000  Uiso   1.00
O120   O     0.29532   0.10967   0.02504   0.00000  Uiso   1.00
O121   O     0.23975   0.40134   0.25475   0.00000  Uiso   1.00
O122   O     0.29443   0.39068   0.30006   0.00000  Uiso   1.00
O123   O     0.34013   0.19721   0.09257   0.00000  Uiso   1.00
O124   O     0.40396   0.19208   0.05792   0.00000  Uiso   1.00
O125   O     0.08986   0.31757   0.27599   0.00000  Uiso   1.00
O126   O     0.15616   0.29813   0.25488   0.00000  Uiso   1.00
O127   O     0.11632   0.28747   0.08321   0.00000  Uiso   1.00
O128   O     0.12812   0.34928   0.04046   0.00000  Uiso   1.00
O129   O     0.40736   0.14347   0.28795   0.00000  Uiso   1.00
O130   O     0.04509   0.20491   0.12709   0.00000  Uiso   1.00
O131   O     0.38170   0.20787   0.25953   0.00000  Uiso   1.00
O132   O     0.16442   0.20142   0.24010   0.00000  Uiso   1.00
O133   O     0.09842   0.20451   0.26933   0.00000  Uiso   1.00
O134   O     0.41364   0.32111   0.05668   0.00000  Uiso   1.00
O135   O     0.35104   0.29040   0.07702   0.00000  Uiso   1.00
O136   O     0.38749   0.29717   0.25473   0.00000  Uiso   1.00
O137   O     0.37929   0.36269   0.29352   0.00000  Uiso   1.00
O138   O     0.07874   0.12880   0.05049   0.00000  Uiso   1.00
O139   O     0.10762   0.19715   0.06455   0.00000  Uiso   1.00
O140   O     0.09012   0.44719   0.09255   0.00000  Uiso   1.00
O141   O     0.45492   0.20491   0.12709   0.00000  Uiso   1.00
O142   O     0.15396   0.44208   0.05793   0.00000  Uiso   1.00
O143   O     0.33985   0.06758   0.27600   0.00000  Uiso   1.00
O144   O     0.40614   0.04812   0.25488   0.00000  Uiso   1.00
O145   O     0.36630   0.03749   0.08320   0.00000  Uiso   1.00
O146   O     0.37812   0.09929   0.04046   0.00000  Uiso   1.00
O147   O     0.15734   0.39348   0.28796   0.00000  Uiso   1.00
O148   O     0.13169   0.45788   0.25952   0.00000  Uiso   1.00
O149   O     0.41440   0.45145   0.24006   0.00000  Uiso   1.00
O150   O     0.34841   0.45446   0.26936   0.00000  Uiso   1.00
O151   O     0.16364   0.07113   0.05667   0.00000  Uiso   1.00
O152   O     0.04509   0.29509   0.20625   0.00000  Uiso   1.00
O153   O     0.10106   0.04038   0.07703   0.00000  Uiso   1.00
O154   O     0.13749   0.04718   0.25473   0.00000  Uiso   1.00
O155   O     0.12930   0.11270   0.29352   0.00000  Uiso   1.00
O156   O     0.32878   0.37886   0.05047   0.00000  Uiso   1.00
O157   O     0.35771   0.44716   0.06458   0.00000  Uiso   1.00
O158   O     0.04509   0.29509   0.12709   0.00000  Uiso   1.00
O159   O     0.45492   0.20491   0.20625   0.00000  Uiso   1.00
O160   O     0.29509   0.45491   0.20625   0.00000  Uiso   1.00
C161   C     0.56153   0.19317   0.16592   0.00000  Uiso   1.00
C162   C     0.99784   0.28957   0.30952   0.00000  Uiso   1.00
C163   C     0.50297   0.28946   0.02490   0.00000  Uiso   1.00
C164   C     0.50203   0.21037   0.30808   0.00000  Uiso   1.00
C165   C     0.74773   0.46015   0.02394   0.00000  Uiso   1.00
C166   C     0.74784   0.03957   0.30952   0.00000  Uiso   1.00
C167   C     0.75297   0.03946   0.02490   0.00000  Uiso   1.00
C168   C     0.75202   0.46037   0.30808   0.00000  Uiso   1.00
C169   C     0.88472   0.14699   0.12705   0.00000  Uiso   1.00
C170   C     0.61628   0.35060   0.20827   0.00000  Uiso   1.00
C171   C     0.61394   0.35556   0.12518   0.00000  Uiso   1.00
C172   C     0.93843   0.30682   0.16712   0.00000  Uiso   1.00
C173   C     0.89020   0.14011   0.20977   0.00000  Uiso   1.00
C174   C     0.61835   0.15190   0.20463   0.00000  Uiso   1.00
C175   C     0.88347   0.34920   0.12549   0.00000  Uiso   1.00
C176   C     0.88930   0.36093   0.20795   0.00000  Uiso   1.00
C177   C     0.60775   0.13716   0.12339   0.00000  Uiso   1.00
C178   C     0.63473   0.39698   0.12705   0.00000  Uiso   1.00
C179   C     0.86628   0.10060   0.20827   0.00000  Uiso   1.00
C180   C     0.86394   0.10557   0.12518   0.00000  Uiso   1.00
C181   C     0.64020   0.39011   0.20977   0.00000  Uiso   1.00
C182   C     0.86833   0.40189   0.20463   0.00000  Uiso   1.00
C183   C     0.93837   0.19319   0.16712   0.00000  Uiso   1.00
C184   C     0.63347   0.09920   0.12549   0.00000  Uiso   1.00
C185   C     0.63931   0.11094   0.20794   0.00000  Uiso   1.00
C186   C     0.85775   0.38716   0.12339   0.00000  Uiso   1.00
C187   C     0.59909   0.33613   0.16644   0.00000  Uiso   1.00
C188   C     0.90255   0.16137   0.16836   0.00000  Uiso   1.00
C189   C     0.90222   0.33793   0.16729   0.00000  Uiso   1.00
C190   C     0.59749   0.16187   0.16405   0.00000  Uiso   1.00
C191   C     0.84908   0.08613   0.16644   0.00000  Uiso   1.00
C192   C     0.65255   0.41137   0.16836   0.00000  Uiso   1.00
C193   C     0.65222   0.08793   0.16729   0.00000  Uiso   1.00
C194   C     0.56204   0.30608   0.16644   0.00000  Uiso   1.00
C195   C     0.84749   0.41186   0.16406   0.00000  Uiso   1.00
C196   C     0.98851   0.16537   0.04547   0.00000  Uiso   1.00
C197   C     0.98766   0.33391   0.28886   0.00000  Uiso   1.00
C198   C     0.51494   0.33310   0.04682   0.00000  Uiso   1.00
C199   C     0.51180   0.16673   0.28449   0.00000  Uiso   1.00
C200   C     0.73851   0.41537   0.04548   0.00000  Uiso   1.00
C201   C     0.73766   0.08391   0.28886   0.00000  Uiso   1.00
C202   C     0.76494   0.08310   0.04682   0.00000  Uiso   1.00
C203   C     0.76179   0.41672   0.28450   0.00000  Uiso   1.00
C204   C     0.87482   0.18049   0.09199   0.00000  Uiso   1.00
C205   C     0.81153   0.44317   0.16592   0.00000  Uiso   1.00
C206   C     0.61852   0.32007   0.24777   0.00000  Uiso   1.00
C207   C     0.61801   0.32848   0.08197   0.00000  Uiso   1.00
C208   C     0.89447   0.16334   0.25481   0.00000  Uiso   1.00
C209   C     0.62847   0.18793   0.23827   0.00000  Uiso   1.00
C210   C     0.88510   0.31849   0.08504   0.00000  Uiso   1.00
C211   C     0.88699   0.33809   0.25312   0.00000  Uiso   1.00
C212   C     0.59659   0.15357   0.07739   0.00000  Uiso   1.00
C213   C     0.62482   0.43048   0.09198   0.00000  Uiso   1.00
C214   C     0.86851   0.07008   0.24777   0.00000  Uiso   1.00
C215   C     0.86800   0.07849   0.08196   0.00000  Uiso   1.00
C216   C     0.68843   0.05682   0.16712   0.00000  Uiso   1.00
C217   C     0.64446   0.41335   0.25481   0.00000  Uiso   1.00
C218   C     0.87846   0.43792   0.23826   0.00000  Uiso   1.00
C219   C     0.63511   0.06849   0.08504   0.00000  Uiso   1.00
C220   C     0.63700   0.08810   0.25312   0.00000  Uiso   1.00
C221   C     0.84663   0.40360   0.07740   0.00000  Uiso   1.00
C222   C     0.68837   0.44319   0.16712   0.00000  Uiso   1.00
C223   C     0.81204   0.05608   0.16644   0.00000  Uiso   1.00
C224   C     0.99773   0.21015   0.02393   0.00000  Uiso   1.00
Cu225  Cu    0.50000   0.25000   0.21355   0.00000  Uiso   1.00
Cu226  Cu    0.50000   0.25000   0.11978   0.00000  Uiso   1.00
Cu227  Cu    0.75000  -0.00000   0.21355   0.00000  Uiso   1.00
Cu228  Cu    0.75000  -0.00000   0.11978   0.00000  Uiso   1.00
H229   H     0.96101   0.10443   0.03936   0.00000  Uiso   1.00
H230   H     0.65709   0.28285   0.28568   0.00000  Uiso   1.00
H231   H     0.63336   0.32674   0.01474   0.00000  Uiso   1.00
H232   H     0.88504   0.21991   0.29189   0.00000  Uiso   1.00
H233   H     0.60991   0.22720   0.29184   0.00000  Uiso   1.00
H234   H     0.85205   0.27647   0.04509   0.00000  Uiso   1.00
H235   H     0.87450   0.34252   0.32083   0.00000  Uiso   1.00
H236   H     0.59693   0.20503   0.03328   0.00000  Uiso   1.00
H237   H     0.64323   0.46506   0.03596   0.00000  Uiso   1.00
H238   H     0.90707   0.03284   0.28568   0.00000  Uiso   1.00
H239   H     0.88336   0.07676   0.01474   0.00000  Uiso   1.00
H240   H     0.95841   0.39343   0.29785   0.00000  Uiso   1.00
H241   H     0.63502   0.46993   0.29189   0.00000  Uiso   1.00
H242   H     0.85990   0.47716   0.29186   0.00000  Uiso   1.00
H243   H     0.60206   0.02646   0.04510   0.00000  Uiso   1.00
H244   H     0.62451   0.09252   0.32083   0.00000  Uiso   1.00
H245   H     0.84708   0.45506   0.03330   0.00000  Uiso   1.00
H246   H     0.54881   0.39009   0.04053   0.00000  Uiso   1.00
H247   H     0.54680   0.11070   0.28325   0.00000  Uiso   1.00
H248   H     0.71100   0.35444   0.03937   0.00000  Uiso   1.00
H249   H     0.70842   0.14344   0.29785   0.00000  Uiso   1.00
H250   H     0.79881   0.14009   0.04053   0.00000  Uiso   1.00
H251   H     0.79677   0.36068   0.28326   0.00000  Uiso   1.00
H252   H     0.89323   0.21507   0.03597   0.00000  Uiso   1.00
N253   N     0.50000   0.25000   0.28402   0.00000  Uiso   1.00
N254   N     0.50000   0.25000   0.04931   0.00000  Uiso   1.00
N255   N     0.75000  -0.00000   0.28402   0.00000  Uiso   1.00
N256   N     0.75000  -0.00000   0.04931   0.00000  Uiso   1.00
O257   O     0.54509   0.20491   0.20625   0.00000  Uiso   1.00
O258   O     0.70492   0.04509   0.12709   0.00000  Uiso   1.00
O259   O     0.70492   0.04509   0.20625   0.00000  Uiso   1.00
O260   O     0.79509   0.45491   0.12709   0.00000  Uiso   1.00
O261   O     0.70492   0.45491   0.12709   0.00000  Uiso   1.00
O262   O     0.79509   0.04509   0.20625   0.00000  Uiso   1.00
O263   O     0.79509   0.04509   0.12709   0.00000  Uiso   1.00
O264   O     0.70492   0.45491   0.20625   0.00000  Uiso   1.00
O265   O     0.50353   0.15438   0.08143   0.00000  Uiso   1.00
O266   O     0.96340   0.13415   0.02276   0.00000  Uiso   1.00
O267   O     0.50499   0.34718   0.25397   0.00000  Uiso   1.00
O268   O     0.95492   0.29509   0.12709   0.00000  Uiso   1.00
O269   O     0.96076   0.36306   0.31298   0.00000  Uiso   1.00
O270   O     0.99614   0.34820   0.08036   0.00000  Uiso   1.00
O271   O     0.54532   0.35967   0.02504   0.00000  Uiso   1.00
O272   O     0.98976   0.15134   0.25475   0.00000  Uiso   1.00
O273   O     0.54446   0.14069   0.30005   0.00000  Uiso   1.00
O274   O     0.75355   0.40437   0.08141   0.00000  Uiso   1.00
O275   O     0.71339   0.38416   0.02278   0.00000  Uiso   1.00
O276   O     0.75498   0.09718   0.25396   0.00000  Uiso   1.00
O277   O     0.71077   0.11307   0.31299   0.00000  Uiso   1.00
O278   O     0.74615   0.09820   0.08036   0.00000  Uiso   1.00
O279   O     0.95492   0.29509   0.20625   0.00000  Uiso   1.00
O280   O     0.79532   0.10967   0.02504   0.00000  Uiso   1.00
O281   O     0.73975   0.40134   0.25475   0.00000  Uiso   1.00
O282   O     0.79443   0.39068   0.30006   0.00000  Uiso   1.00
O283   O     0.84013   0.19721   0.09257   0.00000  Uiso   1.00
O284   O     0.90396   0.19208   0.05792   0.00000  Uiso   1.00
O285   O     0.58986   0.31757   0.27599   0.00000  Uiso   1.00
O286   O     0.65616   0.29813   0.25488   0.00000  Uiso   1.00
O287   O     0.61632   0.28747   0.08321   0.00000  Uiso   1.00
O288   O     0.62812   0.34928   0.04046   0.00000  Uiso   1.00
O289   O     0.90736   0.14347   0.28795   0.00000  Uiso   1.00
O290   O     0.54509   0.20491   0.12709   0.00000  Uiso   1.00
O291   O     0.88170   0.20787   0.25953   0.00000  Uiso   1.00
O292   O     0.66442   0.20142   0.24010   0.00000  Uiso   1.00
O293   O     0.59842   0.20451   0.26933   0.00000  Uiso   1.00
O294   O     0.91364   0.32111   0.05668   0.00000  Uiso   1.00
O295   O     0.85104   0.29040   0.07702   0.00000  Uiso   1.00
O296   O     0.88749   0.29717   0.25473   0.00000  Uiso   1.00
O297   O     0.87929   0.36269   0.29352   0.00000  Uiso   1.00
O298   O     0.57874   0.12880   0.05049   0.00000  Uiso   1.00
O299   O     0.60762   0.19715   0.06455   0.00000  Uiso   1.00
O300   O     0.59012   0.44719   0.09255   0.00000  Uiso   1.00
O301   O     0.95492   0.20491   0.12709   0.00000  Uiso   1.00
O302   O     0.65396   0.44208   0.05793   0.00000  Uiso   1.00
O303   O     0.83985   0.06758   0.27600   0.00000  Uiso   1.00
O304   O     0.90614   0.04812   0.25488   0.00000  Uiso   1.00
O305   O     0.86630   0.03749   0.08320   0.00000  Uiso   1.00
O306   O     0.87812   0.09929   0.04046   0.00000  Uiso   1.00
O307   O     0.65734   0.39348   0.28796   0.00000  Uiso   1.00
O308   O     0.63169   0.45788   0.25952   0.00000  Uiso   1.00
O309   O     0.91440   0.45145   0.24006   0.00000  Uiso   1.00
O310   O     0.84841   0.45446   0.26936   0.00000  Uiso   1.00
O311   O     0.66364   0.07113   0.05667   0.00000  Uiso   1.00
O312   O     0.54509   0.29509   0.20625   0.00000  Uiso   1.00
O313   O     0.60106   0.04038   0.07703   0.00000  Uiso   1.00
O314   O     0.63749   0.04718   0.25473   0.00000  Uiso   1.00
O315   O     0.62930   0.11270   0.29352   0.00000  Uiso   1.00
O316   O     0.82878   0.37886   0.05047   0.00000  Uiso   1.00
O317   O     0.85771   0.44716   0.06458   0.00000  Uiso   1.00
O318   O     0.54509   0.29509   0.12709   0.00000  Uiso   1.00
O319   O     0.95492   0.20491   0.20625   0.00000  Uiso   1.00
O320   O     0.79509   0.45491   0.20625   0.00000  Uiso   1.00
C321   C     0.06153   0.69317   0.16592   0.00000  Uiso   1.00
C322   C     0.49784   0.78957   0.30952   0.00000  Uiso   1.00
C323   C     0.00297   0.78946   0.02490   0.00000  Uiso   1.00
C324   C     0.00203   0.71037   0.30808   0.00000  Uiso   1.00
C325   C     0.24773   0.96015   0.02394   0.00000  Uiso   1.00
C326   C     0.24784   0.53957   0.30952   0.00000  Uiso   1.00
C327   C     0.25297   0.53946   0.02490   0.00000  Uiso   1.00
C328   C     0.25202   0.96037   0.30808   0.00000  Uiso   1.00
C329   C     0.38472   0.64699   0.12705   0.00000  Uiso   1.00
C330   C     0.11628   0.85060   0.20827   0.00000  Uiso   1.00
C331   C     0.11394   0.85556   0.12518   0.00000  Uiso   1.00
C332   C     0.43843   0.80682   0.16712   0.00000  Uiso   1.00
C333   C     0.39020   0.64011   0.20977   0.00000  Uiso   1.00
C334   C     0.11835   0.65190   0.20463   0.00000  Uiso   1.00
C335   C     0.38347   0.84920   0.12549   0.00000  Uiso   1.00
C336   C     0.38930   0.86093   0.20795   0.00000  Uiso   1.00
C337   C     0.10775   0.63716   0.12339   0.00000  Uiso   1.00
C338   C     0.13473   0.89698   0.12705   0.00000  Uiso   1.00
C339   C     0.36628   0.60060   0.20827   0.00000  Uiso   1.00
C340   C     0.36394   0.60557   0.12518   0.00000  Uiso   1.00
C341   C     0.14020   0.89011   0.20977   0.00000  Uiso   1.00
C342   C     0.36833   0.90189   0.20463   0.00000  Uiso   1.00
C343   C     0.43837   0.69319   0.16712   0.00000  Uiso   1.00
C344   C     0.13347   0.59920   0.12549   0.00000  Uiso   1.00
C345   C     0.13931   0.61094   0.20794   0.00000  Uiso   1.00
C346   C     0.35775   0.88716   0.12339   0.00000  Uiso   1.00
C347   C     0.09909   0.83613   0.16644   0.00000  Uiso   1.00
C348   C     0.40255   0.66137   0.16836   0.00000  Uiso   1.00
C349   C     0.40222   0.83793   0.16729   0.00000  Uiso   1.00
C350   C     0.09749   0.66187   0.16405   0.00000  Uiso   1.00
C351   C     0.34908   0.58613   0.16644   0.00000  Uiso   1.00
C352   C     0.15255   0.91137   0.16836   0.00000  Uiso   1.00
C353   C     0.15222   0.58793   0.16729   0.00000  Uiso   1.00
C354   C     0.06204   0.80608   0.16644   0.00000  Uiso   1.00
C355   C     0.34749   0.91186   0.16406   0.00000  Uiso   1.00
C356   C     0.48851   0.66537   0.04547   0.00000  Uiso   1.00
C357   C     0.48766   0.83391   0.28886   0.00000  Uiso   1.00
C358   C     0.01494   0.83310   0.04682   0.00000  Uiso   1.00
C359   C     0.01180   0.66673   0.28449   0.00000  Uiso   1.00
C360   C     0.23851   0.91537   0.04548   0.00000  Uiso   1.00
C361   C     0.23766   0.58391   0.28886   0.00000  Uiso   1.00
C362   C     0.26494   0.58310   0.04682   0.00000  Uiso   1.00
C363   C     0.26179   0.91672   0.28450   0.00000  Uiso   1.00
C364   C     0.37482   0.68049   0.09199   0.00000  Uiso   1.00
C365   C     0.31153   0.94317   0.16592   0.00000  Uiso   1.00
C366   C     0.11852   0.82007   0.24777   0.00000  Uiso   1.00
C367   C     0.11801   0.82848   0.08197   0.00000  Uiso   1.00
C368   C     0.39447   0.66334   0.25481   0.00000  Uiso   1.00
C369   C     0.12847   0.68793   0.23827   0.00000  Uiso   1.00
C370   C     0.38510   0.81849   0.08504   0.00000  Uiso   1.00
C371   C     0.38699   0.83809   0.25312   0.00000  Uiso   1.00
C372   C     0.09659   0.65357   0.07739   0.00000  Uiso   1.00
C373   C     0.12482   0.93048   0.09198   0.00000  Uiso   1.00
C374   C     0.36851   0.57008   0.24777   0.00000  Uiso   1.00
C375   C     0.36800   0.57849   0.08196   0.00000  Uiso   1.00
C376   C     0.18843   0.55682   0.16712   0.00000  Uiso   1.00
C377   C     0.14446   0.91335   0.25481   0.00000  Uiso   1.00
C378   C     0.37846   0.93792   0.23826   0.00000  Uiso   1.00
C379   C     0.13511   0.56849   0.08504   0.00000  Uiso   1.00
C380   C     0.13700   0.58810   0.25312   0.00000  Uiso   1.00
C381   C     0.34663   0.90360   0.07740   0.00000  Uiso   1.00
C382   C     0.18837   0.94319   0.16712   0.00000  Uiso   1.00
C383   C     0.31204   0.55608   0.16644   0.00000  Uiso   1.00
C384   C     0.49773   0.71015   0.02393   0.00000  Uiso   1.00
Cu385  Cu    0.00000   0.75000   0.21355   0.00000  Uiso   1.00
Cu386  Cu    0.00000   0.75000   0.11978   0.00000  Uiso   1.00
Cu387  Cu    0.25000   0.50000   0.21355   0.00000  Uiso   1.00
Cu388  Cu    0.25000   0.50000   0.11978   0.00000  Uiso   1.00
H389   H     0.46101   0.60443   0.03936   0.00000  Uiso   1.00
H390   H     0.15709   0.78285   0.28568   0.00000  Uiso   1.00
H391   H     0.13336   0.82674   0.01474   0.00000  Uiso   1.00
H392   H     0.38504   0.71991   0.29189   0.00000  Uiso   1.00
H393   H     0.10991   0.72720   0.29184   0.00000  Uiso   1.00
H394   H     0.35205   0.77647   0.04509   0.00000  Uiso   1.00
H395   H     0.37450   0.84252   0.32083   0.00000  Uiso   1.00
H396   H     0.09693   0.70503   0.03328   0.00000  Uiso   1.00
H397   H     0.14323   0.96506   0.03596   0.00000  Uiso   1.00
H398   H     0.40707   0.53284   0.28568   0.00000  Uiso   1.00
H399   H     0.38336   0.57676   0.01474   0.00000  Uiso   1.00
H400   H     0.45841   0.89343   0.29785   0.00000  Uiso   1.00
H401   H     0.13502   0.96993   0.29189   0.00000  Uiso   1.00
H402   H     0.35990   0.97716   0.29186   0.00000  Uiso   1.00
H403   H     0.10206   0.52646   0.04510   0.00000  Uiso   1.00
H404   H     0.12451   0.59252   0.32083   0.00000  Uiso   1.00
H405   H     0.34708   0.95506   0.03330   0.00000  Uiso   1.00
H406   H     0.04881   0.89009   0.04053   0.00000  Uiso   1.00
H407   H     0.04680   0.61070   0.28325   0.00000  Uiso   1.00
H408   H     0.21100   0.85444   0.03937   0.00000  Uiso   1.00
H409   H     0.20842   0.64344   0.29785   0.00000  Uiso   1.00
H410   H     0.29881   0.64009   0.04053   0.00000  Uiso   1.00
H411   H     0.29677   0.86068   0.28326   0.00000  Uiso   1.00
H412   H     0.39323   0.71507   0.03597   0.00000  Uiso   1.00
N413   N     0.00000   0.75000   0.28402   0.00000  Uiso   1.00
N414   N     0.00000   0.75000   0.04931   0.00000  Uiso   1.00
N415   N     0.25000   0.50000   0.28402   0.00000  Uiso   1.00
N416   N     0.25000   0.50000   0.04931   0.00000  Uiso   1.00
O417   O     0.04509   0.70491   0.20625   0.00000  Uiso   1.00
O418   O     0.20492   0.54509   0.12709   0.00000  Uiso   1.00
O419   O     0.20492   0.54509   0.20625   0.00000  Uiso   1.00
O420   O     0.29509   0.95491   0.12709   0.00000  Uiso   1.00
O421   O     0.20492   0.95491   0.12709   0.00000  Uiso   1.00
O422   O     0.29509   0.54509   0.20625   0.00000  Uiso   1.00
O423   O     0.29509   0.54509   0.12709   0.00000  Uiso   1.00
O424   O     0.20492   0.95491   0.20625   0.00000  Uiso   1.00
O425   O     0.00353   0.65438   0.08143   0.00000  Uiso   1.00
O426   O     0.46340   0.63415   0.02276   0.00000  Uiso   1.00
O427   O     0.00499   0.84718   0.25397   0.00000  Uiso   1.00
O428   O     0.45492   0.79509   0.12709   0.00000  Uiso   1.00
O429   O     0.46076   0.86306   0.31298   0.00000  Uiso   1.00
O430   O     0.49614   0.84820   0.08036   0.00000  Uiso   1.00
O431   O     0.04532   0.85967   0.02504   0.00000  Uiso   1.00
O432   O     0.48976   0.65134   0.25475   0.00000  Uiso   1.00
O433   O     0.04446   0.64069   0.30005   0.00000  Uiso   1.00
O434   O     0.25355   0.90437   0.08141   0.00000  Uiso   1.00
O435   O     0.21339   0.88416   0.02278   0.00000  Uiso   1.00
O436   O     0.25498   0.59718   0.25396   0.00000  Uiso   1.00
O437   O     0.21077   0.61307   0.31299   0.00000  Uiso   1.00
O438   O     0.24615   0.59820   0.08036   0.00000  Uiso   1.00
O439   O     0.45492   0.79509   0.20625   0.00000  Uiso   1.00
O440   O     0.29532   0.60967   0.02504   0.00000  Uiso   1.00
O441   O     0.23975   0.90134   0.25475   0.00000  Uiso   1.00
O442   O     0.29443   0.89068   0.30006   0.00000  Uiso   1.00
O443   O     0.34013   0.69721   0.09257   0.00000  Uiso   1.00
O444   O     0.40396   0.69208   0.05792   0.00000  Uiso   1.00
O445   O     0.08986   0.81757   0.27599   0.00000  Uiso   1.00
O446   O     0.15616   0.79813   0.25488   0.00000  Uiso   1.00
O447   O     0.11632   0.78747   0.08321   0.00000  Uiso   1.00
O448   O     0.12812   0.84928   0.04046   0.00000  Uiso   1.00
O449   O     0.40736   0.64347   0.28795   0.00000  Uiso   1.00
O450   O     0.04509   0.70491   0.12709   0.00000  Uiso   1.00
O451   O     0.38170   0.70787   0.25953   0.00000  Uiso   1.00
O452   O     0.16442   0.70142   0.24010   0.00000  Uiso   1.00
O453   O     0.09842   0.70451   0.26933   0.00000  Uiso   1.00
O454   O     0.41364   0.82111   0.05668   0.00000  Uiso   1.00
O455   O     0.35104   0.79040   0.07702   0.00000  Uiso   1.00
O456   O     0.38749   0.79717   0.25473   0.00000  Uiso   1.00
O457   O     0.37929   0.86269   0.29352   0.00000  Uiso   1.00
O458   O     0.07874   0.62880   0.05049   0.00000  Uiso   1.00
O459   O     0.10762   0.69715   0.06455   0.00000  Uiso   1.00
O460   O     0.09012   0.94719   0.09255   0.00000  Uiso   1.00
O461   O     0.45492   0.70491   0.12709   0.00000  Uiso   1.00
O462   O     0.15396   0.94208   0.05793   0.00000  Uiso   1.00
O463   O     0.33985   0.56758   0.27600   0.00000  Uiso   1.00
O464   O     0.40614   0.54812   0.25488   0.00000  Uiso   1.00
O465   O     0.36630   0.53749   0.08320   0.00000  Uiso   1.00
O466   O     0.37812   0.59929   0.04046   0.00000  Uiso   1.00
O467   O     0.15734   0.89348   0.28796   0.00000  Uiso   1.00
O468   O     0.13169   0.95788   0.25952   0.00000  Uiso   1.00
O469   O     0.41440   0.95145   0.24006   0.00000  Uiso   1.00
O470   O     0.34841   0.95446   0.26936   0.00000  Uiso   1.00
O471   O     0.16364   0.57113   0.05667   0.00000  Uiso   1.00
O472   O     0.04509   0.79509   0.20625   0.00000  Uiso   1.00
O473   O     0.10106   0.54038   0.07703   0.00000  Uiso   1.00
O474   O     0.13749   0.54718   0.25473   0.00000  Uiso   1.00
O475   O     0.12930   0.61270   0.29352   0.00000  Uiso   1.00
O476   O     0.32878   0.87886   0.05047   0.00000  Uiso   1.00
O477   O     0.35771   0.94716   0.06458   0.00000  Uiso   1.00
O478   O     0.04509   0.79509   0.12709   0.00000  Uiso   1.00
O479   O     0.45492   0.70491   0.20625   0.00000  Uiso   1.00
O480   O     0.29509   0.95491   0.20625   0.00000  Uiso   1.00
C481   C     0.56153   0.69317   0.16592   0.00000  Uiso   1.00
C482   C     0.99784   0.78957   0.30952   0.00000  Uiso   1.00
C483   C     0.50297   0.78946   0.02490   0.00000  Uiso   1.00
C484   C     0.50203   0.71037   0.30808   0.00000  Uiso   1.00
C485   C     0.74773   0.96015   0.02394   0.00000  Uiso   1.00
C486   C     0.74784   0.53957   0.30952   0.00000  Uiso   1.00
C487   C     0.75297   0.53946   0.02490   0.00000  Uiso   1.00
C488   C     0.75202   0.96037   0.30808   0.00000  Uiso   1.00
C489   C     0.88472   0.64699   0.12705   0.00000  Uiso   1.00
C490   C     0.61628   0.85060   0.20827   0.00000  Uiso   1.00
C491   C     0.61394   0.85556   0.12518   0.00000  Uiso   1.00
C492   C     0.93843   0.80682   0.16712   0.00000  Uiso   1.00
C493   C     0.89020   0.64011   0.20977   0.00000  Uiso   1.00
C494   C     0.61835   0.65190   0.20463   0.00000  Uiso   1.00
C495   C     0.88347   0.84920   0.12549   0.00000  Uiso   1.00
C496   C     0.88930   0.86093   0.20795   0.00000  Uiso   1.00
C497   C     0.60775   0.63716   0.12339   0.00000  Uiso   1.00
C498   C     0.63473   0.89698   0.12705   0.00000  Uiso   1.00
C499   C     0.86628   0.60060   0.20827   0.00000  Uiso   1.00
C500   C     0.86394   0.60557   0.12518   0.00000  Uiso   1.00
C501   C     0.64020   0.89011   0.20977   0.00000  Uiso   1.00
C502   C     0.86833   0.90189   0.20463   0.00000  Uiso   1.00
C503   C     0.93837   0.69319   0.16712   0.00000  Uiso   1.00
C504   C     0.63347   0.59920   0.12549   0.00000  Uiso   1.00
C505   C     0.63931   0.61094   0.20794   0.00000  Uiso   1.00
C506   C     0.85775   0.88716   0.12339   0.00000  Uiso   1.00
C507   C     0.59909   0.83613   0.16644   0.00000  Uiso   1.00
C508   C     0.90255   0.66137   0.16836   0.00000  Uiso   1.00
C509   C     0.90222   0.83793   0.16729   0.00000  Uiso   1.00
C510   C     0.59749   0.66187   0.16405   0.00000  Uiso   1.00
C511   C     0.84908   0.58613   0.16644   0.00000  Uiso   1.00
C512   C     0.65255   0.91137   0.16836   0.00000  Uiso   1.00
C513   C     0.65222   0.58793   0.16729   0.00000  Uiso   1.00
C514   C     0.56204   0.80608   0.16644   0.00000  Uiso   1.00
C515   C     0.84749   0.91186   0.16406   0.00000  Uiso   1.00
C516   C     0.98851   0.66537   0.04547   0.00000  Uiso   1.00
C517   C     0.98766   0.83391   0.28886   0.00000  Uiso   1.00
C518   C     0.51494   0.83310   0.04682   0.00000  Uiso   1.00
C519   C     0.51180   0.66673   0.28449   0.00000  Uiso   1.00
C520   C     0.73851   0.91537   0.04548   0.00000  Uiso   1.00
C521   C     0.73766   0.58391   0.28886   0.00000  Uiso   1.00
C522   C     0.76494   0.58310   0.04682   0.00000  Uiso   1.00
C523   C     0.76179   0.91672   0.28450   0.00000  Uiso   1.00
C524   C     0.87482   0.68049   0.09199   0.00000  Uiso   1.00
C525   C     0.81153   0.94317   0.16592   0.00000  Uiso   1.00
C526   C     0.61852   0.82007   0.24777   0.00000  Uiso   1.00
C527   C     0.61801   0.82848   0.08197   0.00000  Uiso   1.00
C528   C     0.89447   0.66334   0.25481   0.00000  Uiso   1.00
C529   C     0.62847   0.68793   0.23827   0.00000  Uiso   1.00
C530   C     0.88510   0.81849   0.08504   0.00000  Uiso   1.00
C531   C     0.88699   0.83809   0.25312   0.00000  Uiso   1.00
C532   C     0.59659   0.65357   0.07739   0.00000  Uiso   1.00
C533   C     0.62482   0.93048   0.09198   0.00000  Uiso   1.00
C534   C     0.86851   0.57008   0.24777   0.00000  Uiso   1.00
C535   C     0.86800   0.57849   0.08196   0.00000  Uiso   1.00
C536   C     0.68843   0.55682   0.16712   0.00000  Uiso   1.00
C537   C     0.64446   0.91335   0.25481   0.00000  Uiso   1.00
C538   C     0.87846   0.93792   0.23826   0.00000  Uiso   1.00
C539   C     0.63511   0.56849   0.08504   0.00000  Uiso   1.00
C540   C     0.63700   0.58810   0.25312   0.00000  Uiso   1.00
C541   C     0.84663   0.90360   0.07740   0.00000  Uiso   1.00
C542   C     0.68837   0.94319   0.16712   0.00000  Uiso   1.00
C543   C     0.81204   0.55608   0.16644   0.00000  Uiso   1.00
C544   C     0.99773   0.71015   0.02393   0.00000  Uiso   1.00
Cu545  Cu    0.50000   0.75000   0.21355   0.00000  Uiso   1.00
Cu546  Cu    0.50000   0.75000   0.11978   0.00000  Uiso   1.00
Cu547  Cu    0.75000   0.50000   0.21355   0.00000  Uiso   1.00
Cu548  Cu    0.75000   0.50000   0.11978   0.00000  Uiso   1.00
H549   H     0.96101   0.60443   0.03936   0.00000  Uiso   1.00
H550   H     0.65709   0.78285   0.28568   0.00000  Uiso   1.00
H551   H     0.63336   0.82674   0.01474   0.00000  Uiso   1.00
H552   H     0.88504   0.71991   0.29189   0.00000  Uiso   1.00
H553   H     0.60991   0.72720   0.29184   0.00000  Uiso   1.00
H554   H     0.85205   0.77647   0.04509   0.00000  Uiso   1.00
H555   H     0.87450   0.84252   0.32083   0.00000  Uiso   1.00
H556   H     0.59693   0.70503   0.03328   0.00000  Uiso   1.00
H557   H     0.64323   0.96506   0.03596   0.00000  Uiso   1.00
H558   H     0.90707   0.53284   0.28568   0.00000  Uiso   1.00
H559   H     0.88336   0.57676   0.01474   0.00000  Uiso   1.00
H560   H     0.95841   0.89343   0.29785   0.00000  Uiso   1.00
H561   H     0.63502   0.96993   0.29189   0.00000  Uiso   1.00
H562   H     0.85990   0.97716   0.29186   0.00000  Uiso   1.00
H563   H     0.60206   0.52646   0.04510   0.00000  Uiso   1.00
H564   H     0.62451   0.59252   0.32083   0.00000  Uiso   1.00
H565   H     0.84708   0.95506   0.03330   0.00000  Uiso   1.00
H566   H     0.54881   0.89009   0.04053   0.00000  Uiso   1.00
H567   H     0.54680   0.61070   0.28325   0.00000  Uiso   1.00
H568   H     0.71100   0.85444   0.03937   0.00000  Uiso   1.00
H569   H     0.70842   0.64344   0.29785   0.00000  Uiso   1.00
H570   H     0.79881   0.64009   0.04053   0.00000  Uiso   1.00
H571   H     0.79677   0.86068   0.28326   0.00000  Uiso   1.00
H572   H     0.89323   0.71507   0.03597   0.00000  Uiso   1.00
N573   N     0.50000   0.75000   0.28402   0.00000  Uiso   1.00
N574   N     0.50000   0.75000   0.04931   0.00000  Uiso   1.00
N575   N     0.75000   0.50000   0.28402   0.00000  Uiso   1.00
N576   N     0.75000   0.50000   0.04931   0.00000  Uiso   1.00
O577   O     0.54509   0.70491   0.20625   0.00000  Uiso   1.00
O578   O     0.70492   0.54509   0.12709   0.00000  Uiso   1.00
O579   O     0.70492   0.54509   0.20625   0.00000  Uiso   1.00
O580   O     0.79509   0.95491   0.12709   0.00000  Uiso   1.00
O581   O     0.70492   0.95491   0.12709   0.00000  Uiso   1.00
O582   O     0.79509   0.54509   0.20625   0.00000  Uiso   1.00
O583   O     0.79509   0.54509   0.12709   0.00000  Uiso   1.00
O584   O     0.70492   0.95491   0.20625   0.00000  Uiso   1.00
O585   O     0.50353   0.65438   0.08143   0.00000  Uiso   1.00
O586   O     0.96340   0.63415   0.02276   0.00000  Uiso   1.00
O587   O     0.50499   0.84718   0.25397   0.00000  Uiso   1.00
O588   O     0.95492   0.79509   0.12709   0.00000  Uiso   1.00
O589   O     0.96076   0.86306   0.31298   0.00000  Uiso   1.00
O590   O     0.99614   0.84820   0.08036   0.00000  Uiso   1.00
O591   O     0.54532   0.85967   0.02504   0.00000  Uiso   1.00
O592   O     0.98976   0.65134   0.25475   0.00000  Uiso   1.00
O593   O     0.54446   0.64069   0.30005   0.00000  Uiso   1.00
O594   O     0.75355   0.90437   0.08141   0.00000  Uiso   1.00
O595   O     0.71339   0.88416   0.02278   0.00000  Uiso   1.00
O596   O     0.75498   0.59718   0.25396   0.00000  Uiso   1.00
O597   O     0.71077   0.61307   0.31299   0.00000  Uiso   1.00
O598   O     0.74615   0.59820   0.08036   0.00000  Uiso   1.00
O599   O     0.95492   0.79509   0.20625   0.00000  Uiso   1.00
O600   O     0.79532   0.60967   0.02504   0.00000  Uiso   1.00
O601   O     0.73975   0.90134   0.25475   0.00000  Uiso   1.00
O602   O     0.79443   0.89068   0.30006   0.00000  Uiso   1.00
O603   O     0.84013   0.69721   0.09257   0.00000  Uiso   1.00
O604   O     0.90396   0.69208   0.05792   0.00000  Uiso   1.00
O605   O     0.58986   0.81757   0.27599   0.00000  Uiso   1.00
O606   O     0.65616   0.79813   0.25488   0.00000  Uiso   1.00
O607   O     0.61632   0.78747   0.08321   0.00000  Uiso   1.00
O608   O     0.62812   0.84928   0.04046   0.00000  Uiso   1.00
O609   O     0.90736   0.64347   0.28795   0.00000  Uiso   1.00
O610   O     0.54509   0.70491   0.12709   0.00000  Uiso   1.00
O611   O     0.88170   0.70787   0.25953   0.00000  Uiso   1.00
O612   O     0.66442   0.70142   0.24010   0.00000  Uiso   1.00
O613   O     0.59842   0.70451   0.26933   0.00000  Uiso   1.00
O614   O     0.91364   0.82111   0.05668   0.00000  Uiso   1.00
O615   O     0.85104   0.79040   0.07702   0.00000  Uiso   1.00
O616   O     0.88749   0.79717   0.25473   0.00000  Uiso   1.00
O617   O     0.87929   0.86269   0.29352   0.00000  Uiso   1.00
O618   O     0.57874   0.62880   0.05049   0.00000  Uiso   1.00
O619   O     0.60762   0.69715   0.06455   0.00000  Uiso   1.00
O620   O     0.59012   0.94719   0.09255   0.00000  Uiso   1.00
O621   O     0.95492   0.70491   0.12709   0.00000  Uiso   1.00
O622   O     0.65396   0.94208   0.05793   0.00000  Uiso   1.00
O623   O     0.83985   0.56758   0.27600   0.00000  Uiso   1.00
O624   O     0.90614   0.54812   0.25488   0.00000  Uiso   1.00
O625   O     0.86630   0.53749   0.08320   0.00000  Uiso   1.00
O626   O     0.87812   0.59929   0.04046   0.00000  Uiso   1.00
O627   O     0.65734   0.89348   0.28796   0.00000  Uiso   1.00
O628   O     0.63169   0.95788   0.25952   0.00000  Uiso   1.00
O629   O     0.91440   0.95145   0.24006   0.00000  Uiso   1.00
O630   O     0.84841   0.95446   0.26936   0.00000  Uiso   1.00
O631   O     0.66364   0.57113   0.05667   0.00000  Uiso   1.00
O632   O     0.54509   0.79509   0.20625   0.00000  Uiso   1.00
O633   O     0.60106   0.54038   0.07703   0.00000  Uiso   1.00
O634   O     0.63749   0.54718   0.25473   0.00000  Uiso   1.00
O635   O     0.62930   0.61270   0.29352   0.00000  Uiso   1.00
O636   O     0.82878   0.87886   0.05047   0.00000  Uiso   1.00
O637   O     0.85771   0.94716   0.06458   0.00000  Uiso   1.00
O638   O     0.54509   0.79509   0.12709   0.00000  Uiso   1.00
O639   O     0.95492   0.70491   0.20625   0.00000  Uiso   1.00
O640   O     0.79509   0.95491   0.20625   0.00000  Uiso   1.00
C641   C     0.06153   0.19317   0.49926   0.00000  Uiso   1.00
C642   C     0.49784   0.28957   0.64285   0.00000  Uiso   1.00
C643   C     0.00297   0.28946   0.35823   0.00000  Uiso   1.00
C644   C     0.00203   0.21037   0.64141   0.00000  Uiso   1.00
C645   C     0.24773   0.46015   0.35727   0.00000  Uiso   1.00
C646   C     0.24784   0.03957   0.64285   0.00000  Uiso   1.00
C647   C     0.25297   0.03946   0.35823   0.00000  Uiso   1.00
C648   C     0.25202   0.46037   0.64141   0.00000  Uiso   1.00
C649   C     0.38472   0.14699   0.46038   0.00000  Uiso   1.00
C650   C     0.11628   0.35060   0.54160   0.00000  Uiso   1.00
C651   C     0.11394   0.35556   0.45851   0.00000  Uiso   1.00
C652   C     0.43843   0.30682   0.50045   0.00000  Uiso   1.00
C653   C     0.39020   0.14011   0.54310   0.00000  Uiso   1.00
C654   C     0.11835   0.15190   0.53797   0.00000  Uiso   1.00
C655   C     0.38347   0.34920   0.45882   0.00000  Uiso   1.00
C656   C     0.38930   0.36093   0.54128   0.00000  Uiso   1.00
C657   C     0.10775   0.13716   0.45672   0.00000  Uiso   1.00
C658   C     0.13473   0.39698   0.46038   0.00000  Uiso   1.00
C659   C     0.36628   0.10060   0.54160   0.00000  Uiso   1.00
C660   C     0.36394   0.10557   0.45851   0.00000  Uiso   1.00
C661   C     0.14020   0.39011   0.54310   0.00000  Uiso   1.00
C662   C     0.36833   0.40189   0.53797   0.00000  Uiso   1.00
C663   C     0.43837   0.19319   0.50046   0.00000  Uiso   1.00
C664   C     0.13347   0.09920   0.45882   0.00000  Uiso   1.00
C665   C     0.13931   0.11094   0.54128   0.00000  Uiso   1.00
C666   C     0.35775   0.38716   0.45672   0.00000  Uiso   1.00
C667   C     0.09909   0.33613   0.49977   0.00000  Uiso   1.00
C668   C     0.40255   0.16137   0.50169   0.00000  Uiso   1.00
C669   C     0.40222   0.33793   0.50062   0.00000  Uiso   1.00
C670   C     0.09749   0.16187   0.49739   0.00000  Uiso   1.00
C671   C     0.34908   0.08613   0.49977   0.00000  Uiso   1.00
C672   C     0.15255   0.41137   0.50169   0.00000  Uiso   1.00
C673   C     0.15222   0.08793   0.50062   0.00000  Uiso   1.00
C674   C     0.06204   0.30608   0.49978   0.00000  Uiso   1.00
C675   C     0.34749   0.41186   0.49739   0.00000  Uiso   1.00
C676   C     0.48851   0.16537   0.37881   0.00000  Uiso   1.00
C677   C     0.48766   0.33391   0.62220   0.00000  Uiso   1.00
C678   C     0.01494   0.33310   0.38016   0.00000  Uiso   1.00
C679   C     0.01180   0.16673   0.61783   0.00000  Uiso   1.00
C680   C     0.23851   0.41537   0.37881   0.00000  Uiso   1.00
C681   C     0.23766   0.08391   0.62220   0.00000  Uiso   1.00
C682   C     0.26494   0.08310   0.38016   0.00000  Uiso   1.00
C683   C     0.26179   0.41672   0.61783   0.00000  Uiso   1.00
C684   C     0.37482   0.18049   0.42532   0.00000  Uiso   1.00
C685   C     0.31153   0.44317   0.49926   0.00000  Uiso   1.00
C686   C     0.11852   0.32007   0.58110   0.00000  Uiso   1.00
C687   C     0.11801   0.32848   0.41530   0.00000  Uiso   1.00
C688   C     0.39447   0.16334   0.58814   0.00000  Uiso   1.00
C689   C     0.12847   0.18793   0.57160   0.00000  Uiso   1.00
C690   C     0.38510   0.31849   0.41837   0.00000  Uiso   1.00
C691   C     0.38699   0.33809   0.58645   0.00000  Uiso   1.00
C692   C     0.09659   0.15357   0.41073   0.00000  Uiso   1.00
C693   C     0.12482   0.43048   0.42532   0.00000  Uiso   1.00
C694   C     0.36851   0.07008   0.58110   0.00000  Uiso   1.00
C695   C     0.36800   0.07849   0.41529   0.00000  Uiso   1.00
C696   C     0.18843   0.05682   0.50045   0.00000  Uiso   1.00
C697   C     0.14446   0.41335   0.58814   0.00000  Uiso   1.00
C698   C     0.37846   0.43792   0.57160   0.00000  Uiso   1.00
C699   C     0.13511   0.06849   0.41838   0.00000  Uiso   1.00
C700   C     0.13700   0.08810   0.58645   0.00000  Uiso   1.00
C701   C     0.34663   0.40360   0.41073   0.00000  Uiso   1.00
C702   C     0.18837   0.44319   0.50046   0.00000  Uiso   1.00
C703   C     0.31204   0.05608   0.49978   0.00000  Uiso   1.00
C704   C     0.49773   0.21015   0.35727   0.00000  Uiso   1.00
Cu705  Cu    0.00000   0.25000   0.54689   0.00000  Uiso   1.00
Cu706  Cu    0.00000   0.25000   0.45311   0.00000  Uiso   1.00
Cu707  Cu    0.25000  -0.00000   0.54689   0.00000  Uiso   1.00
Cu708  Cu    0.25000  -0.00000   0.45311   0.00000  Uiso   1.00
H709   H     0.46101   0.10443   0.37269   0.00000  Uiso   1.00
H710   H     0.15709   0.28285   0.61901   0.00000  Uiso   1.00
H711   H     0.13336   0.32674   0.34807   0.00000  Uiso   1.00
H712   H     0.38504   0.21991   0.62523   0.00000  Uiso   1.00
H713   H     0.10991   0.22720   0.62517   0.00000  Uiso   1.00
H714   H     0.35205   0.27647   0.37843   0.00000  Uiso   1.00
H715   H     0.37450   0.34252   0.65417   0.00000  Uiso   1.00
H716   H     0.09693   0.20503   0.36661   0.00000  Uiso   1.00
H717   H     0.14323   0.46506   0.36930   0.00000  Uiso   1.00
H718   H     0.40707   0.03284   0.61902   0.00000  Uiso   1.00
H719   H     0.38336   0.07676   0.34807   0.00000  Uiso   1.00
H720   H     0.45841   0.39343   0.63118   0.00000  Uiso   1.00
H721   H     0.13502   0.46993   0.62522   0.00000  Uiso   1.00
H722   H     0.35990   0.47716   0.62520   0.00000  Uiso   1.00
H723   H     0.10206   0.02646   0.37843   0.00000  Uiso   1.00
H724   H     0.12451   0.09252   0.65417   0.00000  Uiso   1.00
H725   H     0.34708   0.45506   0.36663   0.00000  Uiso   1.00
H726   H     0.04881   0.39009   0.37386   0.00000  Uiso   1.00
H727   H     0.04680   0.11070   0.61659   0.00000  Uiso   1.00
H728   H     0.21100   0.35444   0.37271   0.00000  Uiso   1.00
H729   H     0.20842   0.14344   0.63118   0.00000  Uiso   1.00
H730   H     0.29881   0.14009   0.37386   0.00000  Uiso   1.00
H731   H     0.29677   0.36068   0.61660   0.00000  Uiso   1.00
H732   H     0.39323   0.21507   0.36930   0.00000  Uiso   1.00
N733   N     0.00000   0.25000   0.61736   0.00000  Uiso   1.00
N734   N     0.00000   0.25000   0.38264   0.00000  Uiso   1.00
N735   N     0.25000  -0.00000   0.61736   0.00000  Uiso   1.00
N736   N     0.25000  -0.00000   0.38264   0.00000  Uiso   1.00
O737   O     0.04509   0.20491   0.53958   0.00000  Uiso   1.00
O738   O     0.20492   0.04509   0.46042   0.00000  Uiso   1.00
O739   O     0.20492   0.04509   0.53958   0.00000  Uiso   1.00
O740   O     0.29509   0.45491   0.46042   0.00000  Uiso   1.00
O741   O     0.20492   0.45491   0.46042   0.00000  Uiso   1.00
O742   O     0.29509   0.04509   0.53958   0.00000  Uiso   1.00
O743   O     0.29509   0.04509   0.46042   0.00000  Uiso   1.00
O744   O     0.20492   0.45491   0.53958   0.00000  Uiso   1.00
O745   O     0.00353   0.15438   0.41476   0.00000  Uiso   1.00
O746   O     0.46340   0.13415   0.35609   0.00000  Uiso   1.00
O747   O     0.00499   0.34718   0.58730   0.00000  Uiso   1.00
O748   O     0.45492   0.29509   0.46042   0.00000  Uiso   1.00
O749   O     0.46076   0.36306   0.64632   0.00000  Uiso   1.00
O750   O     0.49614   0.34820   0.41369   0.00000  Uiso   1.00
O751   O     0.04532   0.35967   0.35838   0.00000  Uiso   1.00
O752   O     0.48976   0.15134   0.58808   0.00000  Uiso   1.00
O753   O     0.04446   0.14069   0.63338   0.00000  Uiso   1.00
O754   O     0.25355   0.40437   0.41475   0.00000  Uiso   1.00
O755   O     0.21339   0.38416   0.35611   0.00000  Uiso   1.00
O756   O     0.25498   0.09718   0.58729   0.00000  Uiso   1.00
O757   O     0.21077   0.11307   0.64632   0.00000  Uiso   1.00
O758   O     0.24615   0.09820   0.41369   0.00000  Uiso   1.00
O759   O     0.45492   0.29509   0.53958   0.00000  Uiso   1.00
O760   O     0.29532   0.10967   0.35838   0.00000  Uiso   1.00
O761   O     0.23975   0.40134   0.58808   0.00000  Uiso   1.00
O762   O     0.29443   0.39068   0.63339   0.00000  Uiso   1.00
O763   O     0.34013   0.19721   0.42590   0.00000  Uiso   1.00
O764   O     0.40396   0.19208   0.39125   0.00000  Uiso   1.00
O765   O     0.08986   0.31757   0.60933   0.00000  Uiso   1.00
O766   O     0.15616   0.29813   0.58821   0.00000  Uiso   1.00
O767   O     0.11632   0.28747   0.41655   0.00000  Uiso   1.00
O768   O     0.12812   0.34928   0.37380   0.00000  Uiso   1.00
O769   O     0.40736   0.14347   0.62129   0.00000  Uiso   1.00
O770   O     0.04509   0.20491   0.46042   0.00000  Uiso   1.00
O771   O     0.38170   0.20787   0.59286   0.00000  Uiso   1.00
O772   O     0.16442   0.20142   0.57344   0.00000  Uiso   1.00
O773   O     0.09842   0.20451   0.60266   0.00000  Uiso   1.00
O774   O     0.41364   0.32111   0.39001   0.00000  Uiso   1.00
O775   O     0.35104   0.29040   0.41035   0.00000  Uiso   1.00
O776   O     0.38749   0.29717   0.58806   0.00000  Uiso   1.00
O777   O     0.37929   0.36269   0.62685   0.00000  Uiso   1.00
O778   O     0.07874   0.12880   0.38382   0.00000  Uiso   1.00
O779   O     0.10762   0.19715   0.39788   0.00000  Uiso   1.00
O780   O     0.09012   0.44719   0.42588   0.00000  Uiso   1.00
O781   O     0.45492   0.20491   0.46042   0.00000  Uiso   1.00
O782   O     0.15396   0.44208   0.39126   0.00000  Uiso   1.00
O783   O     0.33985   0.06758   0.60933   0.00000  Uiso   1.00
O784   O     0.40614   0.04812   0.58821   0.00000  Uiso   1.00
O785   O     0.36630   0.03749   0.41653   0.00000  Uiso   1.00
O786   O     0.37812   0.09929   0.37380   0.00000  Uiso   1.00
O787   O     0.15734   0.39348   0.62129   0.00000  Uiso   1.00
O788   O     0.13169   0.45788   0.59286   0.00000  Uiso   1.00
O789   O     0.41440   0.45145   0.57340   0.00000  Uiso   1.00
O790   O     0.34841   0.45446   0.60269   0.00000  Uiso   1.00
O791   O     0.16364   0.07113   0.39001   0.00000  Uiso   1.00
O792   O     0.04509   0.29509   0.53958   0.00000  Uiso   1.00
O793   O     0.10106   0.04038   0.41036   0.00000  Uiso   1.00
O794   O     0.13749   0.04718   0.58806   0.00000  Uiso   1.00
O795   O     0.12930   0.11270   0.62685   0.00000  Uiso   1.00
O796   O     0.32878   0.37886   0.38380   0.00000  Uiso   1.00
O797   O     0.35771   0.44716   0.39792   0.00000  Uiso   1.00
O798   O     0.04509   0.29509   0.46042   0.00000  Uiso   1.00
O799   O     0.45492   0.20491   0.53958   0.00000  Uiso   1.00
O800   O     0.29509   0.45491   0.53958   0.00000  Uiso   1.00
C801   C     0.56153   0.19317   0.49926   0.00000  Uiso   1.00
C802   C     0.99784   0.28957   0.64285   0.00000  Uiso   1.00
C803   C     0.50297   0.28946   0.35823   0.00000  Uiso   1.00
C804   C     0.50203   0.21037   0.64141   0.00000  Uiso   1.00
C805   C     0.74773   0.46015   0.35727   0.00000  Uiso   1.00
C806   C     0.74784   0.03957   0.64285   0.00000  Uiso   1.00
C807   C     0.75297   0.03946   0.35823   0.00000  Uiso   1.00
C808   C     0.75202   0.46037   0.64141   0.00000  Uiso   1.00
C809   C     0.88472   0.14699   0.46038   0.00000  Uiso   1.00
C810   C     0.61628   0.35060   0.54160   0.00000  Uiso   1.00
C811   C     0.61394   0.35556   0.45851   0.00000  Uiso   1.00
C812   C     0.93843   0.30682   0.50045   0.00000  Uiso   1.00
C813   C     0.89020   0.14011   0.54310   0.00000  Uiso   1.00
C814   C     0.61835   0.15190   0.53797   0.00000  Uiso   1.00
C815   C     0.88347   0.34920   0.45882   0.00000  Uiso   1.00
C816   C     0.88930   0.36093   0.54128   0.00000  Uiso   1.00
C817   C     0.60775   0.13716   0.45672   0.00000  Uiso   1.00
C818   C     0.63473   0.39698   0.46038   0.00000  Uiso   1.00
C819   C     0.86628   0.10060   0.54160   0.00000  Uiso   1.00
C820   C     0.86394   0.10557   0.45851   0.00000  Uiso   1.00
C821   C     0.64020   0.39011   0.54310   0.00000  Uiso   1.00
C822   C     0.86833   0.40189   0.53797   0.00000  Uiso   1.00
C823   C     0.93837   0.19319   0.50046   0.00000  Uiso   1.00
C824   C     0.63347   0.09920   0.45882   0.00000  Uiso   1.00
C825   C     0.63931   0.11094   0.54128   0.00000  Uiso   1.00
C826   C     0.85775   0.38716   0.45672   0.00000  Uiso   1.00
C827   C     0.59909   0.33613   0.49977   0.00000  Uiso   1.00
C828   C     0.90255   0.16137   0.50169   0.00000  Uiso   1.00
C829   C     0.90222   0.33793   0.50062   0.00000  Uiso   1.00
C830   C     0.59749   0.16187   0.49739   0.00000  Uiso   1.00
C831   C     0.84908   0.08613   0.49977   0.00000  Uiso   1.00
C832   C     0.65255   0.41137   0.50169   0.00000  Uiso   1.00
C833   C     0.65222   0.08793   0.50062   0.00000  Uiso   1.00
C834   C     0.56204   0.30608   0.49978   0.00000  Uiso   1.00
C835   C     0.84749   0.41186   0.49739   0.00000  Uiso   1.00
C836   C     0.98851   0.16537   0.37881   0.00000  Uiso   1.00
C837   C     0.98766   0.33391   0.62220   0.00000  Uiso   1.00
C838   C     0.51494   0.33310   0.38016   0.00000  Uiso   1.00
C839   C     0.51180   0.16673   0.61783   0.00000  Uiso   1.00
C840   C     0.73851   0.41537   0.37881   0.00000  Uiso   1.00
C841   C     0.73766   0.08391   0.62220   0.00000  Uiso   1.00
C842   C     0.76494   0.08310   0.38016   0.00000  Uiso   1.00
C843   C     0.76179   0.41672   0.61783   0.00000  Uiso   1.00
C844   C     0.87482   0.18049   0.42532   0.00000  Uiso   1.00
C845   C     0.81153   0.44317   0.49926   0.00000  Uiso   1.00
C846   C     0.61852   0.32007   0.58110   0.00000  Uiso   1.00
C847   C     0.61801   0.32848   0.41530   0.00000  Uiso   1.00
C848   C     0.89447   0.16334   0.58814   0.00000  Uiso   1.00
C849   C     0.62847   0.18793   0.57160   0.00000  Uiso   1.00
C850   C     0.88510   0.31849   0.41837   0.00000  Uiso   1.00
C851   C     0.88699   0.33809   0.58645   0.00000  Uiso   1.00
C852   C     0.59659   0.15357   0.41073   0.00000  Uiso   1.00
C853   C     0.62482   0.43048   0.42532   0.00000  Uiso   1.00
C854   C     0.86851   0.07008   0.58110   0.00000  Uiso   1.00
C855   C     0.86800   0.07849   0.41529   0.00000  Uiso   1.00
C856   C     0.68843   0.05682   0.50045   0.00000  Uiso   1.00
C857   C     0.64446   0.41335   0.58814   0.00000  Uiso   1.00
C858   C     0.87846   0.43792   0.57160   0.00000  Uiso   1.00
C859   C     0.63511   0.06849   0.41838   0.00000  Uiso   1.00
C860   C     0.63700   0.08810   0.58645   0.00000  Uiso   1.00
C861   C     0.84663   0.40360   0.41073   0.00000  Uiso   1.00
C862   C     0.68837   0.44319   0.50046   0.00000  Uiso   1.00
C863   C     0.81204   0.05608   0.49978   0.00000  Uiso   1.00
C864   C     0.99773   0.21015   0.35727   0.00000  Uiso   1.00
Cu865  Cu    0.50000   0.25000   0.54689   0.00000  Uiso   1.00
Cu866  Cu    0.50000   0.25000   0.45311   0.00000  Uiso   1.00
Cu867  Cu    0.75000  -0.00000   0.54689   0.00000  Uiso   1.00
Cu868  Cu    0.75000  -0.00000   0.45311   0.00000  Uiso   1.00
H869   H     0.96101   0.10443   0.37269   0.00000  Uiso   1.00
H870   H     0.65709   0.28285   0.61901   0.00000  Uiso   1.00
H871   H     0.63336   0.32674   0.34807   0.00000  Uiso   1.00
H872   H     0.88504   0.21991   0.62523   0.00000  Uiso   1.00
H873   H     0.60991   0.22720   0.62517   0.00000  Uiso   1.00
H874   H     0.85205   0.27647   0.37843   0.00000  Uiso   1.00
H875   H     0.87450   0.34252   0.65417   0.00000  Uiso   1.00
H876   H     0.59693   0.20503   0.36661   0.00000  Uiso   1.00
H877   H     0.64323   0.46506   0.36930   0.00000  Uiso   1.00
H878   H     0.90707   0.03284   0.61902   0.00000  Uiso   1.00
H879   H     0.88336   0.07676   0.34807   0.00000  Uiso   1.00
H880   H     0.95841   0.39343   0.63118   0.00000  Uiso   1.00
H881   H     0.63502   0.46993   0.62522   0.00000  Uiso   1.00
H882   H     0.85990   0.47716   0.62520   0.00000  Uiso   1.00
H883   H     0.60206   0.02646   0.37843   0.00000  Uiso   1.00
H884   H     0.62451   0.09252   0.65417   0.00000  Uiso   1.00
H885   H     0.84708   0.45506   0.36663   0.00000  Uiso   1.00
H886   H     0.54881   0.39009   0.37386   0.00000  Uiso   1.00
H887   H     0.54680   0.11070   0.61659   0.00000  Uiso   1.00
H888   H     0.71100   0.35444   0.37271   0.00000  Uiso   1.00
H889   H     0.70842   0.14344   0.63118   0.00000  Uiso   1.00
H890   H     0.79881   0.14009   0.37386   0.00000  Uiso   1.00
H891   H     0.79677   0.36068   0.61660   0.00000  Uiso   1.00
H892   H     0.89323   0.21507   0.36930   0.00000  Uiso   1.00
N893   N     0.50000   0.25000   0.61736   0.00000  Uiso   1.00
N894   N     0.50000   0.25000   0.38264   0.00000  Uiso   1.00
N895   N     0.75000  -0.00000   0.61736   0.00000  Uiso   1.00
N896   N     0.75000  -0.00000   0.38264   0.00000  Uiso   1.00
O897   O     0.54509   0.20491   0.53958   0.00000  Uiso   1.00
O898   O     0.70492   0.04509   0.46042   0.00000  Uiso   1.00
O899   O     0.70492   0.04509   0.53958   0.00000  Uiso   1.00
O900   O     0.79509   0.45491   0.46042   0.00000  Uiso   1.00
O901   O     0.70492   0.45491   0.46042   0.00000  Uiso   1.00
O902   O     0.79509   0.04509   0.53958   0.00000  Uiso   1.00
O903   O     0.79509   0.04509   0.46042   0.00000  Uiso   1.00
O904   O     0.70492   0.45491   0.53958   0.00000  Uiso   1.00
O905   O     0.50353   0.15438   0.41476   0.00000  Uiso   1.00
O906   O     0.96340   0.13415   0.35609   0.00000  Uiso   1.00
O907   O     0.50499   0.34718   0.58730   0.00000  Uiso   1.00
O908   O     0.95492   0.29509   0.46042   0.00000  Uiso   1.00
O909   O     0.96076   0.36306   0.64632   0.00000  Uiso   1.00
O910   O     0.99614   0.34820   0.41369   0.00000  Uiso   1.00
O911   O     0.54532   0.35967   0.35838   0.00000  Uiso   1.00
O912   O     0.98976   0.15134   0.58808   0.00000  Uiso   1.00
O913   O     0.54446   0.14069   0.63338   0.00000  Uiso   1.00
O914   O     0.75355   0.40437   0.41475   0.00000  Uiso   1.00
O915   O     0.71339   0.38416   0.35611   0.00000  Uiso   1.00
O916   O     0.75498   0.09718   0.58729   0.00000  Uiso   1.00
O917   O     0.71077   0.11307   0.64632   0.00000  Uiso   1.00
O918   O     0.74615   0.09820   0.41369   0.00000  Uiso   1.00
O919   O     0.95492   0.29509   0.53958   0.00000  Uiso   1.00
O920   O     0.79532   0.10967   0.35838   0.00000  Uiso   1.00
O921   O     0.73975   0.40134   0.58808   0.00000  Uiso   1.00
O922   O     0.79443   0.39068   0.63339   0.00000  Uiso   1.00
O923   O     0.84013   0.19721   0.42590   0.00000  Uiso   1.00
O924   O     0.90396   0.19208   0.39125   0.00000  Uiso   1.00
O925   O     0.58986   0.31757   0.60933   0.00000  Uiso   1.00
O926   O     0.65616   0.29813   0.58821   0.00000  Uiso   1.00
O927   O     0.61632   0.28747   0.41655   0.00000  Uiso   1.00
O928   O     0.62812   0.34928   0.37380   0.00000  Uiso   1.00
O929   O     0.90736   0.14347   0.62129   0.00000  Uiso   1.00
O930   O     0.54509   0.20491   0.46042   0.00000  Uiso   1.00
O931   O     0.88170   0.20787   0.59286   0.00000  Uiso   1.00
O932   O     0.66442   0.20142   0.57344   0.00000  Uiso   1.00
O933   O     0.59842   0.20451   0.60266   0.00000  Uiso   1.00
O934   O     0.91364   0.32111   0.39001   0.00000  Uiso   1.00
O935   O     0.85104   0.29040   0.41035   0.00000  Uiso   1.00
O936   O     0.88749   0.29717   0.58806   0.00000  Uiso   1.00
O937   O     0.87929   0.36269   0.62685   0.00000  Uiso   1.00
O938   O     0.57874   0.12880   0.38382   0.00000  Uiso   1.00
O939   O     0.60762   0.19715   0.39788   0.00000  Uiso   1.00
O940   O     0.59012   0.44719   0.42588   0.00000  Uiso   1.00
O941   O     0.95492   0.20491   0.46042   0.00000  Uiso   1.00
O942   O     0.65396   0.44208   0.39126   0.00000  Uiso   1.00
O943   O     0.83985   0.06758   0.60933   0.00000  Uiso   1.00
O944   O     0.90614   0.04812   0.58821   0.00000  Uiso   1.00
O945   O     0.86630   0.03749   0.41653   0.00000  Uiso   1.00
O946   O     0.87812   0.09929   0.37380   0.00000  Uiso   1.00
O947   O     0.65734   0.39348   0.62129   0.00000  Uiso   1.00
O948   O     0.63169   0.45788   0.59286   0.00000  Uiso   1.00
O949   O     0.91440   0.45145   0.57340   0.00000  Uiso   1.00
O950   O     0.84841   0.45446   0.60269   0.00000  Uiso   1.00
O951   O     0.66364   0.07113   0.39001   0.00000  Uiso   1.00
O952   O     0.54509   0.29509   0.53958   0.00000  Uiso   1.00
O953   O     0.60106   0.04038   0.41036   0.00000  Uiso   1.00
O954   O     0.63749   0.04718   0.58806   0.00000  Uiso   1.00
O955   O     0.62930   0.11270   0.62685   0.00000  Uiso   1.00
O956   O     0.82878   0.37886   0.38380   0.00000  Uiso   1.00
O957   O     0.85771   0.44716   0.39792   0.00000  Uiso   1.00
O958   O     0.54509   0.29509   0.46042   0.00000  Uiso   1.00
O959   O     0.95492   0.20491   0.53958   0.00000  Uiso   1.00
O960   O     0.79509   0.45491   0.53958   0.00000  Uiso   1.00
C961   C     0.06153   0.69317   0.49926   0.00000  Uiso   1.00
C962   C     0.49784   0.78957   0.64285   0.00000  Uiso   1.00
C963   C     0.00297   0.78946   0.35823   0.00000  Uiso   1.00
C964   C     0.00203   0.71037   0.64141   0.00000  Uiso   1.00
C965   C     0.24773   0.96015   0.35727   0.00000  Uiso   1.00
C966   C     0.24784   0.53957   0.64285   0.00000  Uiso   1.00
C967   C     0.25297   0.53946   0.35823   0.00000  Uiso   1.00
C968   C     0.25202   0.96037   0.64141   0.00000  Uiso   1.00
C969   C     0.38472   0.64699   0.46038   0.00000  Uiso   1.00
C970   C     0.11628   0.85060   0.54160   0.00000  Uiso   1.00
C971   C     0.11394   0.85556   0.45851   0.00000  Uiso   1.00
C972   C     0.43843   0.80682   0.50045   0.00000  Uiso   1.00
C973   C     0.39020   0.64011   0.54310   0.00000  Uiso   1.00
C974   C     0.11835   0.65190   0.53797   0.00000  Uiso   1.00
C975   C     0.38347   0.84920   0.45882   0.00000  Uiso   1.00
C976   C     0.38930   0.86093   0.54128   0.00000  Uiso   1.00
C977   C     0.10775   0.63716   0.45672   0.00000  Uiso   1.00
C978   C     0.13473   0.89698   0.46038   0.00000  Uiso   1.00
C979   C     0.36628   0.60060   0.54160   0.00000  Uiso   1.00
C980   C     0.36394   0.60557   0.45851   0.00000  Uiso   1.00
C981   C     0.14020   0.89011   0.54310   0.00000  Uiso   1.00
C982   C     0.36833   0.90189   0.53797   0.00000  Uiso   1.00
C983   C     0.43837   0.69319   0.50046   0.00000  Uiso   1.00
C984   C     0.13347   0.59920   0.45882   0.00000  Uiso   1.00
C985   C     0.13931   0.61094   0.54128   0.00000  Uiso   1.00
C986   C     0.35775   0.88716   0.45672   0.00000  Uiso   1.00
C987   C     0.09909   0.83613   0.49977   0.00000  Uiso   1.00
C988   C     0.40255   0.66137   0.50169   0.00000  Uiso   1.00
C989   C     0.40222   0.83793   0.50062   0.00000  Uiso   1.00
C990   C     0.09749   0.66187   0.49739   0.00000  Uiso   1.00
C991   C     0.34908   0.58613   0.49977   0.00000  Uiso   1.00
C992   C     0.15255   0.91137   0.50169   0.00000  Uiso   1.00
C993   C     0.15222   0.58793   0.50062   0.00000  Uiso   1.00
C994   C     0.06204   0.80608   0.49978   0.00000  Uiso   1.00
C995   C     0.34749   0.91186   0.49739   0.00000  Uiso   1.00
C996   C     0.48851   0.66537   0.37881   0.00000  Uiso   1.00
C997   C     0.48766   0.83391   0.62220   0.00000  Uiso   1.00
C998   C     0.01494   0.83310   0.38016   0.00000  Uiso   1.00
C999   C     0.01180   0.66673   0.61783   0.00000  Uiso   1.00
C1000  C     0.23851   0.91537   0.37881   0.00000  Uiso   1.00
C1001  C     0.23766   0.58391   0.62220   0.00000  Uiso   1.00
C1002  C     0.26494   0.58310   0.38016   0.00000  Uiso   1.00
C1003  C     0.26179   0.91672   0.61783   0.00000  Uiso   1.00
C1004  C     0.37482   0.68049   0.42532   0.00000  Uiso   1.00
C1005  C     0.31153   0.94317   0.49926   0.00000  Uiso   1.00
C1006  C     0.11852   0.82007   0.58110   0.00000  Uiso   1.00
C1007  C     0.11801   0.82848   0.41530   0.00000  Uiso   1.00
C1008  C     0.39447   0.66334   0.58814   0.00000  Uiso   1.00
C1009  C     0.12847   0.68793   0.57160   0.00000  Uiso   1.00
C1010  C     0.38510   0.81849   0.41837   0.00000  Uiso   1.00
C1011  C     0.38699   0.83809   0.58645   0.00000  Uiso   1.00
C1012  C     0.09659   0.65357   0.41073   0.00000  Uiso   1.00
C1013  C     0.12482   0.93048   0.42532   0.00000  Uiso   1.00
C1014  C     0.36851   0.57008   0.58110   0.00000  Uiso   1.00
C1015  C     0.36800   0.57849   0.41529   0.00000  Uiso   1.00
C1016  C     0.18843   0.55682   0.50045   0.00000  Uiso   1.00
C1017  C     0.14446   0.91335   0.58814   0.00000  Uiso   1.00
C1018  C     0.37846   0.93792   0.57160   0.00000  Uiso   1.00
C1019  C     0.13511   0.56849   0.41838   0.00000  Uiso   1.00
C1020  C     0.13700   0.58810   0.58645   0.00000  Uiso   1.00
C1021  C     0.34663   0.90360   0.41073   0.00000  Uiso   1.00
C1022  C     0.18837   0.94319   0.50046   0.00000  Uiso   1.00
C1023  C     0.31204   0.55608   0.49978   0.00000  Uiso   1.00
C1024  C     0.49773   0.71015   0.35727   0.00000  Uiso   1.00
Cu1025 Cu    0.00000   0.75000   0.54689   0.00000  Uiso   1.00
Cu1026 Cu    0.00000   0.75000   0.45311   0.00000  Uiso   1.00
Cu1027 Cu    0.25000   0.50000   0.54689   0.00000  Uiso   1.00
Cu1028 Cu    0.25000   0.50000   0.45311   0.00000  Uiso   1.00
H1029  H     0.46101   0.60443   0.37269   0.00000  Uiso   1.00
H1030  H     0.15709   0.78285   0.61901   0.00000  Uiso   1.00
H1031  H     0.13336   0.82674   0.34807   0.00000  Uiso   1.00
H1032  H     0.38504   0.71991   0.62523   0.00000  Uiso   1.00
H1033  H     0.10991   0.72720   0.62517   0.00000  Uiso   1.00
H1034  H     0.35205   0.77647   0.37843   0.00000  Uiso   1.00
H1035  H     0.37450   0.84252   0.65417   0.00000  Uiso   1.00
H1036  H     0.09693   0.70503   0.36661   0.00000  Uiso   1.00
H1037  H     0.14323   0.96506   0.36930   0.00000  Uiso   1.00
H1038  H     0.40707   0.53284   0.61902   0.00000  Uiso   1.00
H1039  H     0.38336   0.57676   0.34807   0.00000  Uiso   1.00
H1040  H     0.45841   0.89343   0.63118   0.00000  Uiso   1.00
H1041  H     0.13502   0.96993   0.62522   0.00000  Uiso   1.00
H1042  H     0.35990   0.97716   0.62520   0.00000  Uiso   1.00
H1043  H     0.10206   0.52646   0.37843   0.00000  Uiso   1.00
H1044  H     0.12451   0.59252   0.65417   0.00000  Uiso   1.00
H1045  H     0.34708   0.95506   0.36663   0.00000  Uiso   1.00
H1046  H     0.04881   0.89009   0.37386   0.00000  Uiso   1.00
H1047  H     0.04680   0.61070   0.61659   0.00000  Uiso   1.00
H1048  H     0.21100   0.85444   0.37271   0.00000  Uiso   1.00
H1049  H     0.20842   0.64344   0.63118   0.00000  Uiso   1.00
H1050  H     0.29881   0.64009   0.37386   0.00000  Uiso   1.00
H1051  H     0.29677   0.86068   0.61660   0.00000  Uiso   1.00
H1052  H     0.39323   0.71507   0.36930   0.00000  Uiso   1.00
N1053  N     0.00000   0.75000   0.61736   0.00000  Uiso   1.00
N1054  N     0.00000   0.75000   0.38264   0.00000  Uiso   1.00
N1055  N     0.25000   0.50000   0.61736   0.00000  Uiso   1.00
N1056  N     0.25000   0.50000   0.38264   0.00000  Uiso   1.00
O1057  O     0.04509   0.70491   0.53958   0.00000  Uiso   1.00
O1058  O     0.20492   0.54509   0.46042   0.00000  Uiso   1.00
O1059  O     0.20492   0.54509   0.53958   0.00000  Uiso   1.00
O1060  O     0.29509   0.95491   0.46042   0.00000  Uiso   1.00
O1061  O     0.20492   0.95491   0.46042   0.00000  Uiso   1.00
O1062  O     0.29509   0.54509   0.53958   0.00000  Uiso   1.00
O1063  O     0.29509   0.54509   0.46042   0.00000  Uiso   1.00
O1064  O     0.20492   0.95491   0.53958   0.00000  Uiso   1.00
O1065  O     0.00353   0.65438   0.41476   0.00000  Uiso   1.00
O1066  O     0.46340   0.63415   0.35609   0.00000  Uiso   1.00
O1067  O     0.00499   0.84718   0.58730   0.00000  Uiso   1.00
O1068  O     0.45492   0.79509   0.46042   0.00000  Uiso   1.00
O1069  O     0.46076   0.86306   0.64632   0.00000  Uiso   1.00
O1070  O     0.49614   0.84820   0.41369   0.00000  Uiso   1.00
O1071  O     0.04532   0.85967   0.35838   0.00000  Uiso   1.00
O1072  O     0.48976   0.65134   0.58808   0.00000  Uiso   1.00
O1073  O     0.04446   0.64069   0.63338   0.00000  Uiso   1.00
O1074  O     0.25355   0.90437   0.41475   0.00000  Uiso   1.00
O1075  O     0.21339   0.88416   0.35611   0.00000  Uiso   1.00
O1076  O     0.25498   0.59718   0.58729   0.00000  Uiso   1.00
O1077  O     0.21077   0.61307   0.64632   0.00000  Uiso   1.00
O1078  O     0.24615   0.59820   0.41369   0.00000  Uiso   1.00
O1079  O     0.45492   0.79509   0.53958   0.00000  Uiso   1.00
O1080  O     0.29532   0.60967   0.35838   0.00000  Uiso   1.00
O1081  O     0.23975   0.90134   0.58808   0.00000  Uiso   1.00
O1082  O     0.29443   0.89068   0.63339   0.00000  Uiso   1.00
O1083  O     0.34013   0.69721   0.42590   0.00000  Uiso   1.00
O1084  O     0.40396   0.69208   0.39125   0.00000  Uiso   1.00
O1085  O     0.08986   0.81757   0.60933   0.00000  Uiso   1.00
O1086  O     0.15616   0.79813   0.58821   0.00000  Uiso   1.00
O1087  O     0.11632   0.78747   0.41655   0.00000  Uiso   1.00
O1088  O     0.12812   0.84928   0.37380   0.00000  Uiso   1.00
O1089  O     0.40736   0.64347   0.62129   0.00000  Uiso   1.00
O1090  O     0.04509   0.70491   0.46042   0.00000  Uiso   1.00
O1091  O     0.38170   0.70787   0.59286   0.00000  Uiso   1.00
O1092  O     0.16442   0.70142   0.57344   0.00000  Uiso   1.00
O1093  O     0.09842   0.70451   0.60266   0.00000  Uiso   1.00
O1094  O     0.41364   0.82111   0.39001   0.00000  Uiso   1.00
O1095  O     0.35104   0.79040   0.41035   0.00000  Uiso   1.00
O1096  O     0.38749   0.79717   0.58806   0.00000  Uiso   1.00
O1097  O     0.37929   0.86269   0.62685   0.00000  Uiso   1.00
O1098  O     0.07874   0.62880   0.38382   0.00000  Uiso   1.00
O1099  O     0.10762   0.69715   0.39788   0.00000  Uiso   1.00
O1100  O     0.09012   0.94719   0.42588   0.00000  Uiso   1.00
O1101  O     0.45492   0.70491   0.46042   0.00000  Uiso   1.00
O1102  O     0.15396   0.94208   0.39126   0.00000  Uiso   1.00
O1103  O     0.33985   0.56758   0.60933   0.00000  Uiso   1.00
O1104  O     0.40614   0.54812   0.58821   0.00000  Uiso   1.00
O1105  O     0.36630   0.53749   0.41653   0.00000  Uiso   1.00
O1106  O     0.37812   0.59929   0.37380   0.00000  Uiso   1.00
O1107  O     0.15734   0.89348   0.62129   0.00000  Uiso   1.00
O1108  O     0.13169   0.95788   0.59286   0.00000  Uiso   1.00
O1109  O     0.41440   0.95145   0.57340   0.00000  Uiso   1.00
O1110  O     0.34841   0.95446   0.60269   0.00000  Uiso   1.00
O1111  O     0.16364   0.57113   0.39001   0.00000  Uiso   1.00
O1112  O     0.04509   0.79509   0.53958   0.00000  Uiso   1.00
O1113  O     0.10106   0.54038   0.41036   0.00000  Uiso   1.00
O1114  O     0.13749   0.54718   0.58806   0.00000  Uiso   1.00
O1115  O     0.12930   0.61270   0.62685   0.00000  Uiso   1.00
O1116  O     0.32878   0.87886   0.38380   0.00000  Uiso   1.00
O1117  O     0.35771   0.94716   0.39792   0.00000  Uiso   1.00
O1118  O     0.04509   0.79509   0.46042   0.00000  Uiso   1.00
O1119  O     0.45492   0.70491   0.53958   0.00000  Uiso   1.00
O1120  O     0.29509   0.95491   0.53958   0.00000  Uiso   1.00
C1121  C     0.56153   0.69317   0.49926   0.00000  Uiso   1.00
C1122  C     0.99784   0.78957   0.64285   0.00000  Uiso   1.00
C1123  C     0.50297   0.78946   0.35823   0.00000  Uiso   1.00
C1124  C     0.50203   0.71037   0.64141   0.00000  Uiso   1.00
C1125  C     0.74773   0.96015   0.35727   0.00000  Uiso   1.00
C1126  C     0.74784   0.53957   0.64285   0.00000  Uiso   1.00
C1127  C     0.75297   0.53946   0.35823   0.00000  Uiso   1.00
C1128  C     0.75202   0.96037   0.64141   0.00000  Uiso   1.00
C1129  C     0.88472   0.64699   0.46038   0.00000  Uiso   1.00
C1130  C     0.61628   0.85060   0.54160   0.00000  Uiso   1.00
C1131  C     0.61394   0.85556   0.45851   0.00000  Uiso   1.00
C1132  C     0.93843   0.80682   0.50045   0.00000  Uiso   1.00
C1133  C     0.89020   0.64011   0.54310   0.00000  Uiso   1.00
C1134  C     0.61835   0.65190   0.53797   0.00000  Uiso   1.00
C1135  C     0.88347   0.84920   0.45882   0.00000  Uiso   1.00
C1136  C     0.88930   0.86093   0.54128   0.00000  Uiso   1.00
C1137  C     0.60775   0.63716   0.45672   0.00000  Uiso   1.00
C1138  C     0.63473   0.89698   0.46038   0.00000  Uiso   1.00
C1139  C     0.86628   0.60060   0.54160   0.00000  Uiso   1.00
C1140  C     0.86394   0.60557   0.45851   0.00000  Uiso   1.00
C1141  C     0.64020   0.89011   0.54310   0.00000  Uiso   1.00
C1142  C     0.86833   0.90189   0.53797   0.00000  Uiso   1.00
C1143  C     0.93837   0.69319   0.50046   0.00000  Uiso   1.00
C1144  C     0.63347   0.59920   0.45882   0.00000  Uiso   1.00
C1145  C     0.63931   0.61094   0.54128   0.00000  Uiso   1.00
C1146  C     0.85775   0.88716   0.45672   0.00000  Uiso   1.00
C1147  C     0.59909   0.83613   0.49977   0.00000  Uiso   1.00
C1148  C     0.90255   0.66137   0.50169   0.00000  Uiso   1.00
C1149  C     0.90222   0.83793   0.50062   0.00000  Uiso   1.00
C1150  C     0.59749   0.66187   0.49739   0.00000  Uiso   1.00
C1151  C     0.84908   0.58613   0.49977   0.00000  Uiso   1.00
C1152  C     0.65255   0.91137   0.50169   0.00000  Uiso   1.00
C1153  C     0.65222   0.58793   0.50062   0.00000  Uiso   1.00
C1154  C     0.56204   0.80608   0.49978   0.00000  Uiso   1.00
C1155  C     0.84749   0.91186   0.49739   0.00000  Uiso   1.00
C1156  C     0.98851   0.66537   0.37881   0.00000  Uiso   1.00
C1157  C     0.98766   0.83391   0.62220   0.00000  Uiso   1.00
C1158  C     0.51494   0.83310   0.38016   0.00000  Uiso   1.00
C1159  C     0.51180   0.66673   0.61783   0.00000  Uiso   1.00
C1160  C     0.73851   0.91537   0.37881   0.00000  Uiso   1.00
C1161  C     0.73766   0.58391   0.62220   0.00000  Uiso   1.00
C1162  C     0.76494   0.58310   0.38016   0.00000  Uiso   1.00
C1163  C     0.76179   0.91672   0.61783   0.00000  Uiso   1.00
C1164  C     0.87482   0.68049   0.42532   0.00000  Uiso   1.00
C1165  C     0.81153   0.94317   0.49926   0.00000  Uiso   1.00
C1166  C     0.61852   0.82007   0.58110   0.00000  Uiso   1.00
C1167  C     0.61801   0.82848   0.41530   0.00000  Uiso   1.00
C1168  C     0.89447   0.66334   0.58814   0.00000  Uiso   1.00
C1169  C     0.62847   0.68793   0.57160   0.00000  Uiso   1.00
C1170  C     0.88510   0.81849   0.41837   0.00000  Uiso   1.00
C1171  C     0.88699   0.83809   0.58645   0.00000  Uiso   1.00
C1172  C     0.59659   0.65357   0.41073   0.00000  Uiso   1.00
C1173  C     0.62482   0.93048   0.42532   0.00000  Uiso   1.00
C1174  C     0.86851   0.57008   0.58110   0.00000  Uiso   1.00
C1175  C     0.86800   0.57849   0.41529   0.00000  Uiso   1.00
C1176  C     0.68843   0.55682   0.50045   0.00000  Uiso   1.00
C1177  C     0.64446   0.91335   0.58814   0.00000  Uiso   1.00
C1178  C     0.87846   0.93792   0.57160   0.00000  Uiso   1.00
C1179  C     0.63511   0.56849   0.41838   0.00000  Uiso   1.00
C1180  C     0.63700   0.58810   0.58645   0.00000  Uiso   1.00
C1181  C     0.84663   0.90360   0.41073   0.00000  Uiso   1.00
C1182  C     0.68837   0.94319   0.50046   0.00000  Uiso   1.00
C1183  C     0.81204   0.55608   0.49978   0.00000  Uiso   1.00
C1184  C     0.99773   0.71015   0.35727   0.00000  Uiso   1.00
Cu1185 Cu    0.50000   0.75000   0.54689   0.00000  Uiso   1.00
Cu1186 Cu    0.50000   0.75000   0.45311   0.00000  Uiso   1.00
Cu1187 Cu    0.75000   0.50000   0.54689   0.00000  Uiso   1.00
Cu1188 Cu    0.75000   0.50000   0.45311   0.00000  Uiso   1.00
H1189  H     0.96101   0.60443   0.37269   0.00000  Uiso   1.00
H1190  H     0.65709   0.78285   0.61901   0.00000  Uiso   1.00
H1191  H     0.63336   0.82674   0.34807   0.00000  Uiso   1.00
H1192  H     0.88504   0.71991   0.62523   0.00000  Uiso   1.00
H1193  H     0.60991   0.72720   0.62517   0.00000  Uiso   1.00
H1194  H     0.85205   0.77647   0.37843   0.00000  Uiso   1.00
H1195  H     0.87450   0.84252   0.65417   0.00000  Uiso   1.00
H1196  H     0.59693   0.70503   0.36661   0.00000  Uiso   1.00
H1197  H     0.64323   0.96506   0.36930   0.00000  Uiso   1.00
H1198  H     0.90707   0.53284   0.61902   0.00000  Uiso   1.00
H1199  H     0.88336   0.57676   0.34807   0.00000  Uiso   1.00
H1200  H     0.95841   0.89343   0.63118   0.00000  Uiso   1.00
H1201  H     0.63502   0.96993   0.62522   0.00000  Uiso   1.00
H1202  H     0.85990   0.97716   0.62520   0.00000  Uiso   1.00
H1203  H     0.60206   0.52646   0.37843   0.00000  Uiso   1.00
H1204  H     0.62451   0.59252   0.65417   0.00000  Uiso   1.00
H1205  H     0.84708   0.95506   0.36663   0.00000  Uiso   1.00
H1206  H     0.54881   0.89009   0.37386   0.00000  Uiso   1.00
H1207  H     0.54680   0.61070   0.61659   0.00000  Uiso   1.00
H1208  H     0.71100   0.85444   0.37271   0.00000  Uiso   1.00
H1209  H     0.70842   0.64344   0.63118   0.00000  Uiso   1.00
H1210  H     0.79881   0.64009   0.37386   0.00000  Uiso   1.00
H1211  H     0.79677   0.86068   0.61660   0.00000  Uiso   1.00
H1212  H     0.89323   0.71507   0.36930   0.00000  Uiso   1.00
N1213  N     0.50000   0.75000   0.61736   0.00000  Uiso   1.00
N1214  N     0.50000   0.75000   0.38264   0.00000  Uiso   1.00
N1215  N     0.75000   0.50000   0.61736   0.00000  Uiso   1.00
N1216  N     0.75000   0.50000   0.38264   0.00000  Uiso   1.00
O1217  O     0.54509   0.70491   0.53958   0.00000  Uiso   1.00
O1218  O     0.70492   0.54509   0.46042   0.00000  Uiso   1.00
O1219  O     0.70492   0.54509   0.53958   0.00000  Uiso   1.00
O1220  O     0.79509   0.95491   0.46042   0.00000  Uiso   1.00
O1221  O     0.70492   0.95491   0.46042   0.00000  Uiso   1.00
O1222  O     0.79509   0.54509   0.53958   0.00000  Uiso   1.00
O1223  O     0.79509   0.54509   0.46042   0.00000  Uiso   1.00
O1224  O     0.70492   0.95491   0.53958   0.00000  Uiso   1.00
O1225  O     0.50353   0.65438   0.41476   0.00000  Uiso   1.00
O1226  O     0.96340   0.63415   0.35609   0.00000  Uiso   1.00
O1227  O     0.50499   0.84718   0.58730   0.00000  Uiso   1.00
O1228  O     0.95492   0.79509   0.46042   0.00000  Uiso   1.00
O1229  O     0.96076   0.86306   0.64632   0.00000  Uiso   1.00
O1230  O     0.99614   0.84820   0.41369   0.00000  Uiso   1.00
O1231  O     0.54532   0.85967   0.35838   0.00000  Uiso   1.00
O1232  O     0.98976   0.65134   0.58808   0.00000  Uiso   1.00
O1233  O     0.54446   0.64069   0.63338   0.00000  Uiso   1.00
O1234  O     0.75355   0.90437   0.41475   0.00000  Uiso   1.00
O1235  O     0.71339   0.88416   0.35611   0.00000  Uiso   1.00
O1236  O     0.75498   0.59718   0.58729   0.00000  Uiso   1.00
O1237  O     0.71077   0.61307   0.64632   0.00000  Uiso   1.00
O1238  O     0.74615   0.59820   0.41369   0.00000  Uiso   1.00
O1239  O     0.95492   0.79509   0.53958   0.00000  Uiso   1.00
O1240  O     0.79532   0.60967   0.35838   0.00000  Uiso   1.00
O1241  O     0.73975   0.90134   0.58808   0.00000  Uiso   1.00
O1242  O     0.79443   0.89068   0.63339   0.00000  Uiso   1.00
O1243  O     0.84013   0.69721   0.42590   0.00000  Uiso   1.00
O1244  O     0.90396   0.69208   0.39125   0.00000  Uiso   1.00
O1245  O     0.58986   0.81757   0.60933   0.00000  Uiso   1.00
O1246  O     0.65616   0.79813   0.58821   0.00000  Uiso   1.00
O1247  O     0.61632   0.78747   0.41655   0.00000  Uiso   1.00
O1248  O     0.62812   0.84928   0.37380   0.00000  Uiso   1.00
O1249  O     0.90736   0.64347   0.62129   0.00000  Uiso   1.00
O1250  O     0.54509   0.70491   0.46042   0.00000  Uiso   1.00
O1251  O     0.88170   0.70787   0.59286   0.00000  Uiso   1.00
O1252  O     0.66442   0.70142   0.57344   0.00000  Uiso   1.00
O1253  O     0.59842   0.70451   0.60266   0.00000  Uiso   1.00
O1254  O     0.91364   0.82111   0.39001   0.00000  Uiso   1.00
O1255  O     0.85104   0.79040   0.41035   0.00000  Uiso   1.00
O1256  O     0.88749   0.79717   0.58806   0.00000  Uiso   1.00
O1257  O     0.87929   0.86269   0.62685   0.00000  Uiso   1.00
O1258  O     0.57874   0.62880   0.38382   0.00000  Uiso   1.00
O1259  O     0.60762   0.69715   0.39788   0.00000  Uiso   1.00
O1260  O     0.59012   0.94719   0.42588   0.00000  Uiso   1.00
O1261  O     0.95492   0.70491   0.46042   0.00000  Uiso   1.00
O1262  O     0.65396   0.94208   0.39126   0.00000  Uiso   1.00
O1263  O     0.83985   0.56758   0.60933   0.00000  Uiso   1.00
O1264  O     0.90614   0.54812   0.58821   0.00000  Uiso   1.00
O1265  O     0.86630   0.53749   0.41653   0.00000  Uiso   1.00
O1266  O     0.87812   0.59929   0.37380   0.00000  Uiso   1.00
O1267  O     0.65734   0.89348   0.62129   0.00000  Uiso   1.00
O1268  O     0.63169   0.95788   0.59286   0.00000  Uiso   1.00
O1269  O     0.91440   0.95145   0.57340   0.00000  Uiso   1.00
O1270  O     0.84841   0.95446   0.60269   0.00000  Uiso   1.00
O1271  O     0.66364   0.57113   0.39001   0.00000  Uiso   1.00
O1272  O     0.54509   0.79509   0.53958   0.00000  Uiso   1.00
O1273  O     0.60106   0.54038   0.41036   0.00000  Uiso   1.00
O1274  O     0.63749   0.54718   0.58806   0.00000  Uiso   1.00
O1275  O     0.62930   0.61270   0.62685   0.00000  Uiso   1.00
O1276  O     0.82878   0.87886   0.38380   0.00000  Uiso   1.00
O1277  O     0.85771   0.94716   0.39792   0.00000  Uiso   1.00
O1278  O     0.54509   0.79509   0.46042   0.00000  Uiso   1.00
O1279  O     0.95492   0.70491   0.53958   0.00000  Uiso   1.00
O1280  O     0.79509   0.95491   0.53958   0.00000  Uiso   1.00
C1281  C     0.06153   0.19317   0.83259   0.00000  Uiso   1.00
C1282  C     0.49784   0.28957   0.97619   0.00000  Uiso   1.00
C1283  C     0.00297   0.28946   0.69156   0.00000  Uiso   1.00
C1284  C     0.00203   0.21037   0.97475   0.00000  Uiso   1.00
C1285  C     0.24773   0.46015   0.69060   0.00000  Uiso   1.00
C1286  C     0.24784   0.03957   0.97619   0.00000  Uiso   1.00
C1287  C     0.25297   0.03946   0.69156   0.00000  Uiso   1.00
C1288  C     0.25202   0.46037   0.97475   0.00000  Uiso   1.00
C1289  C     0.38472   0.14699   0.79372   0.00000  Uiso   1.00
C1290  C     0.11628   0.35060   0.87493   0.00000  Uiso   1.00
C1291  C     0.11394   0.35556   0.79185   0.00000  Uiso   1.00
C1292  C     0.43843   0.30682   0.83379   0.00000  Uiso   1.00
C1293  C     0.39020   0.14011   0.87643   0.00000  Uiso   1.00
C1294  C     0.11835   0.15190   0.87130   0.00000  Uiso   1.00
C1295  C     0.38347   0.34920   0.79216   0.00000  Uiso   1.00
C1296  C     0.38930   0.36093   0.87461   0.00000  Uiso   1.00
C1297  C     0.10775   0.13716   0.79006   0.00000  Uiso   1.00
C1298  C     0.13473   0.39698   0.79371   0.00000  Uiso   1.00
C1299  C     0.36628   0.10060   0.87493   0.00000  Uiso   1.00
C1300  C     0.36394   0.10557   0.79185   0.00000  Uiso   1.00
C1301  C     0.14020   0.39011   0.87643   0.00000  Uiso   1.00
C1302  C     0.36833   0.40189   0.87130   0.00000  Uiso   1.00
C1303  C     0.43837   0.19319   0.83379   0.00000  Uiso   1.00
C1304  C     0.13347   0.09920   0.79216   0.00000  Uiso   1.00
C1305  C     0.13931   0.11094   0.87461   0.00000  Uiso   1.00
C1306  C     0.35775   0.38716   0.79006   0.00000  Uiso   1.00
C1307  C     0.09909   0.33613   0.83310   0.00000  Uiso   1.00
C1308  C     0.40255   0.16137   0.83503   0.00000  Uiso   1.00
C1309  C     0.40222   0.33793   0.83395   0.00000  Uiso   1.00
C1310  C     0.09749   0.16187   0.83072   0.00000  Uiso   1.00
C1311  C     0.34908   0.08613   0.83310   0.00000  Uiso   1.00
C1312  C     0.15255   0.41137   0.83502   0.00000  Uiso   1.00
C1313  C     0.15222   0.08793   0.83395   0.00000  Uiso   1.00
C1314  C     0.06204   0.30608   0.83311   0.00000  Uiso   1.00
C1315  C     0.34749   0.41186   0.83072   0.00000  Uiso   1.00
C1316  C     0.48851   0.16537   0.71214   0.00000  Uiso   1.00
C1317  C     0.48766   0.33391   0.95553   0.00000  Uiso   1.00
C1318  C     0.01494   0.33310   0.71349   0.00000  Uiso   1.00
C1319  C     0.01180   0.16673   0.95116   0.00000  Uiso   1.00
C1320  C     0.23851   0.41537   0.71214   0.00000  Uiso   1.00
C1321  C     0.23766   0.08391   0.95553   0.00000  Uiso   1.00
C1322  C     0.26494   0.08310   0.71349   0.00000  Uiso   1.00
C1323  C     0.26179   0.41672   0.95116   0.00000  Uiso   1.00
C1324  C     0.37482   0.18049   0.75865   0.00000  Uiso   1.00
C1325  C     0.31153   0.44317   0.83259   0.00000  Uiso   1.00
C1326  C     0.11852   0.32007   0.91444   0.00000  Uiso   1.00
C1327  C     0.11801   0.32848   0.74863   0.00000  Uiso   1.00
C1328  C     0.39447   0.16334   0.92148   0.00000  Uiso   1.00
C1329  C     0.12847   0.18793   0.90493   0.00000  Uiso   1.00
C1330  C     0.38510   0.31849   0.75171   0.00000  Uiso   1.00
C1331  C     0.38699   0.33809   0.91979   0.00000  Uiso   1.00
C1332  C     0.09659   0.15357   0.74406   0.00000  Uiso   1.00
C1333  C     0.12482   0.43048   0.75865   0.00000  Uiso   1.00
C1334  C     0.36851   0.07008   0.91444   0.00000  Uiso   1.00
C1335  C     0.36800   0.07849   0.74863   0.00000  Uiso   1.00
C1336  C     0.18843   0.05682   0.83379   0.00000  Uiso   1.00
C1337  C     0.14446   0.41335   0.92148   0.00000  Uiso   1.00
C1338  C     0.37846   0.43792   0.90493   0.00000  Uiso   1.00
C1339  C     0.13511   0.06849   0.75171   0.00000  Uiso   1.00
C1340  C     0.13700   0.08810   0.91978   0.00000  Uiso   1.00
C1341  C     0.34663   0.40360   0.74407   0.00000  Uiso   1.00
C1342  C     0.18837   0.44319   0.83379   0.00000  Uiso   1.00
C1343  C     0.31204   0.05608   0.83311   0.00000  Uiso   1.00
C1344  C     0.49773   0.21015   0.69060   0.00000  Uiso   1.00
Cu1345 Cu    0.00000   0.25000   0.88022   0.00000  Uiso   1.00
Cu1346 Cu    0.00000   0.25000   0.78645   0.00000  Uiso   1.00
Cu1347 Cu    0.25000  -0.00000   0.88022   0.00000  Uiso   1.00
Cu1348 Cu    0.25000  -0.00000   0.78645   0.00000  Uiso   1.00
H1349  H     0.46101   0.10443   0.70602   0.00000  Uiso   1.00
H1350  H     0.15709   0.28285   0.95235   0.00000  Uiso   1.00
H1351  H     0.13336   0.32674   0.68141   0.00000  Uiso   1.00
H1352  H     0.38504   0.21991   0.95856   0.00000  Uiso   1.00
H1353  H     0.10991   0.22720   0.95851   0.00000  Uiso   1.00
H1354  H     0.35205   0.27647   0.71176   0.00000  Uiso   1.00
H1355  H     0.37450   0.34252   0.98750   0.00000  Uiso   1.00
H1356  H     0.09693   0.20503   0.69994   0.00000  Uiso   1.00
H1357  H     0.14323   0.46506   0.70263   0.00000  Uiso   1.00
H1358  H     0.40707   0.03284   0.95235   0.00000  Uiso   1.00
H1359  H     0.38336   0.07676   0.68140   0.00000  Uiso   1.00
H1360  H     0.45841   0.39343   0.96451   0.00000  Uiso   1.00
H1361  H     0.13502   0.46993   0.95855   0.00000  Uiso   1.00
H1362  H     0.35990   0.47716   0.95853   0.00000  Uiso   1.00
H1363  H     0.10206   0.02646   0.71177   0.00000  Uiso   1.00
H1364  H     0.12451   0.09252   0.98750   0.00000  Uiso   1.00
H1365  H     0.34708   0.45506   0.69997   0.00000  Uiso   1.00
H1366  H     0.04881   0.39009   0.70720   0.00000  Uiso   1.00
H1367  H     0.04680   0.11070   0.94992   0.00000  Uiso   1.00
H1368  H     0.21100   0.35444   0.70604   0.00000  Uiso   1.00
H1369  H     0.20842   0.14344   0.96452   0.00000  Uiso   1.00
H1370  H     0.29881   0.14009   0.70720   0.00000  Uiso   1.00
H1371  H     0.29677   0.36068   0.94993   0.00000  Uiso   1.00
H1372  H     0.39323   0.21507   0.70264   0.00000  Uiso   1.00
N1373  N     0.00000   0.25000   0.95069   0.00000  Uiso   1.00
N1374  N     0.00000   0.25000   0.71598   0.00000  Uiso   1.00
N1375  N     0.25000  -0.00000   0.95069   0.00000  Uiso   1.00
N1376  N     0.25000  -0.00000   0.71598   0.00000  Uiso   1.00
O1377  O     0.04509   0.20491   0.87291   0.00000  Uiso   1.00
O1378  O     0.20492   0.04509   0.79375   0.00000  Uiso   1.00
O1379  O     0.20492   0.04509   0.87291   0.00000  Uiso   1.00
O1380  O     0.29509   0.45491   0.79375   0.00000  Uiso   1.00
O1381  O     0.20492   0.45491   0.79375   0.00000  Uiso   1.00
O1382  O     0.29509   0.04509   0.87291   0.00000  Uiso   1.00
O1383  O     0.29509   0.04509   0.79375   0.00000  Uiso   1.00
O1384  O     0.20492   0.45491   0.87291   0.00000  Uiso   1.00
O1385  O     0.00353   0.15438   0.74809   0.00000  Uiso   1.00
O1386  O     0.46340   0.13415   0.68943   0.00000  Uiso   1.00
O1387  O     0.00499   0.34718   0.92063   0.00000  Uiso   1.00
O1388  O     0.45492   0.29509   0.79375   0.00000  Uiso   1.00
O1389  O     0.46076   0.36306   0.97965   0.00000  Uiso   1.00
O1390  O     0.49614   0.34820   0.74702   0.00000  Uiso   1.00
O1391  O     0.04532   0.35967   0.69171   0.00000  Uiso   1.00
O1392  O     0.48976   0.15134   0.92141   0.00000  Uiso   1.00
O1393  O     0.04446   0.14069   0.96671   0.00000  Uiso   1.00
O1394  O     0.25355   0.40437   0.74808   0.00000  Uiso   1.00
O1395  O     0.21339   0.38416   0.68945   0.00000  Uiso   1.00
O1396  O     0.25498   0.09718   0.92063   0.00000  Uiso   1.00
O1397  O     0.21077   0.11307   0.97966   0.00000  Uiso   1.00
O1398  O     0.24615   0.09820   0.74703   0.00000  Uiso   1.00
O1399  O     0.45492   0.29509   0.87291   0.00000  Uiso   1.00
O1400  O     0.29532   0.10967   0.69171   0.00000  Uiso   1.00
O1401  O     0.23975   0.40134   0.92141   0.00000  Uiso   1.00
O1402  O     0.29443   0.39068   0.96672   0.00000  Uiso   1.00
O1403  O     0.34013   0.19721   0.75924   0.00000  Uiso   1.00
O1404  O     0.40396   0.19208   0.72459   0.00000  Uiso   1.00
O1405  O     0.08986   0.31757   0.94266   0.00000  Uiso   1.00
O1406  O     0.15616   0.29813   0.92154   0.00000  Uiso   1.00
O1407  O     0.11632   0.28747   0.74988   0.00000  Uiso   1.00
O1408  O     0.12812   0.34928   0.70713   0.00000  Uiso   1.00
O1409  O     0.40736   0.14347   0.95462   0.00000  Uiso   1.00
O1410  O     0.04509   0.20491   0.79375   0.00000  Uiso   1.00
O1411  O     0.38170   0.20787   0.92620   0.00000  Uiso   1.00
O1412  O     0.16442   0.20142   0.90677   0.00000  Uiso   1.00
O1413  O     0.09842   0.20451   0.93599   0.00000  Uiso   1.00
O1414  O     0.41364   0.32111   0.72335   0.00000  Uiso   1.00
O1415  O     0.35104   0.29040   0.74368   0.00000  Uiso   1.00
O1416  O     0.38749   0.29717   0.92139   0.00000  Uiso   1.00
O1417  O     0.37929   0.36269   0.96019   0.00000  Uiso   1.00
O1418  O     0.07874   0.12880   0.71715   0.00000  Uiso   1.00
O1419  O     0.10762   0.19715   0.73121   0.00000  Uiso   1.00
O1420  O     0.09012   0.44719   0.75922   0.00000  Uiso   1.00
O1421  O     0.45492   0.20491   0.79375   0.00000  Uiso   1.00
O1422  O     0.15396   0.44208   0.72459   0.00000  Uiso   1.00
O1423  O     0.33985   0.06758   0.94266   0.00000  Uiso   1.00
O1424  O     0.40614   0.04812   0.92155   0.00000  Uiso   1.00
O1425  O     0.36630   0.03749   0.74987   0.00000  Uiso   1.00
O1426  O     0.37812   0.09929   0.70713   0.00000  Uiso   1.00
O1427  O     0.15734   0.39348   0.95463   0.00000  Uiso   1.00
O1428  O     0.13169   0.45788   0.92619   0.00000  Uiso   1.00
O1429  O     0.41440   0.45145   0.90673   0.00000  Uiso   1.00
O1430  O     0.34841   0.45446   0.93602   0.00000  Uiso   1.00
O1431  O     0.16364   0.07113   0.72334   0.00000  Uiso   1.00
O1432  O     0.04509   0.29509   0.87291   0.00000  Uiso   1.00
O1433  O     0.10106   0.04038   0.74370   0.00000  Uiso   1.00
O1434  O     0.13749   0.04718   0.92139   0.00000  Uiso   1.00
O1435  O     0.12930   0.11270   0.96019   0.00000  Uiso   1.00
O1436  O     0.32878   0.37886   0.71714   0.00000  Uiso   1.00
O1437  O     0.35771   0.44716   0.73125   0.00000  Uiso   1.00
O1438  O     0.04509   0.29509   0.79375   0.00000  Uiso   1.00
O1439  O     0.45492   0.20491   0.87291   0.00000  Uiso   1.00
O1440  O     0.29509   0.45491   0.87291   0.00000  Uiso   1.00
C1441  C     0.56153   0.19317   0.83259   0.00000  Uiso   1.00
C1442  C     0.99784   0.28957   0.97619   0.00000  Uiso   1.00
C1443  C     0.50297   0.28946   0.69156   0.00000  Uiso   1.00
C1444  C     0.50203   0.21037   0.97475   0.00000  Uiso   1.00
C1445  C     0.74773   0.46015   0.69060   0.00000  Uiso   1.00
C1446  C     0.74784   0.03957   0.97619   0.00000  Uiso   1.00
C1447  C     0.75297   0.03946   0.69156   0.00000  Uiso   1.00
C1448  C     0.75202   0.46037   0.97475   0.00000  Uiso   1.00
C1449  C     0.88472   0.14699   0.79372   0.00000  Uiso   1.00
C1450  C     0.61628   0.35060   0.87493   0.00000  Uiso   1.00
C1451  C     0.61394   0.35556   0.79185   0.00000  Uiso   1.00
C1452  C     0.93843   0.30682   0.83379   0.00000  Uiso   1.00
C1453  C     0.89020   0.14011   0.87643   0.00000  Uiso   1.00
C1454  C     0.61835   0.15190   0.87130   0.00000  Uiso   1.00
C1455  C     0.88347   0.34920   0.79216   0.00000  Uiso   1.00
C1456  C     0.88930   0.36093   0.87461   0.00000  Uiso   1.00
C1457  C     0.60775   0.13716   0.79006   0.00000  Uiso   1.00
C1458  C     0.63473   0.39698   0.79371   0.00000  Uiso   1.00
C1459  C     0.86628   0.10060   0.87493   0.00000  Uiso   1.00
C1460  C     0.86394   0.10557   0.79185   0.00000  Uiso   1.00
C1461  C     0.64020   0.39011   0.87643   0.00000  Uiso   1.00
C1462  C     0.86833   0.40189   0.87130   0.00000  Uiso   1.00
C1463  C     0.93837   0.19319   0.83379   0.00000  Uiso   1.00
C1464  C     0.63347   0.09920   0.79216   0.00000  Uiso   1.00
C1465  C     0.63931   0.11094   0.87461   0.00000  Uiso   1.00
C1466  C     0.85775   0.38716   0.79006   0.00000  Uiso   1.00
C1467  C     0.59909   0.33613   0.83310   0.00000  Uiso   1.00
C1468  C     0.90255   0.16137   0.83503   0.00000  Uiso   1.00
C1469  C     0.90222   0.33793   0.83395   0.00000  Uiso   1.00
C1470  C     0.59749   0.16187   0.83072   0.00000  Uiso   1.00
C1471  C     0.84908   0.08613   0.83310   0.00000  Uiso   1.00
C1472  C     0.65255   0.41137   0.83502   0.00000  Uiso   1.00
C1473  C     0.65222   0.08793   0.83395   0.00000  Uiso   1.00
C1474  C     0.56204   0.30608   0.83311   0.00000  Uiso   1.00
C1475  C     0.84749   0.41186   0.83072   0.00000  Uiso   1.00
C1476  C     0.98851   0.16537   0.71214   0.00000  Uiso   1.00
C1477  C     0.98766   0.33391   0.95553   0.00000  Uiso   1.00
C1478  C     0.51494   0.33310   0.71349   0.00000  Uiso   1.00
C1479  C     0.51180   0.16673   0.95116   0.00000  Uiso   1.00
C1480  C     0.73851   0.41537   0.71214   0.00000  Uiso   1.00
C1481  C     0.73766   0.08391   0.95553   0.00000  Uiso   1.00
C1482  C     0.76494   0.08310   0.71349   0.00000  Uiso   1.00
C1483  C     0.76179   0.41672   0.95116   0.00000  Uiso   1.00
C1484  C     0.87482   0.18049   0.75865   0.00000  Uiso   1.00
C1485  C     0.81153   0.44317   0.83259   0.00000  Uiso   1.00
C1486  C     0.61852   0.32007   0.91444   0.00000  Uiso   1.00
C1487  C     0.61801   0.32848   0.74863   0.00000  Uiso   1.00
C1488  C     0.89447   0.16334   0.92148   0.00000  Uiso   1.00
C1489  C     0.62847   0.18793   0.90493   0.00000  Uiso   1.00
C1490  C     0.88510   0.31849   0.75171   0.00000  Uiso   1.00
C1491  C     0.88699   0.33809   0.91979   0.00000  Uiso   1.00
C1492  C     0.59659   0.15357   0.74406   0.00000  Uiso   1.00
C1493  C     0.62482   0.43048   0.75865   0.00000  Uiso   1.00
C1494  C     0.86851   0.07008   0.91444   0.00000  Uiso   1.00
C1495  C     0.86800   0.07849   0.74863   0.00000  Uiso   1.00
C1496  C     0.68843   0.05682   0.83379   0.00000  Uiso   1.00
C1497  C     0.64446   0.41335   0.92148   0.00000  Uiso   1.00
C1498  C     0.87846   0.43792   0.90493   0.00000  Uiso   1.00
C1499  C     0.63511   0.06849   0.75171   0.00000  Uiso   1.00
C1500  C     0.63700   0.08810   0.91978   0.00000  Uiso   1.00
C1501  C     0.84663   0.40360   0.74407   0.00000  Uiso   1.00
C1502  C     0.68837   0.44319   0.83379   0.00000  Uiso   1.00
C1503  C     0.81204   0.05608   0.83311   0.00000  Uiso   1.00
C1504  C     0.99773   0.21015   0.69060   0.00000  Uiso   1.00
Cu1505 Cu    0.50000   0.25000   0.88022   0.00000  Uiso   1.00
Cu1506 Cu    0.50000   0.25000   0.78645   0.00000  Uiso   1.00
Cu1507 Cu    0.75000  -0.00000   0.88022   0.00000  Uiso   1.00
Cu1508 Cu    0.75000  -0.00000   0.78645   0.00000  Uiso   1.00
H1509  H     0.96101   0.10443   0.70602   0.00000  Uiso   1.00
H1510  H     0.65709   0.28285   0.95235   0.00000  Uiso   1.00
H1511  H     0.63336   0.32674   0.68141   0.00000  Uiso   1.00
H1512  H     0.88504   0.21991   0.95856   0.00000  Uiso   1.00
H1513  H     0.60991   0.22720   0.95851   0.00000  Uiso   1.00
H1514  H     0.85205   0.27647   0.71176   0.00000  Uiso   1.00
H1515  H     0.87450   0.34252   0.98750   0.00000  Uiso   1.00
H1516  H     0.59693   0.20503   0.69994   0.00000  Uiso   1.00
H1517  H     0.64323   0.46506   0.70263   0.00000  Uiso   1.00
H1518  H     0.90707   0.03284   0.95235   0.00000  Uiso   1.00
H1519  H     0.88336   0.07676   0.68140   0.00000  Uiso   1.00
H1520  H     0.95841   0.39343   0.96451   0.00000  Uiso   1.00
H1521  H     0.63502   0.46993   0.95855   0.00000  Uiso   1.00
H1522  H     0.85990   0.47716   0.95853   0.00000  Uiso   1.00
H1523  H     0.60206   0.02646   0.71177   0.00000  Uiso   1.00
H1524  H     0.62451   0.09252   0.98750   0.00000  Uiso   1.00
H1525  H     0.84708   0.45506   0.69997   0.00000  Uiso   1.00
H1526  H     0.54881   0.39009   0.70720   0.00000  Uiso   1.00
H1527  H     0.54680   0.11070   0.94992   0.00000  Uiso   1.00
H1528  H     0.71100   0.35444   0.70604   0.00000  Uiso   1.00
H1529  H     0.70842   0.14344   0.96452   0.00000  Uiso   1.00
H1530  H     0.79881   0.14009   0.70720   0.00000  Uiso   1.00
H1531  H     0.79677   0.36068   0.94993   0.00000  Uiso   1.00
H1532  H     0.89323   0.21507   0.70264   0.00000  Uiso   1.00
N1533  N     0.50000   0.25000   0.95069   0.00000  Uiso   1.00
N1534  N     0.50000   0.25000   0.71598   0.00000  Uiso   1.00
N1535  N     0.75000  -0.00000   0.95069   0.00000  Uiso   1.00
N1536  N     0.75000  -0.00000   0.71598   0.00000  Uiso   1.00
O1537  O     0.54509   0.20491   0.87291   0.00000  Uiso   1.00
O1538  O     0.70492   0.04509   0.79375   0.00000  Uiso   1.00
O1539  O     0.70492   0.04509   0.87291   0.00000  Uiso   1.00
O1540  O     0.79509   0.45491   0.79375   0.00000  Uiso   1.00
O1541  O     0.70492   0.45491   0.79375   0.00000  Uiso   1.00
O1542  O     0.79509   0.04509   0.87291   0.00000  Uiso   1.00
O1543  O     0.79509   0.04509   0.79375   0.00000  Uiso   1.00
O1544  O     0.70492   0.45491   0.87291   0.00000  Uiso   1.00
O1545  O     0.50353   0.15438   0.74809   0.00000  Uiso   1.00
O1546  O     0.96340   0.13415   0.68943   0.00000  Uiso   1.00
O1547  O     0.50499   0.34718   0.92063   0.00000  Uiso   1.00
O1548  O     0.95492   0.29509   0.79375   0.00000  Uiso   1.00
O1549  O     0.96076   0.36306   0.97965   0.00000  Uiso   1.00
O1550  O     0.99614   0.34820   0.74702   0.00000  Uiso   1.00
O1551  O     0.54532   0.35967   0.69171   0.00000  Uiso   1.00
O1552  O     0.98976   0.15134   0.92141   0.00000  Uiso   1.00
O1553  O     0.54446   0.14069   0.96671   0.00000  Uiso   1.00
O1554  O     0.75355   0.40437   0.74808   0.00000  Uiso   1.00
O1555  O     0.71339   0.38416   0.68945   0.00000  Uiso   1.00
O1556  O     0.75498   0.09718   0.92063   0.00000  Uiso   1.00
O1557  O     0.71077   0.11307   0.97966   0.00000  Uiso   1.00
O1558  O     0.74615   0.09820   0.74703   0.00000  Uiso   1.00
O1559  O     0.95492   0.29509   0.87291   0.00000  Uiso   1.00
O1560  O     0.79532   0.10967   0.69171   0.00000  Uiso   1.00
O1561  O     0.73975   0.40134   0.92141   0.00000  Uiso   1.00
O1562  O     0.79443   0.39068   0.96672   0.00000  Uiso   1.00
O1563  O     0.84013   0.19721   0.75924   0.00000  Uiso   1.00
O1564  O     0.90396   0.19208   0.72459   0.00000  Uiso   1.00
O1565  O     0.58986   0.31757   0.94266   0.00000  Uiso   1.00
O1566  O     0.65616   0.29813   0.92154   0.00000  Uiso   1.00
O1567  O     0.61632   0.28747   0.74988   0.00000  Uiso   1.00
O1568  O     0.62812   0.34928   0.70713   0.00000  Uiso   1.00
O1569  O     0.90736   0.14347   0.95462   0.00000  Uiso   1.00
O1570  O     0.54509   0.20491   0.79375   0.00000  Uiso   1.00
O1571  O     0.88170   0.20787   0.92620   0.00000  Uiso   1.00
O1572  O     0.66442   0.20142   0.90677   0.00000  Uiso   1.00
O1573  O     0.59842   0.20451   0.93599   0.00000  Uiso   1.00
O1574  O     0.91364   0.32111   0.72335   0.00000  Uiso   1.00
O1575  O     0.85104   0.29040   0.74368   0.00000  Uiso   1.00
O1576  O     0.88749   0.29717   0.92139   0.00000  Uiso   1.00
O1577  O     0.87929   0.36269   0.96019   0.00000  Uiso   1.00
O1578  O     0.57874   0.12880   0.71715   0.00000  Uiso   1.00
O1579  O     0.60762   0.19715   0.73121   0.00000  Uiso   1.00
O1580  O     0.59012   0.44719   0.75922   0.00000  Uiso   1.00
O1581  O     0.95492   0.20491   0.79375   0.00000  Uiso   1.00
O1582  O     0.65396   0.44208   0.72459   0.00000  Uiso   1.00
O1583  O     0.83985   0.06758   0.94266   0.00000  Uiso   1.00
O1584  O     0.90614   0.04812   0.92155   0.00000  Uiso   1.00
O1585  O     0.86630   0.03749   0.74987   0.00000  Uiso   1.00
O1586  O     0.87812   0.09929   0.70713   0.00000  Uiso   1.00
O1587  O     0.65734   0.39348   0.95463   0.00000  Uiso   1.00
O1588  O     0.63169   0.45788   0.92619   0.00000  Uiso   1.00
O1589  O     0.91440   0.45145   0.90673   0.00000  Uiso   1.00
O1590  O     0.84841   0.45446   0.93602   0.00000  Uiso   1.00
O1591  O     0.66364   0.07113   0.72334   0.00000  Uiso   1.00
O1592  O     0.54509   0.29509   0.87291   0.00000  Uiso   1.00
O1593  O     0.60106   0.04038   0.74370   0.00000  Uiso   1.00
O1594  O     0.63749   0.04718   0.92139   0.00000  Uiso   1.00
O1595  O     0.62930   0.11270   0.96019   0.00000  Uiso   1.00
O1596  O     0.82878   0.37886   0.71714   0.00000  Uiso   1.00
O1597  O     0.85771   0.44716   0.73125   0.00000  Uiso   1.00
O1598  O     0.54509   0.29509   0.79375   0.00000  Uiso   1.00
O1599  O     0.95492   0.20491   0.87291   0.00000  Uiso   1.00
O1600  O     0.79509   0.45491   0.87291   0.00000  Uiso   1.00
C1601  C     0.06153   0.69317   0.83259   0.00000  Uiso   1.00
C1602  C     0.49784   0.78957   0.97619   0.00000  Uiso   1.00
C1603  C     0.00297   0.78946   0.69156   0.00000  Uiso   1.00
C1604  C     0.00203   0.71037   0.97475   0.00000  Uiso   1.00
C1605  C     0.24773   0.96015   0.69060   0.00000  Uiso   1.00
C1606  C     0.24784   0.53957   0.97619   0.00000  Uiso   1.00
C1607  C     0.25297   0.53946   0.69156   0.00000  Uiso   1.00
C1608  C     0.25202   0.96037   0.97475   0.00000  Uiso   1.00
C1609  C     0.38472   0.64699   0.79372   0.00000  Uiso   1.00
C1610  C     0.11628   0.85060   0.87493   0.00000  Uiso   1.00
C1611  C     0.11394   0.85556   0.79185   0.00000  Uiso   1.00
C1612  C     0.43843   0.80682   0.83379   0.00000  Uiso   1.00
C1613  C     0.39020   0.64011   0.87643   0.00000  Uiso   1.00
C1614  C     0.11835   0.65190   0.87130   0.00000  Uiso   1.00
C1615  C     0.38347   0.84920   0.79216   0.00000  Uiso   1.00
C1616  C     0.38930   0.86093   0.87461   0.00000  Uiso   1.00
C1617  C     0.10775   0.63716   0.79006   0.00000  Uiso   1.00
C1618  C     0.13473   0.89698   0.79371   0.00000  Uiso   1.00
C1619  C     0.36628   0.60060   0.87493   0.00000  Uiso   1.00
C1620  C     0.36394   0.60557   0.79185   0.00000  Uiso   1.00
C1621  C     0.14020   0.89011   0.87643   0.00000  Uiso   1.00
C1622  C     0.36833   0.90189   0.87130   0.00000  Uiso   1.00
C1623  C     0.43837   0.69319   0.83379   0.00000  Uiso   1.00
C1624  C     0.13347   0.59920   0.79216   0.00000  Uiso   1.00
C1625  C     0.13931   0.61094   0.87461   0.00000  Uiso   1.00
C1626  C     0.35775   0.88716   0.79006   0.00000  Uiso   1.00
C1627  C     0.09909   0.83613   0.83310   0.00000  Uiso   1.00
C1628  C     0.40255   0.66137   0.83503   0.00000  Uiso   1.00
C1629  C     0.40222   0.83793   0.83395   0.00000  Uiso   1.00
C1630  C     0.09749   0.66187   0.83072   0.00000  Uiso   1.00
C1631  C     0.34908   0.58613   0.83310   0.00000  Uiso   1.00
C1632  C     0.15255   0.91137   0.83502   0.00000  Uiso   1.00
C1633  C     0.15222   0.58793   0.83395   0.00000  Uiso   1.00
C1634  C     0.06204   0.80608   0.83311   0.00000  Uiso   1.00
C1635  C     0.34749   0.91186   0.83072   0.00000  Uiso   1.00
C1636  C     0.48851   0.66537   0.71214   0.00000  Uiso   1.00
C1637  C     0.48766   0.83391   0.95553   0.00000  Uiso   1.00
C1638  C     0.01494   0.83310   0.71349   0.00000  Uiso   1.00
C1639  C     0.01180   0.66673   0.95116   0.00000  Uiso   1.00
C1640  C     0.23851   0.91537   0.71214   0.00000  Uiso   1.00
C1641  C     0.23766   0.58391   0.95553   0.00000  Uiso   1.00
C1642  C     0.26494   0.58310   0.71349   0.00000  Uiso   1.00
C1643  C     0.26179   0.91672   0.95116   0.00000  Uiso   1.00
C1644  C     0.37482   0.68049   0.75865   0.00000  Uiso   1.00
C1645  C     0.31153   0.94317   0.83259   0.00000  Uiso   1.00
C1646  C     0.11852   0.82007   0.91444   0.00000  Uiso   1.00
C1647  C     0.11801   0.82848   0.74863   0.00000  Uiso   1.00
C1648  C     0.39447   0.66334   0.92148   0.00000  Uiso   1.00
C1649  C     0.12847   0.68793   0.90493   0.00000  Uiso   1.00
C1650  C     0.38510   0.81849   0.75171   0.00000  Uiso   1.00
C1651  C     0.38699   0.83809   0.91979   0.00000  Uiso   1.00
C1652  C     0.09659   0.65357   0.74406   0.00000  Uiso   1.00
C1653  C     0.12482   0.93048   0.75865   0.00000  Uiso   1.00
C1654  C     0.36851   0.57008   0.91444   0.00000  Uiso   1.00
C1655  C     0.36800   0.57849   0.74863   0.00000  Uiso   1.00
C1656  C     0.18843   0.55682   0.83379   0.00000  Uiso   1.00
C1657  C     0.14446   0.91335   0.92148   0.00000  Uiso   1.00
C1658  C     0.37846   0.93792   0.90493   0.00000  Uiso   1.00
C1659  C     0.13511   0.56849   0.75171   0.00000  Uiso   1.00
C1660  C     0.13700   0.58810   0.91978   0.00000  Uiso   1.00
C1661  C     0.34663   0.90360   0.74407   0.00000  Uiso   1.00
C1662  C     0.18837   0.94319   0.83379   0.00000  Uiso   1.00
C1663  C     0.31204   0.55608   0.83311   0.00000  Uiso   1.00
C1664  C     0.49773   0.71015   0.69060   0.00000  Uiso   1.00
Cu1665 Cu    0.00000   0.75000   0.88022   0.00000  Uiso   1.00
Cu1666 Cu    0.00000   0.75000   0.78645   0.00000  Uiso   1.00
Cu1667 Cu    0.25000   0.50000   0.88022   0.00000  Uiso   1.00
Cu1668 Cu    0.25000   0.50000   0.78645   0.00000  Uiso   1.00
H1669  H     0.46101   0.60443   0.70602   0.00000  Uiso   1.00
H1670  H     0.15709   0.78285   0.95235   0.00000  Uiso   1.00
H1671  H     0.13336   0.82674   0.68141   0.00000  Uiso   1.00
H1672  H     0.38504   0.71991   0.95856   0.00000  Uiso   1.00
H1673  H     0.10991   0.72720   0.95851   0.00000  Uiso   1.00
H1674  H     0.35205   0.77647   0.71176   0.00000  Uiso   1.00
H1675  H     0.37450   0.84252   0.98750   0.00000  Uiso   1.00
H1676  H     0.09693   0.70503   0.69994   0.00000  Uiso   1.00
H1677  H     0.14323   0.96506   0.70263   0.00000  Uiso   1.00
H1678  H     0.40707   0.53284   0.95235   0.00000  Uiso   1.00
H1679  H     0.38336   0.57676   0.68140   0.00000  Uiso   1.00
H1680  H     0.45841   0.89343   0.96451   0.00000  Uiso   1.00
H1681  H     0.13502   0.96993   0.95855   0.00000  Uiso   1.00
H1682  H     0.35990   0.97716   0.95853   0.00000  Uiso   1.00
H1683  H     0.10206   0.52646   0.71177   0.00000  Uiso   1.00
H1684  H     0.12451   0.59252   0.98750   0.00000  Uiso   1.00
H1685  H     0.34708   0.95506   0.69997   0.00000  Uiso   1.00
H1686  H     0.04881   0.89009   0.70720   0.00000  Uiso   1.00
H1687  H     0.04680   0.61070   0.94992   0.00000  Uiso   1.00
H1688  H     0.21100   0.85444   0.70604   0.00000  Uiso   1.00
H1689  H     0.20842   0.64344   0.96452   0.00000  Uiso   1.00
H1690  H     0.29881   0.64009   0.70720   0.00000  Uiso   1.00
H1691  H     0.29677   0.86068   0.94993   0.00000  Uiso   1.00
H1692  H     0.39323   0.71507   0.70264   0.00000  Uiso   1.00
N1693  N     0.00000   0.75000   0.95069   0.00000  Uiso   1.00
N1694  N     0.00000   0.75000   0.71598   0.00000  Uiso   1.00
N1695  N     0.25000   0.50000   0.95069   0.00000  Uiso   1.00
N1696  N     0.25000   0.50000   0.71598   0.00000  Uiso   1.00
O1697  O     0.04509   0.70491   0.87291   0.00000  Uiso   1.00
O1698  O     0.20492   0.54509   0.79375   0.00000  Uiso   1.00
O1699  O     0.20492   0.54509   0.87291   0.00000  Uiso   1.00
O1700  O     0.29509   0.95491   0.79375   0.00000  Uiso   1.00
O1701  O     0.20492   0.95491   0.79375   0.00000  Uiso   1.00
O1702  O     0.29509   0.54509   0.87291   0.00000  Uiso   1.00
O1703  O     0.29509   0.54509   0.79375   0.00000  Uiso   1.00
O1704  O     0.20492   0.95491   0.87291   0.00000  Uiso   1.00
O1705  O     0.00353   0.65438   0.74809   0.00000  Uiso   1.00
O1706  O     0.46340   0.63415   0.68943   0.00000  Uiso   1.00
O1707  O     0.00499   0.84718   0.92063   0.00000  Uiso   1.00
O1708  O     0.45492   0.79509   0.79375   0.00000  Uiso   1.00
O1709  O     0.46076   0.86306   0.97965   0.00000  Uiso   1.00
O1710  O     0.49614   0.84820   0.74702   0.00000  Uiso   1.00
O1711  O     0.04532   0.85967   0.69171   0.00000  Uiso   1.00
O1712  O     0.48976   0.65134   0.92141   0.00000  Uiso   1.00
O1713  O     0.04446   0.64069   0.96671   0.00000  Uiso   1.00
O1714  O     0.25355   0.90437   0.74808   0.00000  Uiso   1.00
O1715  O     0.21339   0.88416   0.68945   0.00000  Uiso   1.00
O1716  O     0.25498   0.59718   0.92063   0.00000  Uiso   1.00
O1717  O     0.21077   0.61307   0.97966   0.00000  Uiso   1.00
O1718  O     0.24615   0.59820   0.74703   0.00000  Uiso   1.00
O1719  O     0.45492   0.79509   0.87291   0.00000  Uiso   1.00
O1720  O     0.29532   0.60967   0.69171   0.00000  Uiso   1.00
O1721  O     0.23975   0.90134   0.92141   0.00000  Uiso   1.00
O1722  O     0.29443   0.89068   0.96672   0.00000  Uiso   1.00
O1723  O     0.34013   0.69721   0.75924   0.00000  Uiso   1.00
O1724  O     0.40396   0.69208   0.72459   0.00000  Uiso   1.00
O1725  O     0.08986   0.81757   0.94266   0.00000  Uiso   1.00
O1726  O     0.15616   0.79813   0.92154   0.00000  Uiso   1.00
O1727  O     0.11632   0.78747   0.74988   0.00000  Uiso   1.00
O1728  O     0.12812   0.84928   0.70713   0.00000  Uiso   1.00
O1729  O     0.40736   0.64347   0.95462   0.00000  Uiso   1.00
O1730  O     0.04509   0.70491   0.79375   0.00000  Uiso   1.00
O1731  O     0.38170   0.70787   0.92620   0.00000  Uiso   1.00
O1732  O     0.16442   0.70142   0.90677   0.00000  Uiso   1.00
O1733  O     0.09842   0.70451   0.93599   0.00000  Uiso   1.00
O1734  O     0.41364   0.82111   0.72335   0.00000  Uiso   1.00
O1735  O     0.35104   0.79040   0.74368   0.00000  Uiso   1.00
O1736  O     0.38749   0.79717   0.92139   0.00000  Uiso   1.00
O1737  O     0.37929   0.86269   0.96019   0.00000  Uiso   1.00
O1738  O     0.07874   0.62880   0.71715   0.00000  Uiso   1.00
O1739  O     0.10762   0.69715   0.73121   0.00000  Uiso   1.00
O1740  O     0.09012   0.94719   0.75922   0.00000  Uiso   1.00
O1741  O     0.45492   0.70491   0.79375   0.00000  Uiso   1.00
O1742  O     0.15396   0.94208   0.72459   0.00000  Uiso   1.00
O1743  O     0.33985   0.56758   0.94266   0.00000  Uiso   1.00
O1744  O     0.40614   0.54812   0.92155   0.00000  Uiso   1.00
O1745  O     0.36630   0.53749   0.74987   0.00000  Uiso   1.00
O1746  O     0.37812   0.59929   0.70713   0.00000  Uiso   1.00
O1747  O     0.15734   0.89348   0.95463   0.00000  Uiso   1.00
O1748  O     0.13169   0.95788   0.92619   0.00000  Uiso   1.00
O1749  O     0.41440   0.95145   0.90673   0.00000  Uiso   1.00
O1750  O     0.34841   0.95446   0.93602   0.00000  Uiso   1.00
O1751  O     0.16364   0.57113   0.72334   0.00000  Uiso   1.00
O1752  O     0.04509   0.79509   0.87291   0.00000  Uiso   1.00
O1753  O     0.10106   0.54038   0.74370   0.00000  Uiso   1.00
O1754  O     0.13749   0.54718   0.92139   0.00000  Uiso   1.00
O1755  O     0.12930   0.61270   0.96019   0.00000  Uiso   1.00
O1756  O     0.32878   0.87886   0.71714   0.00000  Uiso   1.00
O1757  O     0.35771   0.94716   0.73125   0.00000  Uiso   1.00
O1758  O     0.04509   0.79509   0.79375   0.00000  Uiso   1.00
O1759  O     0.45492   0.70491   0.87291   0.00000  Uiso   1.00
O1760  O     0.29509   0.95491   0.87291   0.00000  Uiso   1.00
C1761  C     0.56153   0.69317   0.83259   0.00000  Uiso   1.00
C1762  C     0.99784   0.78957   0.97619   0.00000  Uiso   1.00
C1763  C     0.50297   0.78946   0.69156   0.00000  Uiso   1.00
C1764  C     0.50203   0.71037   0.97475   0.00000  Uiso   1.00
C1765  C     0.74773   0.96015   0.69060   0.00000  Uiso   1.00
C1766  C     0.74784   0.53957   0.97619   0.00000  Uiso   1.00
C1767  C     0.75297   0.53946   0.69156   0.00000  Uiso   1.00
C1768  C     0.75202   0.96037   0.97475   0.00000  Uiso   1.00
C1769  C     0.88472   0.64699   0.79372   0.00000  Uiso   1.00
C1770  C     0.61628   0.85060   0.87493   0.00000  Uiso   1.00
C1771  C     0.61394   0.85556   0.79185   0.00000  Uiso   1.00
C1772  C     0.93843   0.80682   0.83379   0.00000  Uiso   1.00
C1773  C     0.89020   0.64011   0.87643   0.00000  Uiso   1.00
C1774  C     0.61835   0.65190   0.87130   0.00000  Uiso   1.00
C1775  C     0.88347   0.84920   0.79216   0.00000  Uiso   1.00
C1776  C     0.88930   0.86093   0.87461   0.00000  Uiso   1.00
C1777  C     0.60775   0.63716   0.79006   0.00000  Uiso   1.00
C1778  C     0.63473   0.89698   0.79371   0.00000  Uiso   1.00
C1779  C     0.86628   0.60060   0.87493   0.00000  Uiso   1.00
C1780  C     0.86394   0.60557   0.79185   0.00000  Uiso   1.00
C1781  C     0.64020   0.89011   0.87643   0.00000  Uiso   1.00
C1782  C     0.86833   0.90189   0.87130   0.00000  Uiso   1.00
C1783  C     0.93837   0.69319   0.83379   0.00000  Uiso   1.00
C1784  C     0.63347   0.59920   0.79216   0.00000  Uiso   1.00
C1785  C     0.63931   0.61094   0.87461   0.00000  Uiso   1.00
C1786  C     0.85775   0.88716   0.79006   0.00000  Uiso   1.00
C1787  C     0.59909   0.83613   0.83310   0.00000  Uiso   1.00
C1788  C     0.90255   0.66137   0.83503   0.00000  Uiso   1.00
C1789  C     0.90222   0.83793   0.83395   0.00000  Uiso   1.00
C1790  C     0.59749   0.66187   0.83072   0.00000  Uiso   1.00
C1791  C     0.84908   0.58613   0.83310   0.00000  Uiso   1.00
C1792  C     0.65255   0.91137   0.83502   0.00000  Uiso   1.00
C1793  C     0.65222   0.58793   0.83395   0.00000  Uiso   1.00
C1794  C     0.56204   0.80608   0.83311   0.00000  Uiso   1.00
C1795  C     0.84749   0.91186   0.83072   0.00000  Uiso   1.00
C1796  C     0.98851   0.66537   0.71214   0.00000  Uiso   1.00
C1797  C     0.98766   0.83391   0.95553   0.00000  Uiso   1.00
C1798  C     0.51494   0.83310   0.71349   0.00000  Uiso   1.00
C1799  C     0.51180   0.66673   0.95116   0.00000  Uiso   1.00
C1800  C     0.73851   0.91537   0.71214   0.00000  Uiso   1.00
C1801  C     0.73766   0.58391   0.95553   0.00000  Uiso   1.00
C1802  C     0.76494   0.58310   0.71349   0.00000  Uiso   1.00
C1803  C     0.76179   0.91672   0.95116   0.00000  Uiso   1.00
C1804  C     0.87482   0.68049   0.75865   0.00000  Uiso   1.00
C1805  C     0.81153   0.94317   0.83259   0.00000  Uiso   1.00
C1806  C     0.61852   0.82007   0.91444   0.00000  Uiso   1.00
C1807  C     0.61801   0.82848   0.74863   0.00000  Uiso   1.00
C1808  C     0.89447   0.66334   0.92148   0.00000  Uiso   1.00
C1809  C     0.62847   0.68793   0.90493   0.00000  Uiso   1.00
C1810  C     0.88510   0.81849   0.75171   0.00000  Uiso   1.00
C1811  C     0.88699   0.83809   0.91979   0.00000  Uiso   1.00
C1812  C     0.59659   0.65357   0.74406   0.00000  Uiso   1.00
C1813  C     0.62482   0.93048   0.75865   0.00000  Uiso   1.00
C1814  C     0.86851   0.57008   0.91444   0.00000  Uiso   1.00
C1815  C     0.86800   0.57849   0.74863   0.00000  Uiso   1.00
C1816  C     0.68843   0.55682   0.83379   0.00000  Uiso   1.00
C1817  C     0.64446   0.91335   0.92148   0.00000  Uiso   1.00
C1818  C     0.87846   0.93792   0.90493   0.00000  Uiso   1.00
C1819  C     0.63511   0.56849   0.75171   0.00000  Uiso   1.00
C1820  C     0.63700   0.58810   0.91978   0.00000  Uiso   1.00
C1821  C     0.84663   0.90360   0.74407   0.00000  Uiso   1.00
C1822  C     0.68837   0.94319   0.83379   0.00000  Uiso   1.00
C1823  C     0.81204   0.55608   0.83311   0.00000  Uiso   1.00
C1824  C     0.99773   0.71015   0.69060   0.00000  Uiso   1.00
Cu1825 Cu    0.50000   0.75000   0.88022   0.00000  Uiso   1.00
Cu1826 Cu    0.50000   0.75000   0.78645   0.00000  Uiso   1.00
Cu1827 Cu    0.75000   0.50000   0.88022   0.00000  Uiso   1.00
Cu1828 Cu    0.75000   0.50000   0.78645   0.00000  Uiso   1.00
H1829  H     0.96101   0.60443   0.70602   0.00000  Uiso   1.00
H1830  H     0.65709   0.78285   0.95235   0.00000  Uiso   1.00
H1831  H     0.63336   0.82674   0.68141   0.00000  Uiso   1.00
H1832  H     0.88504   0.71991   0.95856   0.00000  Uiso   1.00
H1833  H     0.60991   0.72720   0.95851   0.00000  Uiso   1.00
H1834  H     0.85205   0.77647   0.71176   0.00000  Uiso   1.00
H1835  H     0.87450   0.84252   0.98750   0.00000  Uiso   1.00
H1836  H     0.59693   0.70503   0.69994   0.00000  Uiso   1.00
H1837  H     0.64323   0.96506   0.70263   0.00000  Uiso   1.00
H1838  H     0.90707   0.53284   0.95235   0.00000  Uiso   1.00
H1839  H     0.88336   0.57676   0.68140   0.00000  Uiso   1.00
H1840  H     0.95841   0.89343   0.96451   0.00000  Uiso   1.00
H1841  H     0.63502   0.96993   0.95855   0.00000  Uiso   1.00
H1842  H     0.85990   0.97716   0.95853   0.00000  Uiso   1.00
H1843  H     0.60206   0.52646   0.71177   0.00000  Uiso   1.00
H1844  H     0.62451   0.59252   0.98750   0.00000  Uiso   1.00
H1845  H     0.84708   0.95506   0.69997   0.00000  Uiso   1.00
H1846  H     0.54881   0.89009   0.70720   0.00000  Uiso   1.00
H1847  H     0.54680   0.61070   0.94992   0.00000  Uiso   1.00
H1848  H     0.71100   0.85444   0.70604   0.00000  Uiso   1.00
H1849  H     0.70842   0.64344   0.96452   0.00000  Uiso   1.00
H1850  H     0.79881   0.64009   0.70720   0.00000  Uiso   1.00
H1851  H     0.79677   0.86068   0.94993   0.00000  Uiso   1.00
H1852  H     0.89323   0.71507   0.70264   0.00000  Uiso   1.00
N1853  N     0.50000   0.75000   0.95069   0.00000  Uiso   1.00
N1854  N     0.50000   0.75000   0.71598   0.00000  Uiso   1.00
N1855  N     0.75000   0.50000   0.95069   0.00000  Uiso   1.00
N1856  N     0.75000   0.50000   0.71598   0.00000  Uiso   1.00
O1857  O     0.54509   0.70491   0.87291   0.00000  Uiso   1.00
O1858  O     0.70492   0.54509   0.79375   0.00000  Uiso   1.00
O1859  O     0.70492   0.54509   0.87291   0.00000  Uiso   1.00
O1860  O     0.79509   0.95491   0.79375   0.00000  Uiso   1.00
O1861  O     0.70492   0.95491   0.79375   0.00000  Uiso   1.00
O1862  O     0.79509   0.54509   0.87291   0.00000  Uiso   1.00
O1863  O     0.79509   0.54509   0.79375   0.00000  Uiso   1.00
O1864  O     0.70492   0.95491   0.87291   0.00000  Uiso   1.00
O1865  O     0.50353   0.65438   0.74809   0.00000  Uiso   1.00
O1866  O     0.96340   0.63415   0.68943   0.00000  Uiso   1.00
O1867  O     0.50499   0.84718   0.92063   0.00000  Uiso   1.00
O1868  O     0.95492   0.79509   0.79375   0.00000  Uiso   1.00
O1869  O     0.96076   0.86306   0.97965   0.00000  Uiso   1.00
O1870  O     0.99614   0.84820   0.74702   0.00000  Uiso   1.00
O1871  O     0.54532   0.85967   0.69171   0.00000  Uiso   1.00
O1872  O     0.98976   0.65134   0.92141   0.00000  Uiso   1.00
O1873  O     0.54446   0.64069   0.96671   0.00000  Uiso   1.00
O1874  O     0.75355   0.90437   0.74808   0.00000  Uiso   1.00
O1875  O     0.71339   0.88416   0.68945   0.00000  Uiso   1.00
O1876  O     0.75498   0.59718   0.92063   0.00000  Uiso   1.00
O1877  O     0.71077   0.61307   0.97966   0.00000  Uiso   1.00
O1878  O     0.74615   0.59820   0.74703   0.00000  Uiso   1.00
O1879  O     0.95492   0.79509   0.87291   0.00000  Uiso   1.00
O1880  O     0.79532   0.60967   0.69171   0.00000  Uiso   1.00
O1881  O     0.73975   0.90134   0.92141   0.00000  Uiso   1.00
O1882  O     0.79443   0.89068   0.96672   0.00000  Uiso   1.00
O1883  O     0.84013   0.69721   0.75924   0.00000  Uiso   1.00
O1884  O     0.90396   0.69208   0.72459   0.00000  Uiso   1.00
O1885  O     0.58986   0.81757   0.94266   0.00000  Uiso   1.00
O1886  O     0.65616   0.79813   0.92154   0.00000  Uiso   1.00
O1887  O     0.61632   0.78747   0.74988   0.00000  Uiso   1.00
O1888  O     0.62812   0.84928   0.70713   0.00000  Uiso   1.00
O1889  O     0.90736   0.64347   0.95462   0.00000  Uiso   1.00
O1890  O     0.54509   0.70491   0.79375   0.00000  Uiso   1.00
O1891  O     0.88170   0.70787   0.92620   0.00000  Uiso   1.00
O1892  O     0.66442   0.70142   0.90677   0.00000  Uiso   1.00
O1893  O     0.59842   0.70451   0.93599   0.00000  Uiso   1.00
O1894  O     0.91364   0.82111   0.72335   0.00000  Uiso   1.00
O1895  O     0.85104   0.79040   0.74368   0.00000  Uiso   1.00
O1896  O     0.88749   0.79717   0.92139   0.00000  Uiso   1.00
O1897  O     0.87929   0.86269   0.96019   0.00000  Uiso   1.00
O1898  O     0.57874   0.62880   0.71715   0.00000  Uiso   1.00
O1899  O     0.60762   0.69715   0.73121   0.00000  Uiso   1.00
O1900  O     0.59012   0.94719   0.75922   0.00000  Uiso   1.00
O1901  O     0.95492   0.70491   0.79375   0.00000  Uiso   1.00
O1902  O     0.65396   0.94208   0.72459   0.00000  Uiso   1.00
O1903  O     0.83985   0.56758   0.94266   0.00000  Uiso   1.00
O1904  O     0.90614   0.54812   0.92155   0.00000  Uiso   1.00
O1905  O     0.86630   0.53749   0.74987   0.00000  Uiso   1.00
O1906  O     0.87812   0.59929   0.70713   0.00000  Uiso   1.00
O1907  O     0.65734   0.89348   0.95463   0.00000  Uiso   1.00
O1908  O     0.63169   0.95788   0.92619   0.00000  Uiso   1.00
O1909  O     0.91440   0.95145   0.90673   0.00000  Uiso   1.00
O1910  O     0.84841   0.95446   0.93602   0.00000  Uiso   1.00
O1911  O     0.66364   0.57113   0.72334   0.00000  Uiso   1.00
O1912  O     0.54509   0.79509   0.87291   0.00000  Uiso   1.00
O1913  O     0.60106   0.54038   0.74370   0.00000  Uiso   1.00
O1914  O     0.63749   0.54718   0.92139   0.00000  Uiso   1.00
O1915  O     0.62930   0.61270   0.96019   0.00000  Uiso   1.00
O1916  O     0.82878   0.87886   0.71714   0.00000  Uiso   1.00
O1917  O     0.85771   0.94716   0.73125   0.00000  Uiso   1.00
O1918  O     0.54509   0.79509   0.79375   0.00000  Uiso   1.00
O1919  O     0.95492   0.70491   0.87291   0.00000  Uiso   1.00
O1920  O     0.79509   0.95491   0.87291   0.00000  Uiso   1.00
loop_
_geom_bond_atom_site_label_1
_geom_bond_atom_site_label_2
_geom_bond_distance
_geom_bond_site_symmetry_2
_ccdc_geom_bond_type
C1     O130    1.312   .     A
C1     O97     1.319   .     A
C1     C30     1.487   .     S
C2     C37     1.497   .     S
C2     C803    1.432   .     S
C2     N253    1.385   .     S
C3     C38     1.492   .     S
C3     N94     1.381   .     A
C3     C1442   1.432   1_454 S
C4     C39     1.492   .     S
C4     N93     1.381   .     A
C4     C864    1.435   1_455 S
C5     C40     1.504   .     S
C5     C1288   1.435   1_554 S
C5     N416    1.391   .     S
C6     C41     1.497   .     S
C6     N95     1.385   .     A
C6     C647    1.432   .     S
C7     N96     1.381   .     A
C7     C42     1.492   .     S
C7     C1286   1.432   1_554 S
C8     C43     1.492   .     S
C8     C645    1.435   .     S
C8     N415    1.381   .     S
C9     C20     1.399   .     A
C9     C44     1.477   .     S
C9     C28     1.406   .     A
C10    C27     1.411   .     A
C10    C46     1.478   .     S
C10    C21     1.401   .     A
C11    C18     1.399   .     A
C11    C47     1.489   .     S
C11    C27     1.411   .     A
C12    C29     1.489   .     S
C12    O108    1.312   .     A
C12    O119    1.320   .     A
C13    C19     1.401   .     A
C13    C28     1.415   .     A
C13    C48     1.484   .     S
C14    C30     1.408   .     A
C14    C25     1.400   .     A
C14    C49     1.483   .     S
C15    C29     1.416   .     A
C15    C26     1.405   .     A
C15    C50     1.481   .     S
C16    C29     1.414   .     A
C16    C51     1.488   .     S
C16    C22     1.400   .     A
C17    C30     1.418   .     A
C17    C52     1.484   .     S
C17    C24     1.405   .     A
C18    C53     1.477   .     S
C18    C32     1.406   .     A
C19    C31     1.411   .     A
C19    C54     1.478   .     S
C20    C55     1.489   .     S
C20    C31     1.411   .     A
C21    C32     1.415   .     A
C21    C57     1.484   .     S
C22    C35     1.408   .     A
C22    C58     1.483   .     S
C23    O159    1.312   .     A
C23    C28     1.486   .     S
C23    O141    1.319   .     A
C24    C33     1.416   .     A
C24    C59     1.481   .     S
C25    C60     1.488   .     S
C25    C33     1.414   .     A
C26    C61     1.484   .     S
C26    C35     1.418   .     A
C27    C34     1.484   .     S
C31    C63     1.484   .     S
C32    C62     1.486   .     S
C33    C56     1.489   .     S
C34    O152    1.312   .     A
C34    O158    1.318   .     A
C35    C45     1.487   .     S
C36    O106    1.398   .     S
C36    C64     1.504   .     S
C36    O265    1.213   .     S
C37    O109    1.397   .     S
C37    O267    1.215   .     S
C38    O111    1.397   .     S
C38    O270    1.217   1_455 S
C39    O113    1.395   .     S
C39    O272    1.216   1_455 S
C40    O115    1.398   .     S
C40    O114    1.213   .     D
C41    O116    1.215   .     D
C41    O117    1.397   .     S
C42    O118    1.217   .     D
C42    O120    1.397   .     S
C43    O121    1.216   .     D
C43    O122    1.395   .     S
C44    O123    1.222   .     D
C44    O124    1.391   .     S
C45    O160    1.319   .     A
C45    O100    1.312   .     A
C46    O125    1.221   .     D
C46    O126    1.398   .     S
C47    O128    1.395   .     S
C47    O127    1.221   .     D
C48    O131    1.393   .     S
C48    O129    1.220   .     D
C49    O132    1.222   .     D
C49    O133    1.394   .     S
C50    O135    1.396   .     S
C50    O134    1.221   .     D
C51    O136    1.219   .     D
C51    O137    1.395   .     S
C52    O139    1.395   .     S
C52    O138    1.220   .     D
C53    O140    1.222   .     D
C53    O142    1.391   .     S
C54    O144    1.398   .     S
C54    O143    1.221   .     D
C55    O145    1.221   .     D
C55    O146    1.395   .     S
C56    O98     1.312   .     A
C56    O99     1.320   .     A
C57    O147    1.220   .     D
C57    O148    1.393   .     S
C58    O149    1.222   .     D
C58    O150    1.394   .     S
C59    O153    1.396   .     S
C59    O151    1.221   .     D
C60    O154    1.219   .     D
C60    O155    1.395   .     S
C61    O157    1.395   .     S
C61    O156    1.220   .     D
C62    O101    1.319   .     A
C62    O104    1.312   .     A
C63    O102    1.312   .     A
C63    O103    1.318   .     A
C64    C1444   1.435   1_554 S
C64    N254    1.391   .     S
Cu65   N93     2.052   .     S
Cu65   Cu66    2.730   .     S
Cu65   O152    1.978   .     S
Cu65   O97     1.984   .     S
Cu65   O279    1.995   1_455 S
Cu65   O319    1.982   1_455 S
Cu66   N94     2.052   .     S
Cu66   O158    1.982   .     S
Cu66   O130    1.995   .     S
Cu66   O268    1.984   1_455 S
Cu66   O301    1.978   1_455 S
Cu67   O99     1.995   .     S
Cu67   N95     2.052   .     S
Cu67   Cu68    2.730   .     S
Cu67   O102    1.978   .     S
Cu67   O424    1.982   1_545 S
Cu67   O480    1.984   1_545 S
Cu68   N96     2.052   .     S
Cu68   O103    1.982   .     S
Cu68   O98     1.984   .     S
Cu68   O420    1.995   1_545 S
Cu68   O421    1.978   1_545 S
H69    O106    1.014   .     S
H70    O126    1.012   .     S
H71    O128    1.010   .     S
H72    O131    1.012   .     S
H73    O133    1.010   .     S
H74    O135    1.013   .     S
H75    O137    1.010   .     S
H76    O139    1.012   .     S
H77    O142    1.010   .     S
H78    O144    1.012   .     S
H79    O146    1.010   .     S
H80    O109    1.014   .     S
H81    O148    1.012   .     S
H82    O150    1.010   .     S
H83    O153    1.013   .     S
H84    O155    1.010   .     S
H85    O157    1.012   .     S
H86    O111    1.013   .     S
H87    O113    1.014   .     S
H88    O115    1.014   .     S
H89    O117    1.014   .     S
H90    O120    1.013   .     S
H91    O122    1.014   .     S
H92    O124    1.010   .     S
N93    C162    1.385   1_455 S
N94    C224    1.391   1_455 S
N95    C328    1.381   1_545 S
N96    C325    1.391   1_545 S
O100   Cu388   1.995   .     S
O101   Cu388   1.978   .     S
O104   Cu387   1.982   .     S
O105   C196    1.213   1_455 S
O107   C197    1.215   1_455 S
O108   Cu226   1.984   .     S
O110   C198    1.217   .     S
O112   C199    1.216   .     S
O119   Cu225   1.995   .     S
O141   Cu226   1.978   .     S
O159   Cu225   1.982   .     S
O160   Cu387   1.984   .     S
C161   O290    1.312   .     A
C161   O257    1.319   .     A
C161   C190    1.487   .     S
C162   C197    1.497   .     S
C162   C643    1.432   1_655 S
C162   N93     1.385   1_655 S
C163   C198    1.492   .     S
C163   N254    1.381   .     A
C163   C1282   1.432   1_554 S
C164   C199    1.492   .     S
C164   N253    1.381   .     A
C164   C704    1.435   .     S
C165   C200    1.504   .     S
C165   C1448   1.435   1_554 S
C165   N576    1.391   .     S
C166   C201    1.497   .     S
C166   N255    1.385   .     A
C166   C807    1.432   .     S
C167   N256    1.381   .     A
C167   C202    1.492   .     S
C167   C1446   1.432   1_554 S
C168   C203    1.492   .     S
C168   C805    1.435   .     S
C168   N575    1.381   .     S
C169   C180    1.399   .     A
C169   C204    1.477   .     S
C169   C188    1.406   .     A
C170   C187    1.411   .     A
C170   C206    1.478   .     S
C170   C181    1.401   .     A
C171   C178    1.399   .     A
C171   C207    1.489   .     S
C171   C187    1.411   .     A
C172   C189    1.489   .     S
C172   O268    1.312   .     A
C172   O279    1.320   .     A
C173   C179    1.401   .     A
C173   C188    1.415   .     A
C173   C208    1.484   .     S
C174   C190    1.408   .     A
C174   C185    1.400   .     A
C174   C209    1.483   .     S
C175   C189    1.416   .     A
C175   C186    1.405   .     A
C175   C210    1.481   .     S
C176   C189    1.414   .     A
C176   C211    1.488   .     S
C176   C182    1.400   .     A
C177   C190    1.418   .     A
C177   C212    1.484   .     S
C177   C184    1.405   .     A
C178   C213    1.477   .     S
C178   C192    1.406   .     A
C179   C191    1.411   .     A
C179   C214    1.478   .     S
C180   C215    1.489   .     S
C180   C191    1.411   .     A
C181   C192    1.415   .     A
C181   C217    1.484   .     S
C182   C195    1.408   .     A
C182   C218    1.483   .     S
C183   O319    1.312   .     A
C183   C188    1.486   .     S
C183   O301    1.319   .     A
C184   C193    1.416   .     A
C184   C219    1.481   .     S
C185   C220    1.488   .     S
C185   C193    1.414   .     A
C186   C221    1.484   .     S
C186   C195    1.418   .     A
C187   C194    1.484   .     S
C191   C223    1.484   .     S
C192   C222    1.486   .     S
C193   C216    1.489   .     S
C194   O312    1.312   .     A
C194   O318    1.318   .     A
C195   C205    1.487   .     S
C196   O266    1.398   .     S
C196   C224    1.504   .     S
C196   O105    1.213   1_655 S
C197   O269    1.397   .     S
C197   O107    1.215   1_655 S
C198   O271    1.397   .     S
C199   O273    1.395   .     S
C200   O275    1.398   .     S
C200   O274    1.213   .     D
C201   O276    1.215   .     D
C201   O277    1.397   .     S
C202   O278    1.217   .     D
C202   O280    1.397   .     S
C203   O281    1.216   .     D
C203   O282    1.395   .     S
C204   O283    1.222   .     D
C204   O284    1.391   .     S
C205   O320    1.319   .     A
C205   O260    1.312   .     A
C206   O285    1.221   .     D
C206   O286    1.398   .     S
C207   O288    1.395   .     S
C207   O287    1.221   .     D
C208   O291    1.393   .     S
C208   O289    1.220   .     D
C209   O292    1.222   .     D
C209   O293    1.394   .     S
C210   O295    1.396   .     S
C210   O294    1.221   .     D
C211   O296    1.219   .     D
C211   O297    1.395   .     S
C212   O299    1.395   .     S
C212   O298    1.220   .     D
C213   O300    1.222   .     D
C213   O302    1.391   .     S
C214   O304    1.398   .     S
C214   O303    1.221   .     D
C215   O305    1.221   .     D
C215   O306    1.395   .     S
C216   O258    1.312   .     A
C216   O259    1.320   .     A
C217   O307    1.220   .     D
C217   O308    1.393   .     S
C218   O309    1.222   .     D
C218   O310    1.394   .     S
C219   O313    1.396   .     S
C219   O311    1.221   .     D
C220   O314    1.219   .     D
C220   O315    1.395   .     S
C221   O317    1.395   .     S
C221   O316    1.220   .     D
C222   O261    1.319   .     A
C222   O264    1.312   .     A
C223   O262    1.312   .     A
C223   O263    1.318   .     A
C224   C1284   1.435   1_654 S
C224   N94     1.391   1_655 S
Cu225  N253    2.052   .     S
Cu225  Cu226   2.730   .     S
Cu225  O312    1.978   .     S
Cu225  O257    1.984   .     S
Cu226  N254    2.052   .     S
Cu226  O318    1.982   .     S
Cu226  O290    1.995   .     S
Cu227  O259    1.995   .     S
Cu227  N255    2.052   .     S
Cu227  Cu228   2.730   .     S
Cu227  O262    1.978   .     S
Cu227  O584    1.982   1_545 S
Cu227  O640    1.984   1_545 S
Cu228  N256    2.052   .     S
Cu228  O263    1.982   .     S
Cu228  O258    1.984   .     S
Cu228  O580    1.995   1_545 S
Cu228  O581    1.978   1_545 S
H229   O266    1.014   .     S
H230   O286    1.012   .     S
H231   O288    1.010   .     S
H232   O291    1.012   .     S
H233   O293    1.010   .     S
H234   O295    1.013   .     S
H235   O297    1.010   .     S
H236   O299    1.012   .     S
H237   O302    1.010   .     S
H238   O304    1.012   .     S
H239   O306    1.010   .     S
H240   O269    1.014   .     S
H241   O308    1.012   .     S
H242   O310    1.010   .     S
H243   O313    1.013   .     S
H244   O315    1.010   .     S
H245   O317    1.012   .     S
H246   O271    1.013   .     S
H247   O273    1.014   .     S
H248   O275    1.014   .     S
H249   O277    1.014   .     S
H250   O280    1.013   .     S
H251   O282    1.014   .     S
H252   O284    1.010   .     S
N255   C488    1.381   1_545 S
N256   C485    1.391   1_545 S
O260   Cu548   1.995   .     S
O261   Cu548   1.978   .     S
O264   Cu547   1.982   .     S
O268   Cu66    1.984   1_655 S
O270   C38     1.217   1_655 S
O272   C39     1.216   1_655 S
O279   Cu65    1.995   1_655 S
O301   Cu66    1.978   1_655 S
O319   Cu65    1.982   1_655 S
O320   Cu547   1.984   .     S
C321   O450    1.312   .     A
C321   O417    1.319   .     A
C321   C350    1.487   .     S
C322   C357    1.497   .     S
C322   C1123   1.432   .     S
C322   N573    1.385   .     S
C323   C358    1.492   .     S
C323   N414    1.381   .     A
C323   C1762   1.432   1_454 S
C324   C359    1.492   .     S
C324   N413    1.381   .     A
C324   C1184   1.435   1_455 S
C325   C360    1.504   .     S
C325   C1608   1.435   1_554 S
C325   N96     1.391   1_565 S
C326   C361    1.497   .     S
C326   N415    1.385   .     A
C326   C967    1.432   .     S
C327   N416    1.381   .     A
C327   C362    1.492   .     S
C327   C1606   1.432   1_554 S
C328   C363    1.492   .     S
C328   C965    1.435   .     S
C328   N95     1.381   1_565 S
C329   C340    1.399   .     A
C329   C364    1.477   .     S
C329   C348    1.406   .     A
C330   C347    1.411   .     A
C330   C366    1.478   .     S
C330   C341    1.401   .     A
C331   C338    1.399   .     A
C331   C367    1.489   .     S
C331   C347    1.411   .     A
C332   C349    1.489   .     S
C332   O428    1.312   .     A
C332   O439    1.320   .     A
C333   C339    1.401   .     A
C333   C348    1.415   .     A
C333   C368    1.484   .     S
C334   C350    1.408   .     A
C334   C345    1.400   .     A
C334   C369    1.483   .     S
C335   C349    1.416   .     A
C335   C346    1.405   .     A
C335   C370    1.481   .     S
C336   C349    1.414   .     A
C336   C371    1.488   .     S
C336   C342    1.400   .     A
C337   C350    1.418   .     A
C337   C372    1.484   .     S
C337   C344    1.405   .     A
C338   C373    1.477   .     S
C338   C352    1.406   .     A
C339   C351    1.411   .     A
C339   C374    1.478   .     S
C340   C375    1.489   .     S
C340   C351    1.411   .     A
C341   C352    1.415   .     A
C341   C377    1.484   .     S
C342   C355    1.408   .     A
C342   C378    1.483   .     S
C343   O479    1.312   .     A
C343   C348    1.486   .     S
C343   O461    1.319   .     A
C344   C353    1.416   .     A
C344   C379    1.481   .     S
C345   C380    1.488   .     S
C345   C353    1.414   .     A
C346   C381    1.484   .     S
C346   C355    1.418   .     A
C347   C354    1.484   .     S
C351   C383    1.484   .     S
C352   C382    1.486   .     S
C353   C376    1.489   .     S
C354   O472    1.312   .     A
C354   O478    1.318   .     A
C355   C365    1.487   .     S
C356   O426    1.398   .     S
C356   C384    1.504   .     S
C356   O585    1.213   .     S
C357   O429    1.397   .     S
C357   O587    1.215   .     S
C358   O431    1.397   .     S
C358   O590    1.217   1_455 S
C359   O433    1.395   .     S
C359   O592    1.216   1_455 S
C360   O435    1.398   .     S
C360   O434    1.213   .     D
C361   O436    1.215   .     D
C361   O437    1.397   .     S
C362   O438    1.217   .     D
C362   O440    1.397   .     S
C363   O441    1.216   .     D
C363   O442    1.395   .     S
C364   O443    1.222   .     D
C364   O444    1.391   .     S
C365   O480    1.319   .     A
C365   O420    1.312   .     A
C366   O445    1.221   .     D
C366   O446    1.398   .     S
C367   O448    1.395   .     S
C367   O447    1.221   .     D
C368   O451    1.393   .     S
C368   O449    1.220   .     D
C369   O452    1.222   .     D
C369   O453    1.394   .     S
C370   O455    1.396   .     S
C370   O454    1.221   .     D
C371   O456    1.219   .     D
C371   O457    1.395   .     S
C372   O459    1.395   .     S
C372   O458    1.220   .     D
C373   O460    1.222   .     D
C373   O462    1.391   .     S
C374   O464    1.398   .     S
C374   O463    1.221   .     D
C375   O465    1.221   .     D
C375   O466    1.395   .     S
C376   O418    1.312   .     A
C376   O419    1.320   .     A
C377   O467    1.220   .     D
C377   O468    1.393   .     S
C378   O469    1.222   .     D
C378   O470    1.394   .     S
C379   O473    1.396   .     S
C379   O471    1.221   .     D
C380   O474    1.219   .     D
C380   O475    1.395   .     S
C381   O477    1.395   .     S
C381   O476    1.220   .     D
C382   O421    1.319   .     A
C382   O424    1.312   .     A
C383   O422    1.312   .     A
C383   O423    1.318   .     A
C384   C1764   1.435   1_554 S
C384   N574    1.391   .     S
Cu385  N413    2.052   .     S
Cu385  Cu386   2.730   .     S
Cu385  O472    1.978   .     S
Cu385  O417    1.984   .     S
Cu385  O599    1.995   1_455 S
Cu385  O639    1.982   1_455 S
Cu386  N414    2.052   .     S
Cu386  O478    1.982   .     S
Cu386  O450    1.995   .     S
Cu386  O588    1.984   1_455 S
Cu386  O621    1.978   1_455 S
Cu387  O419    1.995   .     S
Cu387  N415    2.052   .     S
Cu387  Cu388   2.730   .     S
Cu387  O422    1.978   .     S
Cu388  N416    2.052   .     S
Cu388  O423    1.982   .     S
Cu388  O418    1.984   .     S
H389   O426    1.014   .     S
H390   O446    1.012   .     S
H391   O448    1.010   .     S
H392   O451    1.012   .     S
H393   O453    1.010   .     S
H394   O455    1.013   .     S
H395   O457    1.010   .     S
H396   O459    1.012   .     S
H397   O462    1.010   .     S
H398   O464    1.012   .     S
H399   O466    1.010   .     S
H400   O429    1.014   .     S
H401   O468    1.012   .     S
H402   O470    1.010   .     S
H403   O473    1.013   .     S
H404   O475    1.010   .     S
H405   O477    1.012   .     S
H406   O431    1.013   .     S
H407   O433    1.014   .     S
H408   O435    1.014   .     S
H409   O437    1.014   .     S
H410   O440    1.013   .     S
H411   O442    1.014   .     S
H412   O444    1.010   .     S
N413   C482    1.385   1_455 S
N414   C544    1.391   1_455 S
O420   Cu68    1.995   1_565 S
O421   Cu68    1.978   1_565 S
O424   Cu67    1.982   1_565 S
O425   C516    1.213   1_455 S
O427   C517    1.215   1_455 S
O428   Cu546   1.984   .     S
O430   C518    1.217   .     S
O432   C519    1.216   .     S
O439   Cu545   1.995   .     S
O461   Cu546   1.978   .     S
O479   Cu545   1.982   .     S
O480   Cu67    1.984   1_565 S
C481   O610    1.312   .     A
C481   O577    1.319   .     A
C481   C510    1.487   .     S
C482   C517    1.497   .     S
C482   C963    1.432   1_655 S
C482   N413    1.385   1_655 S
C483   C518    1.492   .     S
C483   N574    1.381   .     A
C483   C1602   1.432   1_554 S
C484   C519    1.492   .     S
C484   N573    1.381   .     A
C484   C1024   1.435   .     S
C485   C520    1.504   .     S
C485   C1768   1.435   1_554 S
C485   N256    1.391   1_565 S
C486   C521    1.497   .     S
C486   N575    1.385   .     A
C486   C1127   1.432   .     S
C487   N576    1.381   .     A
C487   C522    1.492   .     S
C487   C1766   1.432   1_554 S
C488   C523    1.492   .     S
C488   C1125   1.435   .     S
C488   N255    1.381   1_565 S
C489   C500    1.399   .     A
C489   C524    1.477   .     S
C489   C508    1.406   .     A
C490   C507    1.411   .     A
C490   C526    1.478   .     S
C490   C501    1.401   .     A
C491   C498    1.399   .     A
C491   C527    1.489   .     S
C491   C507    1.411   .     A
C492   C509    1.489   .     S
C492   O588    1.312   .     A
C492   O599    1.320   .     A
C493   C499    1.401   .     A
C493   C508    1.415   .     A
C493   C528    1.484   .     S
C494   C510    1.408   .     A
C494   C505    1.400   .     A
C494   C529    1.483   .     S
C495   C509    1.416   .     A
C495   C506    1.405   .     A
C495   C530    1.481   .     S
C496   C509    1.414   .     A
C496   C531    1.488   .     S
C496   C502    1.400   .     A
C497   C510    1.418   .     A
C497   C532    1.484   .     S
C497   C504    1.405   .     A
C498   C533    1.477   .     S
C498   C512    1.406   .     A
C499   C511    1.411   .     A
C499   C534    1.478   .     S
C500   C535    1.489   .     S
C500   C511    1.411   .     A
C501   C512    1.415   .     A
C501   C537    1.484   .     S
C502   C515    1.408   .     A
C502   C538    1.483   .     S
C503   O639    1.312   .     A
C503   C508    1.486   .     S
C503   O621    1.319   .     A
C504   C513    1.416   .     A
C504   C539    1.481   .     S
C505   C540    1.488   .     S
C505   C513    1.414   .     A
C506   C541    1.484   .     S
C506   C515    1.418   .     A
C507   C514    1.484   .     S
C511   C543    1.484   .     S
C512   C542    1.486   .     S
C513   C536    1.489   .     S
C514   O632    1.312   .     A
C514   O638    1.318   .     A
C515   C525    1.487   .     S
C516   O586    1.398   .     S
C516   C544    1.504   .     S
C516   O425    1.213   1_655 S
C517   O589    1.397   .     S
C517   O427    1.215   1_655 S
C518   O591    1.397   .     S
C519   O593    1.395   .     S
C520   O595    1.398   .     S
C520   O594    1.213   .     D
C521   O596    1.215   .     D
C521   O597    1.397   .     S
C522   O598    1.217   .     D
C522   O600    1.397   .     S
C523   O601    1.216   .     D
C523   O602    1.395   .     S
C524   O603    1.222   .     D
C524   O604    1.391   .     S
C525   O640    1.319   .     A
C525   O580    1.312   .     A
C526   O605    1.221   .     D
C526   O606    1.398   .     S
C527   O608    1.395   .     S
C527   O607    1.221   .     D
C528   O611    1.393   .     S
C528   O609    1.220   .     D
C529   O612    1.222   .     D
C529   O613    1.394   .     S
C530   O615    1.396   .     S
C530   O614    1.221   .     D
C531   O616    1.219   .     D
C531   O617    1.395   .     S
C532   O619    1.395   .     S
C532   O618    1.220   .     D
C533   O620    1.222   .     D
C533   O622    1.391   .     S
C534   O624    1.398   .     S
C534   O623    1.221   .     D
C535   O625    1.221   .     D
C535   O626    1.395   .     S
C536   O578    1.312   .     A
C536   O579    1.320   .     A
C537   O627    1.220   .     D
C537   O628    1.393   .     S
C538   O629    1.222   .     D
C538   O630    1.394   .     S
C539   O633    1.396   .     S
C539   O631    1.221   .     D
C540   O634    1.219   .     D
C540   O635    1.395   .     S
C541   O637    1.395   .     S
C541   O636    1.220   .     D
C542   O581    1.319   .     A
C542   O584    1.312   .     A
C543   O582    1.312   .     A
C543   O583    1.318   .     A
C544   C1604   1.435   1_654 S
C544   N414    1.391   1_655 S
Cu545  N573    2.052   .     S
Cu545  Cu546   2.730   .     S
Cu545  O632    1.978   .     S
Cu545  O577    1.984   .     S
Cu546  N574    2.052   .     S
Cu546  O638    1.982   .     S
Cu546  O610    1.995   .     S
Cu547  O579    1.995   .     S
Cu547  N575    2.052   .     S
Cu547  Cu548   2.730   .     S
Cu547  O582    1.978   .     S
Cu548  N576    2.052   .     S
Cu548  O583    1.982   .     S
Cu548  O578    1.984   .     S
H549   O586    1.014   .     S
H550   O606    1.012   .     S
H551   O608    1.010   .     S
H552   O611    1.012   .     S
H553   O613    1.010   .     S
H554   O615    1.013   .     S
H555   O617    1.010   .     S
H556   O619    1.012   .     S
H557   O622    1.010   .     S
H558   O624    1.012   .     S
H559   O626    1.010   .     S
H560   O589    1.014   .     S
H561   O628    1.012   .     S
H562   O630    1.010   .     S
H563   O633    1.013   .     S
H564   O635    1.010   .     S
H565   O637    1.012   .     S
H566   O591    1.013   .     S
H567   O593    1.014   .     S
H568   O595    1.014   .     S
H569   O597    1.014   .     S
H570   O600    1.013   .     S
H571   O602    1.014   .     S
H572   O604    1.010   .     S
O580   Cu228   1.995   1_565 S
O581   Cu228   1.978   1_565 S
O584   Cu227   1.982   1_565 S
O588   Cu386   1.984   1_655 S
O590   C358    1.217   1_655 S
O592   C359    1.216   1_655 S
O599   Cu385   1.995   1_655 S
O621   Cu386   1.978   1_655 S
O639   Cu385   1.982   1_655 S
O640   Cu227   1.984   1_565 S
C641   O770    1.312   .     A
C641   O737    1.319   .     A
C641   C670    1.487   .     S
C642   C677    1.497   .     S
C642   C1443   1.432   .     S
C642   N893    1.385   .     S
C643   C678    1.492   .     S
C643   N734    1.381   .     A
C643   C162    1.432   1_455 S
C644   C679    1.492   .     S
C644   N733    1.381   .     A
C644   C1504   1.435   1_455 S
C645   C680    1.504   .     S
C645   N1056   1.391   .     S
C646   C681    1.497   .     S
C646   N735    1.385   .     A
C646   C1287   1.432   .     S
C647   N736    1.381   .     A
C647   C682    1.492   .     S
C648   C683    1.492   .     S
C648   C1285   1.435   .     S
C648   N1055   1.381   .     S
C649   C660    1.399   .     A
C649   C684    1.477   .     S
C649   C668    1.406   .     A
C650   C667    1.411   .     A
C650   C686    1.478   .     S
C650   C661    1.401   .     A
C651   C658    1.399   .     A
C651   C687    1.489   .     S
C651   C667    1.411   .     A
C652   C669    1.489   .     S
C652   O748    1.312   .     A
C652   O759    1.320   .     A
C653   C659    1.401   .     A
C653   C668    1.415   .     A
C653   C688    1.484   .     S
C654   C670    1.408   .     A
C654   C665    1.400   .     A
C654   C689    1.483   .     S
C655   C669    1.416   .     A
C655   C666    1.405   .     A
C655   C690    1.481   .     S
C656   C669    1.414   .     A
C656   C691    1.488   .     S
C656   C662    1.400   .     A
C657   C670    1.418   .     A
C657   C692    1.484   .     S
C657   C664    1.405   .     A
C658   C693    1.477   .     S
C658   C672    1.406   .     A
C659   C671    1.411   .     A
C659   C694    1.478   .     S
C660   C695    1.489   .     S
C660   C671    1.411   .     A
C661   C672    1.415   .     A
C661   C697    1.484   .     S
C662   C675    1.408   .     A
C662   C698    1.483   .     S
C663   O799    1.312   .     A
C663   C668    1.486   .     S
C663   O781    1.319   .     A
C664   C673    1.416   .     A
C664   C699    1.481   .     S
C665   C700    1.488   .     S
C665   C673    1.414   .     A
C666   C701    1.484   .     S
C666   C675    1.418   .     A
C667   C674    1.484   .     S
C671   C703    1.484   .     S
C672   C702    1.486   .     S
C673   C696    1.489   .     S
C674   O792    1.312   .     A
C674   O798    1.318   .     A
C675   C685    1.487   .     S
C676   O746    1.398   .     S
C676   C704    1.504   .     S
C676   O905    1.213   .     S
C677   O749    1.397   .     S
C677   O907    1.215   .     S
C678   O751    1.397   .     S
C678   O910    1.217   1_455 S
C679   O753    1.395   .     S
C679   O912    1.216   1_455 S
C680   O755    1.398   .     S
C680   O754    1.213   .     D
C681   O756    1.215   .     D
C681   O757    1.397   .     S
C682   O758    1.217   .     D
C682   O760    1.397   .     S
C683   O761    1.216   .     D
C683   O762    1.395   .     S
C684   O763    1.222   .     D
C684   O764    1.391   .     S
C685   O800    1.319   .     A
C685   O740    1.312   .     A
C686   O765    1.221   .     D
C686   O766    1.398   .     S
C687   O768    1.395   .     S
C687   O767    1.221   .     D
C688   O771    1.393   .     S
C688   O769    1.220   .     D
C689   O772    1.222   .     D
C689   O773    1.394   .     S
C690   O775    1.396   .     S
C690   O774    1.221   .     D
C691   O776    1.219   .     D
C691   O777    1.395   .     S
C692   O779    1.395   .     S
C692   O778    1.220   .     D
C693   O780    1.222   .     D
C693   O782    1.391   .     S
C694   O784    1.398   .     S
C694   O783    1.221   .     D
C695   O785    1.221   .     D
C695   O786    1.395   .     S
C696   O738    1.312   .     A
C696   O739    1.320   .     A
C697   O787    1.220   .     D
C697   O788    1.393   .     S
C698   O789    1.222   .     D
C698   O790    1.394   .     S
C699   O793    1.396   .     S
C699   O791    1.221   .     D
C700   O794    1.219   .     D
C700   O795    1.395   .     S
C701   O797    1.395   .     S
C701   O796    1.220   .     D
C702   O741    1.319   .     A
C702   O744    1.312   .     A
C703   O742    1.312   .     A
C703   O743    1.318   .     A
C704   N894    1.391   .     S
Cu705  N733    2.052   .     S
Cu705  Cu706   2.730   .     S
Cu705  O792    1.978   .     S
Cu705  O737    1.984   .     S
Cu705  O919    1.995   1_455 S
Cu705  O959    1.982   1_455 S
Cu706  N734    2.052   .     S
Cu706  O798    1.982   .     S
Cu706  O770    1.995   .     S
Cu706  O908    1.984   1_455 S
Cu706  O941    1.978   1_455 S
Cu707  O739    1.995   .     S
Cu707  N735    2.052   .     S
Cu707  Cu708   2.730   .     S
Cu707  O742    1.978   .     S
Cu707  O1064   1.982   1_545 S
Cu707  O1120   1.984   1_545 S
Cu708  N736    2.052   .     S
Cu708  O743    1.982   .     S
Cu708  O738    1.984   .     S
Cu708  O1060   1.995   1_545 S
Cu708  O1061   1.978   1_545 S
H709   O746    1.014   .     S
H710   O766    1.012   .     S
H711   O768    1.010   .     S
H712   O771    1.012   .     S
H713   O773    1.010   .     S
H714   O775    1.013   .     S
H715   O777    1.010   .     S
H716   O779    1.012   .     S
H717   O782    1.010   .     S
H718   O784    1.012   .     S
H719   O786    1.010   .     S
H720   O749    1.014   .     S
H721   O788    1.012   .     S
H722   O790    1.010   .     S
H723   O793    1.013   .     S
H724   O795    1.010   .     S
H725   O797    1.012   .     S
H726   O751    1.013   .     S
H727   O753    1.014   .     S
H728   O755    1.014   .     S
H729   O757    1.014   .     S
H730   O760    1.013   .     S
H731   O762    1.014   .     S
H732   O764    1.010   .     S
N733   C802    1.385   1_455 S
N734   C864    1.391   1_455 S
N735   C968    1.381   1_545 S
N736   C965    1.391   1_545 S
O740   Cu1028  1.995   .     S
O741   Cu1028  1.978   .     S
O744   Cu1027  1.982   .     S
O745   C836    1.213   1_455 S
O747   C837    1.215   1_455 S
O748   Cu866   1.984   .     S
O750   C838    1.217   .     S
O752   C839    1.216   .     S
O759   Cu865   1.995   .     S
O781   Cu866   1.978   .     S
O799   Cu865   1.982   .     S
O800   Cu1027  1.984   .     S
C801   O930    1.312   .     A
C801   O897    1.319   .     A
C801   C830    1.487   .     S
C802   C837    1.497   .     S
C802   C1283   1.432   1_655 S
C802   N733    1.385   1_655 S
C803   C838    1.492   .     S
C803   N894    1.381   .     A
C804   C839    1.492   .     S
C804   N893    1.381   .     A
C804   C1344   1.435   .     S
C805   C840    1.504   .     S
C805   N1216   1.391   .     S
C806   C841    1.497   .     S
C806   N895    1.385   .     A
C806   C1447   1.432   .     S
C807   N896    1.381   .     A
C807   C842    1.492   .     S
C808   C843    1.492   .     S
C808   C1445   1.435   .     S
C808   N1215   1.381   .     S
C809   C820    1.399   .     A
C809   C844    1.477   .     S
C809   C828    1.406   .     A
C810   C827    1.411   .     A
C810   C846    1.478   .     S
C810   C821    1.401   .     A
C811   C818    1.399   .     A
C811   C847    1.489   .     S
C811   C827    1.411   .     A
C812   C829    1.489   .     S
C812   O908    1.312   .     A
C812   O919    1.320   .     A
C813   C819    1.401   .     A
C813   C828    1.415   .     A
C813   C848    1.484   .     S
C814   C830    1.408   .     A
C814   C825    1.400   .     A
C814   C849    1.483   .     S
C815   C829    1.416   .     A
C815   C826    1.405   .     A
C815   C850    1.481   .     S
C816   C829    1.414   .     A
C816   C851    1.488   .     S
C816   C822    1.400   .     A
C817   C830    1.418   .     A
C817   C852    1.484   .     S
C817   C824    1.405   .     A
C818   C853    1.477   .     S
C818   C832    1.406   .     A
C819   C831    1.411   .     A
C819   C854    1.478   .     S
C820   C855    1.489   .     S
C820   C831    1.411   .     A
C821   C832    1.415   .     A
C821   C857    1.484   .     S
C822   C835    1.408   .     A
C822   C858    1.483   .     S
C823   O959    1.312   .     A
C823   C828    1.486   .     S
C823   O941    1.319   .     A
C824   C833    1.416   .     A
C824   C859    1.481   .     S
C825   C860    1.488   .     S
C825   C833    1.414   .     A
C826   C861    1.484   .     S
C826   C835    1.418   .     A
C827   C834    1.484   .     S
C831   C863    1.484   .     S
C832   C862    1.486   .     S
C833   C856    1.489   .     S
C834   O952    1.312   .     A
C834   O958    1.318   .     A
C835   C845    1.487   .     S
C836   O906    1.398   .     S
C836   C864    1.504   .     S
C836   O745    1.213   1_655 S
C837   O909    1.397   .     S
C837   O747    1.215   1_655 S
C838   O911    1.397   .     S
C839   O913    1.395   .     S
C840   O915    1.398   .     S
C840   O914    1.213   .     D
C841   O916    1.215   .     D
C841   O917    1.397   .     S
C842   O918    1.217   .     D
C842   O920    1.397   .     S
C843   O921    1.216   .     D
C843   O922    1.395   .     S
C844   O923    1.222   .     D
C844   O924    1.391   .     S
C845   O960    1.319   .     A
C845   O900    1.312   .     A
C846   O925    1.221   .     D
C846   O926    1.398   .     S
C847   O928    1.395   .     S
C847   O927    1.221   .     D
C848   O931    1.393   .     S
C848   O929    1.220   .     D
C849   O932    1.222   .     D
C849   O933    1.394   .     S
C850   O935    1.396   .     S
C850   O934    1.221   .     D
C851   O936    1.219   .     D
C851   O937    1.395   .     S
C852   O939    1.395   .     S
C852   O938    1.220   .     D
C853   O940    1.222   .     D
C853   O942    1.391   .     S
C854   O944    1.398   .     S
C854   O943    1.221   .     D
C855   O945    1.221   .     D
C855   O946    1.395   .     S
C856   O898    1.312   .     A
C856   O899    1.320   .     A
C857   O947    1.220   .     D
C857   O948    1.393   .     S
C858   O949    1.222   .     D
C858   O950    1.394   .     S
C859   O953    1.396   .     S
C859   O951    1.221   .     D
C860   O954    1.219   .     D
C860   O955    1.395   .     S
C861   O957    1.395   .     S
C861   O956    1.220   .     D
C862   O901    1.319   .     A
C862   O904    1.312   .     A
C863   O902    1.312   .     A
C863   O903    1.318   .     A
C864   C4      1.435   1_655 S
C864   N734    1.391   1_655 S
Cu865  N893    2.052   .     S
Cu865  Cu866   2.730   .     S
Cu865  O952    1.978   .     S
Cu865  O897    1.984   .     S
Cu866  N894    2.052   .     S
Cu866  O958    1.982   .     S
Cu866  O930    1.995   .     S
Cu867  O899    1.995   .     S
Cu867  N895    2.052   .     S
Cu867  Cu868   2.730   .     S
Cu867  O902    1.978   .     S
Cu867  O1224   1.982   1_545 S
Cu867  O1280   1.984   1_545 S
Cu868  N896    2.052   .     S
Cu868  O903    1.982   .     S
Cu868  O898    1.984   .     S
Cu868  O1220   1.995   1_545 S
Cu868  O1221   1.978   1_545 S
H869   O906    1.014   .     S
H870   O926    1.012   .     S
H871   O928    1.010   .     S
H872   O931    1.012   .     S
H873   O933    1.010   .     S
H874   O935    1.013   .     S
H875   O937    1.010   .     S
H876   O939    1.012   .     S
H877   O942    1.010   .     S
H878   O944    1.012   .     S
H879   O946    1.010   .     S
H880   O909    1.014   .     S
H881   O948    1.012   .     S
H882   O950    1.010   .     S
H883   O953    1.013   .     S
H884   O955    1.010   .     S
H885   O957    1.012   .     S
H886   O911    1.013   .     S
H887   O913    1.014   .     S
H888   O915    1.014   .     S
H889   O917    1.014   .     S
H890   O920    1.013   .     S
H891   O922    1.014   .     S
H892   O924    1.010   .     S
N895   C1128   1.381   1_545 S
N896   C1125   1.391   1_545 S
O900   Cu1188  1.995   .     S
O901   Cu1188  1.978   .     S
O904   Cu1187  1.982   .     S
O908   Cu706   1.984   1_655 S
O910   C678    1.217   1_655 S
O912   C679    1.216   1_655 S
O919   Cu705   1.995   1_655 S
O941   Cu706   1.978   1_655 S
O959   Cu705   1.982   1_655 S
O960   Cu1187  1.984   .     S
C961   O1090   1.312   .     A
C961   O1057   1.319   .     A
C961   C990    1.487   .     S
C962   C997    1.497   .     S
C962   C1763   1.432   .     S
C962   N1213   1.385   .     S
C963   C998    1.492   .     S
C963   N1054   1.381   .     A
C963   C482    1.432   1_455 S
C964   C999    1.492   .     S
C964   N1053   1.381   .     A
C964   C1824   1.435   1_455 S
C965   C1000   1.504   .     S
C965   N736    1.391   1_565 S
C966   C1001   1.497   .     S
C966   N1055   1.385   .     A
C966   C1607   1.432   .     S
C967   N1056   1.381   .     A
C967   C1002   1.492   .     S
C968   C1003   1.492   .     S
C968   C1605   1.435   .     S
C968   N735    1.381   1_565 S
C969   C980    1.399   .     A
C969   C1004   1.477   .     S
C969   C988    1.406   .     A
C970   C987    1.411   .     A
C970   C1006   1.478   .     S
C970   C981    1.401   .     A
C971   C978    1.399   .     A
C971   C1007   1.489   .     S
C971   C987    1.411   .     A
C972   C989    1.489   .     S
C972   O1068   1.312   .     A
C972   O1079   1.320   .     A
C973   C979    1.401   .     A
C973   C988    1.415   .     A
C973   C1008   1.484   .     S
C974   C990    1.408   .     A
C974   C985    1.400   .     A
C974   C1009   1.483   .     S
C975   C989    1.416   .     A
C975   C986    1.405   .     A
C975   C1010   1.481   .     S
C976   C989    1.414   .     A
C976   C1011   1.488   .     S
C976   C982    1.400   .     A
C977   C990    1.418   .     A
C977   C1012   1.484   .     S
C977   C984    1.405   .     A
C978   C1013   1.477   .     S
C978   C992    1.406   .     A
C979   C991    1.411   .     A
C979   C1014   1.478   .     S
C980   C1015   1.489   .     S
C980   C991    1.411   .     A
C981   C992    1.415   .     A
C981   C1017   1.484   .     S
C982   C995    1.408   .     A
C982   C1018   1.483   .     S
C983   O1119   1.312   .     A
C983   C988    1.486   .     S
C983   O1101   1.319   .     A
C984   C993    1.416   .     A
C984   C1019   1.481   .     S
C985   C1020   1.488   .     S
C985   C993    1.414   .     A
C986   C1021   1.484   .     S
C986   C995    1.418   .     A
C987   C994    1.484   .     S
C991   C1023   1.484   .     S
C992   C1022   1.486   .     S
C993   C1016   1.489   .     S
C994   O1112   1.312   .     A
C994   O1118   1.318   .     A
C995   C1005   1.487   .     S
C996   O1066   1.398   .     S
C996   C1024   1.504   .     S
C996   O1225   1.213   .     S
C997   O1069   1.397   .     S
C997   O1227   1.215   .     S
C998   O1071   1.397   .     S
C998   O1230   1.217   1_455 S
C999   O1073   1.395   .     S
C999   O1232   1.216   1_455 S
C1000  O1075   1.398   .     S
C1000  O1074   1.213   .     D
C1001  O1076   1.215   .     D
C1001  O1077   1.397   .     S
C1002  O1078   1.217   .     D
C1002  O1080   1.397   .     S
C1003  O1081   1.216   .     D
C1003  O1082   1.395   .     S
C1004  O1083   1.222   .     D
C1004  O1084   1.391   .     S
C1005  O1120   1.319   .     A
C1005  O1060   1.312   .     A
C1006  O1085   1.221   .     D
C1006  O1086   1.398   .     S
C1007  O1088   1.395   .     S
C1007  O1087   1.221   .     D
C1008  O1091   1.393   .     S
C1008  O1089   1.220   .     D
C1009  O1092   1.222   .     D
C1009  O1093   1.394   .     S
C1010  O1095   1.396   .     S
C1010  O1094   1.221   .     D
C1011  O1096   1.219   .     D
C1011  O1097   1.395   .     S
C1012  O1099   1.395   .     S
C1012  O1098   1.220   .     D
C1013  O1100   1.222   .     D
C1013  O1102   1.391   .     S
C1014  O1104   1.398   .     S
C1014  O1103   1.221   .     D
C1015  O1105   1.221   .     D
C1015  O1106   1.395   .     S
C1016  O1058   1.312   .     A
C1016  O1059   1.320   .     A
C1017  O1107   1.220   .     D
C1017  O1108   1.393   .     S
C1018  O1109   1.222   .     D
C1018  O1110   1.394   .     S
C1019  O1113   1.396   .     S
C1019  O1111   1.221   .     D
C1020  O1114   1.219   .     D
C1020  O1115   1.395   .     S
C1021  O1117   1.395   .     S
C1021  O1116   1.220   .     D
C1022  O1061   1.319   .     A
C1022  O1064   1.312   .     A
C1023  O1062   1.312   .     A
C1023  O1063   1.318   .     A
C1024  N1214   1.391   .     S
Cu1025 N1053   2.052   .     S
Cu1025 Cu1026  2.730   .     S
Cu1025 O1112   1.978   .     S
Cu1025 O1057   1.984   .     S
Cu1025 O1239   1.995   1_455 S
Cu1025 O1279   1.982   1_455 S
Cu1026 N1054   2.052   .     S
Cu1026 O1118   1.982   .     S
Cu1026 O1090   1.995   .     S
Cu1026 O1228   1.984   1_455 S
Cu1026 O1261   1.978   1_455 S
Cu1027 O1059   1.995   .     S
Cu1027 N1055   2.052   .     S
Cu1027 Cu1028  2.730   .     S
Cu1027 O1062   1.978   .     S
Cu1028 N1056   2.052   .     S
Cu1028 O1063   1.982   .     S
Cu1028 O1058   1.984   .     S
H1029  O1066   1.014   .     S
H1030  O1086   1.012   .     S
H1031  O1088   1.010   .     S
H1032  O1091   1.012   .     S
H1033  O1093   1.010   .     S
H1034  O1095   1.013   .     S
H1035  O1097   1.010   .     S
H1036  O1099   1.012   .     S
H1037  O1102   1.010   .     S
H1038  O1104   1.012   .     S
H1039  O1106   1.010   .     S
H1040  O1069   1.014   .     S
H1041  O1108   1.012   .     S
H1042  O1110   1.010   .     S
H1043  O1113   1.013   .     S
H1044  O1115   1.010   .     S
H1045  O1117   1.012   .     S
H1046  O1071   1.013   .     S
H1047  O1073   1.014   .     S
H1048  O1075   1.014   .     S
H1049  O1077   1.014   .     S
H1050  O1080   1.013   .     S
H1051  O1082   1.014   .     S
H1052  O1084   1.010   .     S
N1053  C1122   1.385   1_455 S
N1054  C1184   1.391   1_455 S
O1060  Cu708   1.995   1_565 S
O1061  Cu708   1.978   1_565 S
O1064  Cu707   1.982   1_565 S
O1065  C1156   1.213   1_455 S
O1067  C1157   1.215   1_455 S
O1068  Cu1186  1.984   .     S
O1070  C1158   1.217   .     S
O1072  C1159   1.216   .     S
O1079  Cu1185  1.995   .     S
O1101  Cu1186  1.978   .     S
O1119  Cu1185  1.982   .     S
O1120  Cu707   1.984   1_565 S
C1121  O1250   1.312   .     A
C1121  O1217   1.319   .     A
C1121  C1150   1.487   .     S
C1122  C1157   1.497   .     S
C1122  C1603   1.432   1_655 S
C1122  N1053   1.385   1_655 S
C1123  C1158   1.492   .     S
C1123  N1214   1.381   .     A
C1124  C1159   1.492   .     S
C1124  N1213   1.381   .     A
C1124  C1664   1.435   .     S
C1125  C1160   1.504   .     S
C1125  N896    1.391   1_565 S
C1126  C1161   1.497   .     S
C1126  N1215   1.385   .     A
C1126  C1767   1.432   .     S
C1127  N1216   1.381   .     A
C1127  C1162   1.492   .     S
C1128  C1163   1.492   .     S
C1128  C1765   1.435   .     S
C1128  N895    1.381   1_565 S
C1129  C1140   1.399   .     A
C1129  C1164   1.477   .     S
C1129  C1148   1.406   .     A
C1130  C1147   1.411   .     A
C1130  C1166   1.478   .     S
C1130  C1141   1.401   .     A
C1131  C1138   1.399   .     A
C1131  C1167   1.489   .     S
C1131  C1147   1.411   .     A
C1132  C1149   1.489   .     S
C1132  O1228   1.312   .     A
C1132  O1239   1.320   .     A
C1133  C1139   1.401   .     A
C1133  C1148   1.415   .     A
C1133  C1168   1.484   .     S
C1134  C1150   1.408   .     A
C1134  C1145   1.400   .     A
C1134  C1169   1.483   .     S
C1135  C1149   1.416   .     A
C1135  C1146   1.405   .     A
C1135  C1170   1.481   .     S
C1136  C1149   1.414   .     A
C1136  C1171   1.488   .     S
C1136  C1142   1.400   .     A
C1137  C1150   1.418   .     A
C1137  C1172   1.484   .     S
C1137  C1144   1.405   .     A
C1138  C1173   1.477   .     S
C1138  C1152   1.406   .     A
C1139  C1151   1.411   .     A
C1139  C1174   1.478   .     S
C1140  C1175   1.489   .     S
C1140  C1151   1.411   .     A
C1141  C1152   1.415   .     A
C1141  C1177   1.484   .     S
C1142  C1155   1.408   .     A
C1142  C1178   1.483   .     S
C1143  O1279   1.312   .     A
C1143  C1148   1.486   .     S
C1143  O1261   1.319   .     A
C1144  C1153   1.416   .     A
C1144  C1179   1.481   .     S
C1145  C1180   1.488   .     S
C1145  C1153   1.414   .     A
C1146  C1181   1.484   .     S
C1146  C1155   1.418   .     A
C1147  C1154   1.484   .     S
C1151  C1183   1.484   .     S
C1152  C1182   1.486   .     S
C1153  C1176   1.489   .     S
C1154  O1272   1.312   .     A
C1154  O1278   1.318   .     A
C1155  C1165   1.487   .     S
C1156  O1226   1.398   .     S
C1156  C1184   1.504   .     S
C1156  O1065   1.213   1_655 S
C1157  O1229   1.397   .     S
C1157  O1067   1.215   1_655 S
C1158  O1231   1.397   .     S
C1159  O1233   1.395   .     S
C1160  O1235   1.398   .     S
C1160  O1234   1.213   .     D
C1161  O1236   1.215   .     D
C1161  O1237   1.397   .     S
C1162  O1238   1.217   .     D
C1162  O1240   1.397   .     S
C1163  O1241   1.216   .     D
C1163  O1242   1.395   .     S
C1164  O1243   1.222   .     D
C1164  O1244   1.391   .     S
C1165  O1280   1.319   .     A
C1165  O1220   1.312   .     A
C1166  O1245   1.221   .     D
C1166  O1246   1.398   .     S
C1167  O1248   1.395   .     S
C1167  O1247   1.221   .     D
C1168  O1251   1.393   .     S
C1168  O1249   1.220   .     D
C1169  O1252   1.222   .     D
C1169  O1253   1.394   .     S
C1170  O1255   1.396   .     S
C1170  O1254   1.221   .     D
C1171  O1256   1.219   .     D
C1171  O1257   1.395   .     S
C1172  O1259   1.395   .     S
C1172  O1258   1.220   .     D
C1173  O1260   1.222   .     D
C1173  O1262   1.391   .     S
C1174  O1264   1.398   .     S
C1174  O1263   1.221   .     D
C1175  O1265   1.221   .     D
C1175  O1266   1.395   .     S
C1176  O1218   1.312   .     A
C1176  O1219   1.320   .     A
C1177  O1267   1.220   .     D
C1177  O1268   1.393   .     S
C1178  O1269   1.222   .     D
C1178  O1270   1.394   .     S
C1179  O1273   1.396   .     S
C1179  O1271   1.221   .     D
C1180  O1274   1.219   .     D
C1180  O1275   1.395   .     S
C1181  O1277   1.395   .     S
C1181  O1276   1.220   .     D
C1182  O1221   1.319   .     A
C1182  O1224   1.312   .     A
C1183  O1222   1.312   .     A
C1183  O1223   1.318   .     A
C1184  C324    1.435   1_655 S
C1184  N1054   1.391   1_655 S
Cu1185 N1213   2.052   .     S
Cu1185 Cu1186  2.730   .     S
Cu1185 O1272   1.978   .     S
Cu1185 O1217   1.984   .     S
Cu1186 N1214   2.052   .     S
Cu1186 O1278   1.982   .     S
Cu1186 O1250   1.995   .     S
Cu1187 O1219   1.995   .     S
Cu1187 N1215   2.052   .     S
Cu1187 Cu1188  2.730   .     S
Cu1187 O1222   1.978   .     S
Cu1188 N1216   2.052   .     S
Cu1188 O1223   1.982   .     S
Cu1188 O1218   1.984   .     S
H1189  O1226   1.014   .     S
H1190  O1246   1.012   .     S
H1191  O1248   1.010   .     S
H1192  O1251   1.012   .     S
H1193  O1253   1.010   .     S
H1194  O1255   1.013   .     S
H1195  O1257   1.010   .     S
H1196  O1259   1.012   .     S
H1197  O1262   1.010   .     S
H1198  O1264   1.012   .     S
H1199  O1266   1.010   .     S
H1200  O1229   1.014   .     S
H1201  O1268   1.012   .     S
H1202  O1270   1.010   .     S
H1203  O1273   1.013   .     S
H1204  O1275   1.010   .     S
H1205  O1277   1.012   .     S
H1206  O1231   1.013   .     S
H1207  O1233   1.014   .     S
H1208  O1235   1.014   .     S
H1209  O1237   1.014   .     S
H1210  O1240   1.013   .     S
H1211  O1242   1.014   .     S
H1212  O1244   1.010   .     S
O1220  Cu868   1.995   1_565 S
O1221  Cu868   1.978   1_565 S
O1224  Cu867   1.982   1_565 S
O1228  Cu1026  1.984   1_655 S
O1230  C998    1.217   1_655 S
O1232  C999    1.216   1_655 S
O1239  Cu1025  1.995   1_655 S
O1261  Cu1026  1.978   1_655 S
O1279  Cu1025  1.982   1_655 S
O1280  Cu867   1.984   1_565 S
C1281  O1410   1.312   .     A
C1281  O1377   1.319   .     A
C1281  C1310   1.487   .     S
C1282  C1317   1.497   .     S
C1282  C163    1.432   1_556 S
C1282  N1533   1.385   .     S
C1283  C1318   1.492   .     S
C1283  N1374   1.381   .     A
C1283  C802    1.432   1_455 S
C1284  C1319   1.492   .     S
C1284  N1373   1.381   .     A
C1284  C224    1.435   1_456 S
C1285  C1320   1.504   .     S
C1285  N1696   1.391   .     S
C1286  C1321   1.497   .     S
C1286  N1375   1.385   .     A
C1286  C7      1.432   1_556 S
C1287  N1376   1.381   .     A
C1287  C1322   1.492   .     S
C1288  C1323   1.492   .     S
C1288  C5      1.435   1_556 S
C1288  N1695   1.381   .     S
C1289  C1300   1.399   .     A
C1289  C1324   1.477   .     S
C1289  C1308   1.406   .     A
C1290  C1307   1.411   .     A
C1290  C1326   1.478   .     S
C1290  C1301   1.401   .     A
C1291  C1298   1.399   .     A
C1291  C1327   1.489   .     S
C1291  C1307   1.411   .     A
C1292  C1309   1.489   .     S
C1292  O1388   1.312   .     A
C1292  O1399   1.320   .     A
C1293  C1299   1.401   .     A
C1293  C1308   1.415   .     A
C1293  C1328   1.484   .     S
C1294  C1310   1.408   .     A
C1294  C1305   1.400   .     A
C1294  C1329   1.483   .     S
C1295  C1309   1.416   .     A
C1295  C1306   1.405   .     A
C1295  C1330   1.481   .     S
C1296  C1309   1.414   .     A
C1296  C1331   1.488   .     S
C1296  C1302   1.400   .     A
C1297  C1310   1.418   .     A
C1297  C1332   1.484   .     S
C1297  C1304   1.405   .     A
C1298  C1333   1.477   .     S
C1298  C1312   1.406   .     A
C1299  C1311   1.411   .     A
C1299  C1334   1.478   .     S
C1300  C1335   1.489   .     S
C1300  C1311   1.411   .     A
C1301  C1312   1.415   .     A
C1301  C1337   1.484   .     S
C1302  C1315   1.408   .     A
C1302  C1338   1.483   .     S
C1303  O1439   1.312   .     A
C1303  C1308   1.486   .     S
C1303  O1421   1.319   .     A
C1304  C1313   1.416   .     A
C1304  C1339   1.481   .     S
C1305  C1340   1.488   .     S
C1305  C1313   1.414   .     A
C1306  C1341   1.484   .     S
C1306  C1315   1.418   .     A
C1307  C1314   1.484   .     S
C1311  C1343   1.484   .     S
C1312  C1342   1.486   .     S
C1313  C1336   1.489   .     S
C1314  O1432   1.312   .     A
C1314  O1438   1.318   .     A
C1315  C1325   1.487   .     S
C1316  O1386   1.398   .     S
C1316  C1344   1.504   .     S
C1316  O1545   1.213   .     S
C1317  O1389   1.397   .     S
C1317  O1547   1.215   .     S
C1318  O1391   1.397   .     S
C1318  O1550   1.217   1_455 S
C1319  O1393   1.395   .     S
C1319  O1552   1.216   1_455 S
C1320  O1395   1.398   .     S
C1320  O1394   1.213   .     D
C1321  O1396   1.215   .     D
C1321  O1397   1.397   .     S
C1322  O1398   1.217   .     D
C1322  O1400   1.397   .     S
C1323  O1401   1.216   .     D
C1323  O1402   1.395   .     S
C1324  O1403   1.222   .     D
C1324  O1404   1.391   .     S
C1325  O1440   1.319   .     A
C1325  O1380   1.312   .     A
C1326  O1405   1.221   .     D
C1326  O1406   1.398   .     S
C1327  O1408   1.395   .     S
C1327  O1407   1.221   .     D
C1328  O1411   1.393   .     S
C1328  O1409   1.220   .     D
C1329  O1412   1.222   .     D
C1329  O1413   1.394   .     S
C1330  O1415   1.396   .     S
C1330  O1414   1.221   .     D
C1331  O1416   1.219   .     D
C1331  O1417   1.395   .     S
C1332  O1419   1.395   .     S
C1332  O1418   1.220   .     D
C1333  O1420   1.222   .     D
C1333  O1422   1.391   .     S
C1334  O1424   1.398   .     S
C1334  O1423   1.221   .     D
C1335  O1425   1.221   .     D
C1335  O1426   1.395   .     S
C1336  O1378   1.312   .     A
C1336  O1379   1.320   .     A
C1337  O1427   1.220   .     D
C1337  O1428   1.393   .     S
C1338  O1429   1.222   .     D
C1338  O1430   1.394   .     S
C1339  O1433   1.396   .     S
C1339  O1431   1.221   .     D
C1340  O1434   1.219   .     D
C1340  O1435   1.395   .     S
C1341  O1437   1.395   .     S
C1341  O1436   1.220   .     D
C1342  O1381   1.319   .     A
C1342  O1384   1.312   .     A
C1343  O1382   1.312   .     A
C1343  O1383   1.318   .     A
C1344  N1534   1.391   .     S
Cu1345 N1373   2.052   .     S
Cu1345 Cu1346  2.730   .     S
Cu1345 O1432   1.978   .     S
Cu1345 O1377   1.984   .     S
Cu1345 O1559   1.995   1_455 S
Cu1345 O1599   1.982   1_455 S
Cu1346 N1374   2.052   .     S
Cu1346 O1438   1.982   .     S
Cu1346 O1410   1.995   .     S
Cu1346 O1548   1.984   1_455 S
Cu1346 O1581   1.978   1_455 S
Cu1347 O1379   1.995   .     S
Cu1347 N1375   2.052   .     S
Cu1347 Cu1348  2.730   .     S
Cu1347 O1382   1.978   .     S
Cu1347 O1704   1.982   1_545 S
Cu1347 O1760   1.984   1_545 S
Cu1348 N1376   2.052   .     S
Cu1348 O1383   1.982   .     S
Cu1348 O1378   1.984   .     S
Cu1348 O1700   1.995   1_545 S
Cu1348 O1701   1.978   1_545 S
H1349  O1386   1.014   .     S
H1350  O1406   1.012   .     S
H1351  O1408   1.010   .     S
H1352  O1411   1.012   .     S
H1353  O1413   1.010   .     S
H1354  O1415   1.013   .     S
H1355  O1417   1.010   .     S
H1356  O1419   1.012   .     S
H1357  O1422   1.010   .     S
H1358  O1424   1.012   .     S
H1359  O1426   1.010   .     S
H1360  O1389   1.014   .     S
H1361  O1428   1.012   .     S
H1362  O1430   1.010   .     S
H1363  O1433   1.013   .     S
H1364  O1435   1.010   .     S
H1365  O1437   1.012   .     S
H1366  O1391   1.013   .     S
H1367  O1393   1.014   .     S
H1368  O1395   1.014   .     S
H1369  O1397   1.014   .     S
H1370  O1400   1.013   .     S
H1371  O1402   1.014   .     S
H1372  O1404   1.010   .     S
N1373  C1442   1.385   1_455 S
N1374  C1504   1.391   1_455 S
N1375  C1608   1.381   1_545 S
N1376  C1605   1.391   1_545 S
O1380  Cu1668  1.995   .     S
O1381  Cu1668  1.978   .     S
O1384  Cu1667  1.982   .     S
O1385  C1476   1.213   1_455 S
O1387  C1477   1.215   1_455 S
O1388  Cu1506  1.984   .     S
O1390  C1478   1.217   .     S
O1392  C1479   1.216   .     S
O1399  Cu1505  1.995   .     S
O1421  Cu1506  1.978   .     S
O1439  Cu1505  1.982   .     S
O1440  Cu1667  1.984   .     S
C1441  O1570   1.312   .     A
C1441  O1537   1.319   .     A
C1441  C1470   1.487   .     S
C1442  C1477   1.497   .     S
C1442  C3      1.432   1_656 S
C1442  N1373   1.385   1_655 S
C1443  C1478   1.492   .     S
C1443  N1534   1.381   .     A
C1444  C1479   1.492   .     S
C1444  N1533   1.381   .     A
C1444  C64     1.435   1_556 S
C1445  C1480   1.504   .     S
C1445  N1856   1.391   .     S
C1446  C1481   1.497   .     S
C1446  N1535   1.385   .     A
C1446  C167    1.432   1_556 S
C1447  N1536   1.381   .     A
C1447  C1482   1.492   .     S
C1448  C1483   1.492   .     S
C1448  C165    1.435   1_556 S
C1448  N1855   1.381   .     S
C1449  C1460   1.399   .     A
C1449  C1484   1.477   .     S
C1449  C1468   1.406   .     A
C1450  C1467   1.411   .     A
C1450  C1486   1.478   .     S
C1450  C1461   1.401   .     A
C1451  C1458   1.399   .     A
C1451  C1487   1.489   .     S
C1451  C1467   1.411   .     A
C1452  C1469   1.489   .     S
C1452  O1548   1.312   .     A
C1452  O1559   1.320   .     A
C1453  C1459   1.401   .     A
C1453  C1468   1.415   .     A
C1453  C1488   1.484   .     S
C1454  C1470   1.408   .     A
C1454  C1465   1.400   .     A
C1454  C1489   1.483   .     S
C1455  C1469   1.416   .     A
C1455  C1466   1.405   .     A
C1455  C1490   1.481   .     S
C1456  C1469   1.414   .     A
C1456  C1491   1.488   .     S
C1456  C1462   1.400   .     A
C1457  C1470   1.418   .     A
C1457  C1492   1.484   .     S
C1457  C1464   1.405   .     A
C1458  C1493   1.477   .     S
C1458  C1472   1.406   .     A
C1459  C1471   1.411   .     A
C1459  C1494   1.478   .     S
C1460  C1495   1.489   .     S
C1460  C1471   1.411   .     A
C1461  C1472   1.415   .     A
C1461  C1497   1.484   .     S
C1462  C1475   1.408   .     A
C1462  C1498   1.483   .     S
C1463  O1599   1.312   .     A
C1463  C1468   1.486   .     S
C1463  O1581   1.319   .     A
C1464  C1473   1.416   .     A
C1464  C1499   1.481   .     S
C1465  C1500   1.488   .     S
C1465  C1473   1.414   .     A
C1466  C1501   1.484   .     S
C1466  C1475   1.418   .     A
C1467  C1474   1.484   .     S
C1471  C1503   1.484   .     S
C1472  C1502   1.486   .     S
C1473  C1496   1.489   .     S
C1474  O1592   1.312   .     A
C1474  O1598   1.318   .     A
C1475  C1485   1.487   .     S
C1476  O1546   1.398   .     S
C1476  C1504   1.504   .     S
C1476  O1385   1.213   1_655 S
C1477  O1549   1.397   .     S
C1477  O1387   1.215   1_655 S
C1478  O1551   1.397   .     S
C1479  O1553   1.395   .     S
C1480  O1555   1.398   .     S
C1480  O1554   1.213   .     D
C1481  O1556   1.215   .     D
C1481  O1557   1.397   .     S
C1482  O1558   1.217   .     D
C1482  O1560   1.397   .     S
C1483  O1561   1.216   .     D
C1483  O1562   1.395   .     S
C1484  O1563   1.222   .     D
C1484  O1564   1.391   .     S
C1485  O1600   1.319   .     A
C1485  O1540   1.312   .     A
C1486  O1565   1.221   .     D
C1486  O1566   1.398   .     S
C1487  O1568   1.395   .     S
C1487  O1567   1.221   .     D
C1488  O1571   1.393   .     S
C1488  O1569   1.220   .     D
C1489  O1572   1.222   .     D
C1489  O1573   1.394   .     S
C1490  O1575   1.396   .     S
C1490  O1574   1.221   .     D
C1491  O1576   1.219   .     D
C1491  O1577   1.395   .     S
C1492  O1579   1.395   .     S
C1492  O1578   1.220   .     D
C1493  O1580   1.222   .     D
C1493  O1582   1.391   .     S
C1494  O1584   1.398   .     S
C1494  O1583   1.221   .     D
C1495  O1585   1.221   .     D
C1495  O1586   1.395   .     S
C1496  O1538   1.312   .     A
C1496  O1539   1.320   .     A
C1497  O1587   1.220   .     D
C1497  O1588   1.393   .     S
C1498  O1589   1.222   .     D
C1498  O1590   1.394   .     S
C1499  O1593   1.396   .     S
C1499  O1591   1.221   .     D
C1500  O1594   1.219   .     D
C1500  O1595   1.395   .     S
C1501  O1597   1.395   .     S
C1501  O1596   1.220   .     D
C1502  O1541   1.319   .     A
C1502  O1544   1.312   .     A
C1503  O1542   1.312   .     A
C1503  O1543   1.318   .     A
C1504  C644    1.435   1_655 S
C1504  N1374   1.391   1_655 S
Cu1505 N1533   2.052   .     S
Cu1505 Cu1506  2.730   .     S
Cu1505 O1592   1.978   .     S
Cu1505 O1537   1.984   .     S
Cu1506 N1534   2.052   .     S
Cu1506 O1598   1.982   .     S
Cu1506 O1570   1.995   .     S
Cu1507 O1539   1.995   .     S
Cu1507 N1535   2.052   .     S
Cu1507 Cu1508  2.730   .     S
Cu1507 O1542   1.978   .     S
Cu1507 O1864   1.982   1_545 S
Cu1507 O1920   1.984   1_545 S
Cu1508 N1536   2.052   .     S
Cu1508 O1543   1.982   .     S
Cu1508 O1538   1.984   .     S
Cu1508 O1860   1.995   1_545 S
Cu1508 O1861   1.978   1_545 S
H1509  O1546   1.014   .     S
H1510  O1566   1.012   .     S
H1511  O1568   1.010   .     S
H1512  O1571   1.012   .     S
H1513  O1573   1.010   .     S
H1514  O1575   1.013   .     S
H1515  O1577   1.010   .     S
H1516  O1579   1.012   .     S
H1517  O1582   1.010   .     S
H1518  O1584   1.012   .     S
H1519  O1586   1.010   .     S
H1520  O1549   1.014   .     S
H1521  O1588   1.012   .     S
H1522  O1590   1.010   .     S
H1523  O1593   1.013   .     S
H1524  O1595   1.010   .     S
H1525  O1597   1.012   .     S
H1526  O1551   1.013   .     S
H1527  O1553   1.014   .     S
H1528  O1555   1.014   .     S
H1529  O1557   1.014   .     S
H1530  O1560   1.013   .     S
H1531  O1562   1.014   .     S
H1532  O1564   1.010   .     S
N1535  C1768   1.381   1_545 S
N1536  C1765   1.391   1_545 S
O1540  Cu1828  1.995   .     S
O1541  Cu1828  1.978   .     S
O1544  Cu1827  1.982   .     S
O1548  Cu1346  1.984   1_655 S
O1550  C1318   1.217   1_655 S
O1552  C1319   1.216   1_655 S
O1559  Cu1345  1.995   1_655 S
O1581  Cu1346  1.978   1_655 S
O1599  Cu1345  1.982   1_655 S
O1600  Cu1827  1.984   .     S
C1601  O1730   1.312   .     A
C1601  O1697   1.319   .     A
C1601  C1630   1.487   .     S
C1602  C1637   1.497   .     S
C1602  C483    1.432   1_556 S
C1602  N1853   1.385   .     S
C1603  C1638   1.492   .     S
C1603  N1694   1.381   .     A
C1603  C1122   1.432   1_455 S
C1604  C1639   1.492   .     S
C1604  N1693   1.381   .     A
C1604  C544    1.435   1_456 S
C1605  C1640   1.504   .     S
C1605  N1376   1.391   1_565 S
C1606  C1641   1.497   .     S
C1606  N1695   1.385   .     A
C1606  C327    1.432   1_556 S
C1607  N1696   1.381   .     A
C1607  C1642   1.492   .     S
C1608  C1643   1.492   .     S
C1608  C325    1.435   1_556 S
C1608  N1375   1.381   1_565 S
C1609  C1620   1.399   .     A
C1609  C1644   1.477   .     S
C1609  C1628   1.406   .     A
C1610  C1627   1.411   .     A
C1610  C1646   1.478   .     S
C1610  C1621   1.401   .     A
C1611  C1618   1.399   .     A
C1611  C1647   1.489   .     S
C1611  C1627   1.411   .     A
C1612  C1629   1.489   .     S
C1612  O1708   1.312   .     A
C1612  O1719   1.320   .     A
C1613  C1619   1.401   .     A
C1613  C1628   1.415   .     A
C1613  C1648   1.484   .     S
C1614  C1630   1.408   .     A
C1614  C1625   1.400   .     A
C1614  C1649   1.483   .     S
C1615  C1629   1.416   .     A
C1615  C1626   1.405   .     A
C1615  C1650   1.481   .     S
C1616  C1629   1.414   .     A
C1616  C1651   1.488   .     S
C1616  C1622   1.400   .     A
C1617  C1630   1.418   .     A
C1617  C1652   1.484   .     S
C1617  C1624   1.405   .     A
C1618  C1653   1.477   .     S
C1618  C1632   1.406   .     A
C1619  C1631   1.411   .     A
C1619  C1654   1.478   .     S
C1620  C1655   1.489   .     S
C1620  C1631   1.411   .     A
C1621  C1632   1.415   .     A
C1621  C1657   1.484   .     S
C1622  C1635   1.408   .     A
C1622  C1658   1.483   .     S
C1623  O1759   1.312   .     A
C1623  C1628   1.486   .     S
C1623  O1741   1.319   .     A
C1624  C1633   1.416   .     A
C1624  C1659   1.481   .     S
C1625  C1660   1.488   .     S
C1625  C1633   1.414   .     A
C1626  C1661   1.484   .     S
C1626  C1635   1.418   .     A
C1627  C1634   1.484   .     S
C1631  C1663   1.484   .     S
C1632  C1662   1.486   .     S
C1633  C1656   1.489   .     S
C1634  O1752   1.312   .     A
C1634  O1758   1.318   .     A
C1635  C1645   1.487   .     S
C1636  O1706   1.398   .     S
C1636  C1664   1.504   .     S
C1636  O1865   1.213   .     S
C1637  O1709   1.397   .     S
C1637  O1867   1.215   .     S
C1638  O1711   1.397   .     S
C1638  O1870   1.217   1_455 S
C1639  O1713   1.395   .     S
C1639  O1872   1.216   1_455 S
C1640  O1715   1.398   .     S
C1640  O1714   1.213   .     D
C1641  O1716   1.215   .     D
C1641  O1717   1.397   .     S
C1642  O1718   1.217   .     D
C1642  O1720   1.397   .     S
C1643  O1721   1.216   .     D
C1643  O1722   1.395   .     S
C1644  O1723   1.222   .     D
C1644  O1724   1.391   .     S
C1645  O1760   1.319   .     A
C1645  O1700   1.312   .     A
C1646  O1725   1.221   .     D
C1646  O1726   1.398   .     S
C1647  O1728   1.395   .     S
C1647  O1727   1.221   .     D
C1648  O1731   1.393   .     S
C1648  O1729   1.220   .     D
C1649  O1732   1.222   .     D
C1649  O1733   1.394   .     S
C1650  O1735   1.396   .     S
C1650  O1734   1.221   .     D
C1651  O1736   1.219   .     D
C1651  O1737   1.395   .     S
C1652  O1739   1.395   .     S
C1652  O1738   1.220   .     D
C1653  O1740   1.222   .     D
C1653  O1742   1.391   .     S
C1654  O1744   1.398   .     S
C1654  O1743   1.221   .     D
C1655  O1745   1.221   .     D
C1655  O1746   1.395   .     S
C1656  O1698   1.312   .     A
C1656  O1699   1.320   .     A
C1657  O1747   1.220   .     D
C1657  O1748   1.393   .     S
C1658  O1749   1.222   .     D
C1658  O1750   1.394   .     S
C1659  O1753   1.396   .     S
C1659  O1751   1.221   .     D
C1660  O1754   1.219   .     D
C1660  O1755   1.395   .     S
C1661  O1757   1.395   .     S
C1661  O1756   1.220   .     D
C1662  O1701   1.319   .     A
C1662  O1704   1.312   .     A
C1663  O1702   1.312   .     A
C1663  O1703   1.318   .     A
C1664  N1854   1.391   .     S
Cu1665 N1693   2.052   .     S
Cu1665 Cu1666  2.730   .     S
Cu1665 O1752   1.978   .     S
Cu1665 O1697   1.984   .     S
Cu1665 O1879   1.995   1_455 S
Cu1665 O1919   1.982   1_455 S
Cu1666 N1694   2.052   .     S
Cu1666 O1758   1.982   .     S
Cu1666 O1730   1.995   .     S
Cu1666 O1868   1.984   1_455 S
Cu1666 O1901   1.978   1_455 S
Cu1667 O1699   1.995   .     S
Cu1667 N1695   2.052   .     S
Cu1667 Cu1668  2.730   .     S
Cu1667 O1702   1.978   .     S
Cu1668 N1696   2.052   .     S
Cu1668 O1703   1.982   .     S
Cu1668 O1698   1.984   .     S
H1669  O1706   1.014   .     S
H1670  O1726   1.012   .     S
H1671  O1728   1.010   .     S
H1672  O1731   1.012   .     S
H1673  O1733   1.010   .     S
H1674  O1735   1.013   .     S
H1675  O1737   1.010   .     S
H1676  O1739   1.012   .     S
H1677  O1742   1.010   .     S
H1678  O1744   1.012   .     S
H1679  O1746   1.010   .     S
H1680  O1709   1.014   .     S
H1681  O1748   1.012   .     S
H1682  O1750   1.010   .     S
H1683  O1753   1.013   .     S
H1684  O1755   1.010   .     S
H1685  O1757   1.012   .     S
H1686  O1711   1.013   .     S
H1687  O1713   1.014   .     S
H1688  O1715   1.014   .     S
H1689  O1717   1.014   .     S
H1690  O1720   1.013   .     S
H1691  O1722   1.014   .     S
H1692  O1724   1.010   .     S
N1693  C1762   1.385   1_455 S
N1694  C1824   1.391   1_455 S
O1700  Cu1348  1.995   1_565 S
O1701  Cu1348  1.978   1_565 S
O1704  Cu1347  1.982   1_565 S
O1705  C1796   1.213   1_455 S
O1707  C1797   1.215   1_455 S
O1708  Cu1826  1.984   .     S
O1710  C1798   1.217   .     S
O1712  C1799   1.216   .     S
O1719  Cu1825  1.995   .     S
O1741  Cu1826  1.978   .     S
O1759  Cu1825  1.982   .     S
O1760  Cu1347  1.984   1_565 S
C1761  O1890   1.312   .     A
C1761  O1857   1.319   .     A
C1761  C1790   1.487   .     S
C1762  C1797   1.497   .     S
C1762  C323    1.432   1_656 S
C1762  N1693   1.385   1_655 S
C1763  C1798   1.492   .     S
C1763  N1854   1.381   .     A
C1764  C1799   1.492   .     S
C1764  N1853   1.381   .     A
C1764  C384    1.435   1_556 S
C1765  C1800   1.504   .     S
C1765  N1536   1.391   1_565 S
C1766  C1801   1.497   .     S
C1766  N1855   1.385   .     A
C1766  C487    1.432   1_556 S
C1767  N1856   1.381   .     A
C1767  C1802   1.492   .     S
C1768  C1803   1.492   .     S
C1768  C485    1.435   1_556 S
C1768  N1535   1.381   1_565 S
C1769  C1780   1.399   .     A
C1769  C1804   1.477   .     S
C1769  C1788   1.406   .     A
C1770  C1787   1.411   .     A
C1770  C1806   1.478   .     S
C1770  C1781   1.401   .     A
C1771  C1778   1.399   .     A
C1771  C1807   1.489   .     S
C1771  C1787   1.411   .     A
C1772  C1789   1.489   .     S
C1772  O1868   1.312   .     A
C1772  O1879   1.320   .     A
C1773  C1779   1.401   .     A
C1773  C1788   1.415   .     A
C1773  C1808   1.484   .     S
C1774  C1790   1.408   .     A
C1774  C1785   1.400   .     A
C1774  C1809   1.483   .     S
C1775  C1789   1.416   .     A
C1775  C1786   1.405   .     A
C1775  C1810   1.481   .     S
C1776  C1789   1.414   .     A
C1776  C1811   1.488   .     S
C1776  C1782   1.400   .     A
C1777  C1790   1.418   .     A
C1777  C1812   1.484   .     S
C1777  C1784   1.405   .     A
C1778  C1813   1.477   .     S
C1778  C1792   1.406   .     A
C1779  C1791   1.411   .     A
C1779  C1814   1.478   .     S
C1780  C1815   1.489   .     S
C1780  C1791   1.411   .     A
C1781  C1792   1.415   .     A
C1781  C1817   1.484   .     S
C1782  C1795   1.408   .     A
C1782  C1818   1.483   .     S
C1783  O1919   1.312   .     A
C1783  C1788   1.486   .     S
C1783  O1901   1.319   .     A
C1784  C1793   1.416   .     A
C1784  C1819   1.481   .     S
C1785  C1820   1.488   .     S
C1785  C1793   1.414   .     A
C1786  C1821   1.484   .     S
C1786  C1795   1.418   .     A
C1787  C1794   1.484   .     S
C1791  C1823   1.484   .     S
C1792  C1822   1.486   .     S
C1793  C1816   1.489   .     S
C1794  O1912   1.312   .     A
C1794  O1918   1.318   .     A
C1795  C1805   1.487   .     S
C1796  O1866   1.398   .     S
C1796  C1824   1.504   .     S
C1796  O1705   1.213   1_655 S
C1797  O1869   1.397   .     S
C1797  O1707   1.215   1_655 S
C1798  O1871   1.397   .     S
C1799  O1873   1.395   .     S
C1800  O1875   1.398   .     S
C1800  O1874   1.213   .     D
C1801  O1876   1.215   .     D
C1801  O1877   1.397   .     S
C1802  O1878   1.217   .     D
C1802  O1880   1.397   .     S
C1803  O1881   1.216   .     D
C1803  O1882   1.395   .     S
C1804  O1883   1.222   .     D
C1804  O1884   1.391   .     S
C1805  O1920   1.319   .     A
C1805  O1860   1.312   .     A
C1806  O1885   1.221   .     D
C1806  O1886   1.398   .     S
C1807  O1888   1.395   .     S
C1807  O1887   1.221   .     D
C1808  O1891   1.393   .     S
C1808  O1889   1.220   .     D
C1809  O1892   1.222   .     D
C1809  O1893   1.394   .     S
C1810  O1895   1.396   .     S
C1810  O1894   1.221   .     D
C1811  O1896   1.219   .     D
C1811  O1897   1.395   .     S
C1812  O1899   1.395   .     S
C1812  O1898   1.220   .     D
C1813  O1900   1.222   .     D
C1813  O1902   1.391   .     S
C1814  O1904   1.398   .     S
C1814  O1903   1.221   .     D
C1815  O1905   1.221   .     D
C1815  O1906   1.395   .     S
C1816  O1858   1.312   .     A
C1816  O1859   1.320   .     A
C1817  O1907   1.220   .     D
C1817  O1908   1.393   .     S
C1818  O1909   1.222   .     D
C1818  O1910   1.394   .     S
C1819  O1913   1.396   .     S
C1819  O1911   1.221   .     D
C1820  O1914   1.219   .     D
C1820  O1915   1.395   .     S
C1821  O1917   1.395   .     S
C1821  O1916   1.220   .     D
C1822  O1861   1.319   .     A
C1822  O1864   1.312   .     A
C1823  O1862   1.312   .     A
C1823  O1863   1.318   .     A
C1824  C964    1.435   1_655 S
C1824  N1694   1.391   1_655 S
Cu1825 N1853   2.052   .     S
Cu1825 Cu1826  2.730   .     S
Cu1825 O1912   1.978   .     S
Cu1825 O1857   1.984   .     S
Cu1826 N1854   2.052   .     S
Cu1826 O1918   1.982   .     S
Cu1826 O1890   1.995   .     S
Cu1827 O1859   1.995   .     S
Cu1827 N1855   2.052   .     S
Cu1827 Cu1828  2.730   .     S
Cu1827 O1862   1.978   .     S
Cu1828 N1856   2.052   .     S
Cu1828 O1863   1.982   .     S
Cu1828 O1858   1.984   .     S
H1829  O1866   1.014   .     S
H1830  O1886   1.012   .     S
H1831  O1888   1.010   .     S
H1832  O1891   1.012   .     S
H1833  O1893   1.010   .     S
H1834  O1895   1.013   .     S
H1835  O1897   1.010   .     S
H1836  O1899   1.012   .     S
H1837  O1902   1.010   .     S
H1838  O1904   1.012   .     S
H1839  O1906   1.010   .     S
H1840  O1869   1.014   .     S
H1841  O1908   1.012   .     S
H1842  O1910   1.010   .     S
H1843  O1913   1.013   .     S
H1844  O1915   1.010   .     S
H1845  O1917   1.012   .     S
H1846  O1871   1.013   .     S
H1847  O1873   1.014   .     S
H1848  O1875   1.014   .     S
H1849  O1877   1.014   .     S
H1850  O1880   1.013   .     S
H1851  O1882   1.014   .     S
H1852  O1884   1.010   .     S
O1860  Cu1508  1.995   1_565 S
O1861  Cu1508  1.978   1_565 S
O1864  Cu1507  1.982   1_565 S
O1868  Cu1666  1.984   1_655 S
O1870  C1638   1.217   1_655 S
O1872  C1639   1.216   1_655 S
O1879  Cu1665  1.995   1_655 S
O1901  Cu1666  1.978   1_655 S
O1919  Cu1665  1.982   1_655 S
O1920  Cu1507  1.984   1_565 S
