data_str_m2_o1_o18_pcu_sym.85
_audit_creation_date              2020-01-03
_audit_creation_method            'Materials Studio'
_symmetry_space_group_name_H-M    'P1'
_symmetry_Int_Tables_number       1
_symmetry_cell_setting            triclinic
loop_
_symmetry_equiv_pos_as_xyz
  x,y,z
_cell_length_a                    28.8193
_cell_length_b                    32.4753
_cell_length_c                    31.1764
_cell_angle_alpha                 89.7807
_cell_angle_beta                  72.4281
_cell_angle_gamma                 89.9928
loop_
_atom_site_label
_atom_site_type_symbol
_atom_site_fract_x
_atom_site_fract_y
_atom_site_fract_z
_atom_site_U_iso_or_equiv
_atom_site_adp_type
_atom_site_occupancy
O1     O     0.03958   0.10655   0.25000   0.00000  Uiso   1.00
O2     O     0.29375   0.22678   0.25000   0.00000  Uiso   1.00
O3     O     0.29372   0.10654   0.25000   0.00000  Uiso   1.00
O4     O     0.03961   0.22679   0.25000   0.00000  Uiso   1.00
C5     C     0.00002   0.08745   0.24989   0.00000  Uiso   1.00
C6     C     0.00003   0.24589   0.24993   0.00000  Uiso   1.00
O7     O     0.01852   0.16668   0.31491   0.00000  Uiso   1.00
O8     O     0.31481   0.16666   0.18509   0.00000  Uiso   1.00
O9     O     0.27267   0.16667   0.31492   0.00000  Uiso   1.00
O10    O     0.06067   0.16667   0.18508   0.00000  Uiso   1.00
C11    C     0.30529   0.16626   0.33607   0.00000  Uiso   1.00
C12    C     0.02792   0.16629   0.16382   0.00000  Uiso   1.00
Cu13   Cu    0.04689   0.16667   0.25000   0.00000  Uiso   1.00
Cu14   Cu    0.28645   0.16666   0.25000   0.00000  Uiso   1.00
C15    C     0.28772   0.16729   0.38549   0.00000  Uiso   1.00
C16    C     0.04373   0.16998   0.11433   0.00000  Uiso   1.00
C17    C     0.29213   0.15034   0.45973   0.00000  Uiso   1.00
C18    C     0.02584   0.17405   0.04381   0.00000  Uiso   1.00
C19    C     0.31035   0.14569   0.41311   0.00000  Uiso   1.00
C20    C     0.01226   0.16138   0.08862   0.00000  Uiso   1.00
C21    C     0.24413   0.18847   0.40546   0.00000  Uiso   1.00
C22    C     0.09091   0.18433   0.09243   0.00000  Uiso   1.00
C23    C     0.22161   0.18698   0.45205   0.00000  Uiso   1.00
C24    C     0.10633   0.19332   0.04582   0.00000  Uiso   1.00
C25    C     0.25006   0.17353   0.47902   0.00000  Uiso   1.00
C26    C     0.07222   0.18914   0.02206   0.00000  Uiso   1.00
C27    C     0.17144   0.19589   0.47343   0.00000  Uiso   1.00
C28    C     0.15591   0.20036   0.02134   0.00000  Uiso   1.00
C29    C     0.19183   0.20421   0.04346   0.00000  Uiso   1.00
C30    C     0.13528   0.19490   0.45062   0.00000  Uiso   1.00
C31    C     0.23621   0.18473   0.02434   0.00000  Uiso   1.00
C32    C     0.08625   0.19413   0.47549   0.00000  Uiso   1.00
H33    H     0.26040   0.18097   0.04424   0.00000  Uiso   1.00
H34    H     0.05941   0.19101   0.45765   0.00000  Uiso   1.00
H35    H     0.11588   0.18591   0.11200   0.00000  Uiso   1.00
H36    H     0.22850   0.20653   0.38418   0.00000  Uiso   1.00
H37    H     0.30909   0.13366   0.48083   0.00000  Uiso   1.00
H38    H     0.00218   0.16844   0.02426   0.00000  Uiso   1.00
C39    C     0.29155   0.02132   0.24883   0.00000  Uiso   1.00
C40    C     0.04195   0.31204   0.25062   0.00000  Uiso   1.00
H41    H     0.25883   0.03733   0.24808   0.00000  Uiso   1.00
H42    H     0.07469   0.29604   0.25133   0.00000  Uiso   1.00
C43    C     0.29155   0.31205   0.24886   0.00000  Uiso   1.00
C44    C     0.04195   0.02130   0.25059   0.00000  Uiso   1.00
H45    H     0.25882   0.29605   0.24813   0.00000  Uiso   1.00
H46    H     0.07468   0.03730   0.25132   0.00000  Uiso   1.00
C47    C     0.00007   0.29056   0.24980   0.00000  Uiso   1.00
C48    C     0.00007   0.04279   0.24976   0.00000  Uiso   1.00
C49    C     0.18461   0.13588   0.27067   0.00000  Uiso   1.00
C50    C     0.14880   0.19734   0.22910   0.00000  Uiso   1.00
H51    H     0.19744   0.11117   0.28748   0.00000  Uiso   1.00
H52    H     0.13604   0.22193   0.21207   0.00000  Uiso   1.00
C53    C     0.13534   0.13576   0.27039   0.00000  Uiso   1.00
C54    C     0.19818   0.19733   0.22911   0.00000  Uiso   1.00
H55    H     0.11175   0.11075   0.28663   0.00000  Uiso   1.00
H56    H     0.22208   0.22190   0.21207   0.00000  Uiso   1.00
N57    N     0.11736   0.16668   0.24999   0.00000  Uiso   1.00
N58    N     0.21597   0.16666   0.25001   0.00000  Uiso   1.00
S59    S     0.29387   0.12886   0.10849   0.00000  Uiso   1.00
O60    O     0.25057   0.15407   0.13362   0.00000  Uiso   1.00
O61    O     0.28300   0.10783   0.06973   0.00000  Uiso   1.00
O62    O     0.30464   0.09263   0.14303   0.00000  Uiso   1.00
H63    H     0.27235   0.08054   0.15859   0.00000  Uiso   1.00
S64    S     0.02647   0.11179   0.39123   0.00000  Uiso   1.00
O65    O     0.07154   0.13678   0.37071   0.00000  Uiso   1.00
O66    O     0.03416   0.08500   0.42794   0.00000  Uiso   1.00
O67    O     0.01530   0.08179   0.35162   0.00000  Uiso   1.00
H68    H     0.04444   0.06405   0.34081   0.00000  Uiso   1.00
N69    N     0.18468   0.22953   0.08283   0.00000  Uiso   1.00
O70    O     0.15248   0.25891   0.09110   0.00000  Uiso   1.00
O71    O     0.21485   0.22769   0.10653   0.00000  Uiso   1.00
N72    N     0.14630   0.18708   0.40347   0.00000  Uiso   1.00
O73    O     0.13103   0.21250   0.37833   0.00000  Uiso   1.00
O74    O     0.16139   0.15070   0.38801   0.00000  Uiso   1.00
O75    O     0.37291   0.10655   0.25000   0.00000  Uiso   1.00
O76    O     0.62709   0.22678   0.25000   0.00000  Uiso   1.00
O77    O     0.62706   0.10654   0.25000   0.00000  Uiso   1.00
O78    O     0.37294   0.22679   0.25000   0.00000  Uiso   1.00
C79    C     0.33335   0.08745   0.24989   0.00000  Uiso   1.00
C80    C     0.33337   0.24589   0.24993   0.00000  Uiso   1.00
O81    O     0.35186   0.16668   0.31491   0.00000  Uiso   1.00
O82    O     0.64814   0.16666   0.18509   0.00000  Uiso   1.00
O83    O     0.60600   0.16667   0.31492   0.00000  Uiso   1.00
O84    O     0.39400   0.16667   0.18508   0.00000  Uiso   1.00
C85    C     0.63862   0.16626   0.33607   0.00000  Uiso   1.00
C86    C     0.36126   0.16629   0.16382   0.00000  Uiso   1.00
Cu87   Cu    0.38022   0.16667   0.25000   0.00000  Uiso   1.00
Cu88   Cu    0.61978   0.16666   0.25000   0.00000  Uiso   1.00
C89    C     0.62106   0.16729   0.38549   0.00000  Uiso   1.00
C90    C     0.37706   0.16998   0.11433   0.00000  Uiso   1.00
C91    C     0.62547   0.15034   0.45973   0.00000  Uiso   1.00
C92    C     0.35917   0.17405   0.04381   0.00000  Uiso   1.00
C93    C     0.64368   0.14569   0.41311   0.00000  Uiso   1.00
C94    C     0.34559   0.16138   0.08862   0.00000  Uiso   1.00
C95    C     0.57746   0.18847   0.40546   0.00000  Uiso   1.00
C96    C     0.42424   0.18433   0.09243   0.00000  Uiso   1.00
C97    C     0.55495   0.18698   0.45205   0.00000  Uiso   1.00
C98    C     0.43966   0.19332   0.04582   0.00000  Uiso   1.00
C99    C     0.58339   0.17353   0.47902   0.00000  Uiso   1.00
C100   C     0.40556   0.18914   0.02206   0.00000  Uiso   1.00
C101   C     0.50477   0.19589   0.47343   0.00000  Uiso   1.00
C102   C     0.48924   0.20036   0.02134   0.00000  Uiso   1.00
C103   C     0.52516   0.20421   0.04346   0.00000  Uiso   1.00
C104   C     0.46862   0.19490   0.45062   0.00000  Uiso   1.00
C105   C     0.56954   0.18473   0.02434   0.00000  Uiso   1.00
C106   C     0.41959   0.19413   0.47549   0.00000  Uiso   1.00
H107   H     0.59373   0.18097   0.04424   0.00000  Uiso   1.00
H108   H     0.39275   0.19101   0.45765   0.00000  Uiso   1.00
H109   H     0.44922   0.18591   0.11200   0.00000  Uiso   1.00
H110   H     0.56183   0.20653   0.38418   0.00000  Uiso   1.00
H111   H     0.64242   0.13366   0.48083   0.00000  Uiso   1.00
H112   H     0.33551   0.16844   0.02426   0.00000  Uiso   1.00
C113   C     0.62489   0.02132   0.24883   0.00000  Uiso   1.00
C114   C     0.37529   0.31204   0.25062   0.00000  Uiso   1.00
H115   H     0.59216   0.03733   0.24808   0.00000  Uiso   1.00
H116   H     0.40803   0.29604   0.25133   0.00000  Uiso   1.00
C117   C     0.62488   0.31205   0.24886   0.00000  Uiso   1.00
C118   C     0.37529   0.02130   0.25059   0.00000  Uiso   1.00
H119   H     0.59215   0.29605   0.24813   0.00000  Uiso   1.00
H120   H     0.40802   0.03730   0.25132   0.00000  Uiso   1.00
C121   C     0.33340   0.29056   0.24980   0.00000  Uiso   1.00
C122   C     0.33340   0.04279   0.24976   0.00000  Uiso   1.00
C123   C     0.51794   0.13588   0.27067   0.00000  Uiso   1.00
C124   C     0.48214   0.19734   0.22910   0.00000  Uiso   1.00
H125   H     0.53077   0.11117   0.28748   0.00000  Uiso   1.00
H126   H     0.46937   0.22193   0.21207   0.00000  Uiso   1.00
C127   C     0.46868   0.13576   0.27039   0.00000  Uiso   1.00
C128   C     0.53151   0.19733   0.22911   0.00000  Uiso   1.00
H129   H     0.44508   0.11075   0.28663   0.00000  Uiso   1.00
H130   H     0.55542   0.22190   0.21207   0.00000  Uiso   1.00
N131   N     0.45069   0.16668   0.24999   0.00000  Uiso   1.00
N132   N     0.54931   0.16666   0.25001   0.00000  Uiso   1.00
S133   S     0.62720   0.12886   0.10849   0.00000  Uiso   1.00
O134   O     0.58391   0.15407   0.13362   0.00000  Uiso   1.00
O135   O     0.61634   0.10783   0.06973   0.00000  Uiso   1.00
O136   O     0.63797   0.09263   0.14303   0.00000  Uiso   1.00
H137   H     0.60568   0.08054   0.15859   0.00000  Uiso   1.00
S138   S     0.35980   0.11179   0.39123   0.00000  Uiso   1.00
O139   O     0.40488   0.13678   0.37071   0.00000  Uiso   1.00
O140   O     0.36749   0.08500   0.42794   0.00000  Uiso   1.00
O141   O     0.34864   0.08179   0.35162   0.00000  Uiso   1.00
H142   H     0.37777   0.06405   0.34081   0.00000  Uiso   1.00
N143   N     0.51801   0.22953   0.08283   0.00000  Uiso   1.00
O144   O     0.48581   0.25891   0.09110   0.00000  Uiso   1.00
O145   O     0.54818   0.22769   0.10653   0.00000  Uiso   1.00
N146   N     0.47964   0.18708   0.40347   0.00000  Uiso   1.00
O147   O     0.46437   0.21250   0.37833   0.00000  Uiso   1.00
O148   O     0.49472   0.15070   0.38801   0.00000  Uiso   1.00
O149   O     0.70625   0.10655   0.25000   0.00000  Uiso   1.00
O150   O     0.96042   0.22678   0.25000   0.00000  Uiso   1.00
O151   O     0.96039   0.10654   0.25000   0.00000  Uiso   1.00
O152   O     0.70628   0.22679   0.25000   0.00000  Uiso   1.00
C153   C     0.66669   0.08745   0.24989   0.00000  Uiso   1.00
C154   C     0.66670   0.24589   0.24993   0.00000  Uiso   1.00
O155   O     0.68519   0.16668   0.31491   0.00000  Uiso   1.00
O156   O     0.98148   0.16666   0.18509   0.00000  Uiso   1.00
O157   O     0.93933   0.16667   0.31492   0.00000  Uiso   1.00
O158   O     0.72733   0.16667   0.18508   0.00000  Uiso   1.00
C159   C     0.97196   0.16626   0.33607   0.00000  Uiso   1.00
C160   C     0.69459   0.16629   0.16382   0.00000  Uiso   1.00
Cu161  Cu    0.71355   0.16667   0.25000   0.00000  Uiso   1.00
Cu162  Cu    0.95311   0.16666   0.25000   0.00000  Uiso   1.00
C163   C     0.95439   0.16729   0.38549   0.00000  Uiso   1.00
C164   C     0.71039   0.16998   0.11433   0.00000  Uiso   1.00
C165   C     0.95880   0.15034   0.45973   0.00000  Uiso   1.00
C166   C     0.69251   0.17405   0.04381   0.00000  Uiso   1.00
C167   C     0.97702   0.14569   0.41311   0.00000  Uiso   1.00
C168   C     0.67893   0.16138   0.08862   0.00000  Uiso   1.00
C169   C     0.91080   0.18847   0.40546   0.00000  Uiso   1.00
C170   C     0.75758   0.18433   0.09243   0.00000  Uiso   1.00
C171   C     0.88828   0.18698   0.45205   0.00000  Uiso   1.00
C172   C     0.77299   0.19332   0.04582   0.00000  Uiso   1.00
C173   C     0.91673   0.17353   0.47902   0.00000  Uiso   1.00
C174   C     0.73889   0.18914   0.02206   0.00000  Uiso   1.00
C175   C     0.83810   0.19589   0.47343   0.00000  Uiso   1.00
C176   C     0.82258   0.20036   0.02134   0.00000  Uiso   1.00
C177   C     0.85849   0.20421   0.04346   0.00000  Uiso   1.00
C178   C     0.80195   0.19490   0.45062   0.00000  Uiso   1.00
C179   C     0.90287   0.18473   0.02434   0.00000  Uiso   1.00
C180   C     0.75292   0.19413   0.47549   0.00000  Uiso   1.00
H181   H     0.92706   0.18097   0.04424   0.00000  Uiso   1.00
H182   H     0.72608   0.19101   0.45765   0.00000  Uiso   1.00
H183   H     0.78255   0.18591   0.11200   0.00000  Uiso   1.00
H184   H     0.89516   0.20653   0.38418   0.00000  Uiso   1.00
H185   H     0.97576   0.13366   0.48083   0.00000  Uiso   1.00
H186   H     0.66884   0.16844   0.02426   0.00000  Uiso   1.00
C187   C     0.95822   0.02132   0.24883   0.00000  Uiso   1.00
C188   C     0.70862   0.31204   0.25062   0.00000  Uiso   1.00
H189   H     0.92549   0.03733   0.24808   0.00000  Uiso   1.00
H190   H     0.74136   0.29604   0.25133   0.00000  Uiso   1.00
C191   C     0.95821   0.31205   0.24886   0.00000  Uiso   1.00
C192   C     0.70862   0.02130   0.25059   0.00000  Uiso   1.00
H193   H     0.92548   0.29605   0.24813   0.00000  Uiso   1.00
H194   H     0.74135   0.03730   0.25132   0.00000  Uiso   1.00
C195   C     0.66673   0.29056   0.24980   0.00000  Uiso   1.00
C196   C     0.66673   0.04279   0.24976   0.00000  Uiso   1.00
C197   C     0.85128   0.13588   0.27067   0.00000  Uiso   1.00
C198   C     0.81547   0.19734   0.22910   0.00000  Uiso   1.00
H199   H     0.86410   0.11117   0.28748   0.00000  Uiso   1.00
H200   H     0.80270   0.22193   0.21207   0.00000  Uiso   1.00
C201   C     0.80201   0.13576   0.27039   0.00000  Uiso   1.00
C202   C     0.86485   0.19733   0.22911   0.00000  Uiso   1.00
H203   H     0.77842   0.11075   0.28663   0.00000  Uiso   1.00
H204   H     0.88875   0.22190   0.21207   0.00000  Uiso   1.00
N205   N     0.78403   0.16668   0.24999   0.00000  Uiso   1.00
N206   N     0.88264   0.16666   0.25001   0.00000  Uiso   1.00
S207   S     0.96054   0.12886   0.10849   0.00000  Uiso   1.00
O208   O     0.91724   0.15407   0.13362   0.00000  Uiso   1.00
O209   O     0.94967   0.10783   0.06973   0.00000  Uiso   1.00
O210   O     0.97130   0.09263   0.14303   0.00000  Uiso   1.00
H211   H     0.93902   0.08054   0.15859   0.00000  Uiso   1.00
S212   S     0.69314   0.11179   0.39123   0.00000  Uiso   1.00
O213   O     0.73821   0.13678   0.37071   0.00000  Uiso   1.00
O214   O     0.70082   0.08500   0.42794   0.00000  Uiso   1.00
O215   O     0.68197   0.08179   0.35162   0.00000  Uiso   1.00
H216   H     0.71110   0.06405   0.34081   0.00000  Uiso   1.00
N217   N     0.85134   0.22953   0.08283   0.00000  Uiso   1.00
O218   O     0.81915   0.25891   0.09110   0.00000  Uiso   1.00
O219   O     0.88151   0.22769   0.10653   0.00000  Uiso   1.00
N220   N     0.81297   0.18708   0.40347   0.00000  Uiso   1.00
O221   O     0.79770   0.21250   0.37833   0.00000  Uiso   1.00
O222   O     0.82805   0.15070   0.38801   0.00000  Uiso   1.00
O223   O     0.03958   0.43989   0.25000   0.00000  Uiso   1.00
O224   O     0.29375   0.56011   0.25000   0.00000  Uiso   1.00
O225   O     0.29372   0.43988   0.25000   0.00000  Uiso   1.00
O226   O     0.03961   0.56012   0.25000   0.00000  Uiso   1.00
C227   C     0.00002   0.42078   0.24989   0.00000  Uiso   1.00
C228   C     0.00003   0.57922   0.24993   0.00000  Uiso   1.00
O229   O     0.01852   0.50001   0.31491   0.00000  Uiso   1.00
O230   O     0.31481   0.49999   0.18509   0.00000  Uiso   1.00
O231   O     0.27267   0.50000   0.31492   0.00000  Uiso   1.00
O232   O     0.06067   0.50000   0.18508   0.00000  Uiso   1.00
C233   C     0.30529   0.49960   0.33607   0.00000  Uiso   1.00
C234   C     0.02792   0.49963   0.16382   0.00000  Uiso   1.00
Cu235  Cu    0.04689   0.50001   0.25000   0.00000  Uiso   1.00
Cu236  Cu    0.28645   0.49999   0.25000   0.00000  Uiso   1.00
C237   C     0.28772   0.50063   0.38549   0.00000  Uiso   1.00
C238   C     0.04373   0.50331   0.11433   0.00000  Uiso   1.00
C239   C     0.29213   0.48368   0.45973   0.00000  Uiso   1.00
C240   C     0.02584   0.50738   0.04381   0.00000  Uiso   1.00
C241   C     0.31035   0.47902   0.41311   0.00000  Uiso   1.00
C242   C     0.01226   0.49472   0.08862   0.00000  Uiso   1.00
C243   C     0.24413   0.52180   0.40546   0.00000  Uiso   1.00
C244   C     0.09091   0.51766   0.09243   0.00000  Uiso   1.00
C245   C     0.22161   0.52032   0.45205   0.00000  Uiso   1.00
C246   C     0.10633   0.52665   0.04582   0.00000  Uiso   1.00
C247   C     0.25006   0.50687   0.47902   0.00000  Uiso   1.00
C248   C     0.07222   0.52247   0.02206   0.00000  Uiso   1.00
C249   C     0.17144   0.52922   0.47343   0.00000  Uiso   1.00
C250   C     0.15591   0.53370   0.02134   0.00000  Uiso   1.00
C251   C     0.19183   0.53754   0.04346   0.00000  Uiso   1.00
C252   C     0.13528   0.52824   0.45062   0.00000  Uiso   1.00
C253   C     0.23621   0.51806   0.02434   0.00000  Uiso   1.00
C254   C     0.08625   0.52746   0.47549   0.00000  Uiso   1.00
H255   H     0.26040   0.51430   0.04424   0.00000  Uiso   1.00
H256   H     0.05941   0.52434   0.45765   0.00000  Uiso   1.00
H257   H     0.11588   0.51925   0.11200   0.00000  Uiso   1.00
H258   H     0.22850   0.53987   0.38418   0.00000  Uiso   1.00
H259   H     0.30909   0.46699   0.48083   0.00000  Uiso   1.00
H260   H     0.00218   0.50177   0.02426   0.00000  Uiso   1.00
C261   C     0.29155   0.35465   0.24883   0.00000  Uiso   1.00
C262   C     0.04195   0.64537   0.25062   0.00000  Uiso   1.00
H263   H     0.25883   0.37066   0.24808   0.00000  Uiso   1.00
H264   H     0.07469   0.62937   0.25133   0.00000  Uiso   1.00
C265   C     0.29155   0.64538   0.24886   0.00000  Uiso   1.00
C266   C     0.04195   0.35464   0.25059   0.00000  Uiso   1.00
H267   H     0.25882   0.62938   0.24813   0.00000  Uiso   1.00
H268   H     0.07468   0.37064   0.25132   0.00000  Uiso   1.00
C269   C     0.00007   0.62389   0.24980   0.00000  Uiso   1.00
C270   C     0.00007   0.37613   0.24976   0.00000  Uiso   1.00
C271   C     0.18461   0.46922   0.27067   0.00000  Uiso   1.00
C272   C     0.14880   0.53067   0.22910   0.00000  Uiso   1.00
H273   H     0.19744   0.44450   0.28748   0.00000  Uiso   1.00
H274   H     0.13604   0.55527   0.21207   0.00000  Uiso   1.00
C275   C     0.13534   0.46909   0.27039   0.00000  Uiso   1.00
C276   C     0.19818   0.53066   0.22911   0.00000  Uiso   1.00
H277   H     0.11175   0.44408   0.28663   0.00000  Uiso   1.00
H278   H     0.22208   0.55523   0.21207   0.00000  Uiso   1.00
N279   N     0.11736   0.50001   0.24999   0.00000  Uiso   1.00
N280   N     0.21597   0.49999   0.25001   0.00000  Uiso   1.00
S281   S     0.29387   0.46219   0.10849   0.00000  Uiso   1.00
O282   O     0.25057   0.48741   0.13362   0.00000  Uiso   1.00
O283   O     0.28300   0.44117   0.06973   0.00000  Uiso   1.00
O284   O     0.30464   0.42596   0.14303   0.00000  Uiso   1.00
H285   H     0.27235   0.41387   0.15859   0.00000  Uiso   1.00
S286   S     0.02647   0.44512   0.39123   0.00000  Uiso   1.00
O287   O     0.07154   0.47011   0.37071   0.00000  Uiso   1.00
O288   O     0.03416   0.41833   0.42794   0.00000  Uiso   1.00
O289   O     0.01530   0.41513   0.35162   0.00000  Uiso   1.00
H290   H     0.04444   0.39739   0.34081   0.00000  Uiso   1.00
N291   N     0.18468   0.56286   0.08283   0.00000  Uiso   1.00
O292   O     0.15248   0.59224   0.09110   0.00000  Uiso   1.00
O293   O     0.21485   0.56102   0.10653   0.00000  Uiso   1.00
N294   N     0.14630   0.52041   0.40347   0.00000  Uiso   1.00
O295   O     0.13103   0.54583   0.37833   0.00000  Uiso   1.00
O296   O     0.16139   0.48403   0.38801   0.00000  Uiso   1.00
O297   O     0.37291   0.43989   0.25000   0.00000  Uiso   1.00
O298   O     0.62709   0.56011   0.25000   0.00000  Uiso   1.00
O299   O     0.62706   0.43988   0.25000   0.00000  Uiso   1.00
O300   O     0.37294   0.56012   0.25000   0.00000  Uiso   1.00
C301   C     0.33335   0.42078   0.24989   0.00000  Uiso   1.00
C302   C     0.33337   0.57922   0.24993   0.00000  Uiso   1.00
O303   O     0.35186   0.50001   0.31491   0.00000  Uiso   1.00
O304   O     0.64814   0.49999   0.18509   0.00000  Uiso   1.00
O305   O     0.60600   0.50000   0.31492   0.00000  Uiso   1.00
O306   O     0.39400   0.50000   0.18508   0.00000  Uiso   1.00
C307   C     0.63862   0.49960   0.33607   0.00000  Uiso   1.00
C308   C     0.36126   0.49963   0.16382   0.00000  Uiso   1.00
Cu309  Cu    0.38022   0.50001   0.25000   0.00000  Uiso   1.00
Cu310  Cu    0.61978   0.49999   0.25000   0.00000  Uiso   1.00
C311   C     0.62106   0.50063   0.38549   0.00000  Uiso   1.00
C312   C     0.37706   0.50331   0.11433   0.00000  Uiso   1.00
C313   C     0.62547   0.48368   0.45973   0.00000  Uiso   1.00
C314   C     0.35917   0.50738   0.04381   0.00000  Uiso   1.00
C315   C     0.64368   0.47902   0.41311   0.00000  Uiso   1.00
C316   C     0.34559   0.49472   0.08862   0.00000  Uiso   1.00
C317   C     0.57746   0.52180   0.40546   0.00000  Uiso   1.00
C318   C     0.42424   0.51766   0.09243   0.00000  Uiso   1.00
C319   C     0.55495   0.52032   0.45205   0.00000  Uiso   1.00
C320   C     0.43966   0.52665   0.04582   0.00000  Uiso   1.00
C321   C     0.58339   0.50687   0.47902   0.00000  Uiso   1.00
C322   C     0.40556   0.52247   0.02206   0.00000  Uiso   1.00
C323   C     0.50477   0.52922   0.47343   0.00000  Uiso   1.00
C324   C     0.48924   0.53370   0.02134   0.00000  Uiso   1.00
C325   C     0.52516   0.53754   0.04346   0.00000  Uiso   1.00
C326   C     0.46862   0.52824   0.45062   0.00000  Uiso   1.00
C327   C     0.56954   0.51806   0.02434   0.00000  Uiso   1.00
C328   C     0.41959   0.52746   0.47549   0.00000  Uiso   1.00
H329   H     0.59373   0.51430   0.04424   0.00000  Uiso   1.00
H330   H     0.39275   0.52434   0.45765   0.00000  Uiso   1.00
H331   H     0.44922   0.51925   0.11200   0.00000  Uiso   1.00
H332   H     0.56183   0.53987   0.38418   0.00000  Uiso   1.00
H333   H     0.64242   0.46699   0.48083   0.00000  Uiso   1.00
H334   H     0.33551   0.50177   0.02426   0.00000  Uiso   1.00
C335   C     0.62489   0.35465   0.24883   0.00000  Uiso   1.00
C336   C     0.37529   0.64537   0.25062   0.00000  Uiso   1.00
H337   H     0.59216   0.37066   0.24808   0.00000  Uiso   1.00
H338   H     0.40803   0.62937   0.25133   0.00000  Uiso   1.00
C339   C     0.62488   0.64538   0.24886   0.00000  Uiso   1.00
C340   C     0.37529   0.35464   0.25059   0.00000  Uiso   1.00
H341   H     0.59215   0.62938   0.24813   0.00000  Uiso   1.00
H342   H     0.40802   0.37064   0.25132   0.00000  Uiso   1.00
C343   C     0.33340   0.62389   0.24980   0.00000  Uiso   1.00
C344   C     0.33340   0.37613   0.24976   0.00000  Uiso   1.00
C345   C     0.51794   0.46922   0.27067   0.00000  Uiso   1.00
C346   C     0.48214   0.53067   0.22910   0.00000  Uiso   1.00
H347   H     0.53077   0.44450   0.28748   0.00000  Uiso   1.00
H348   H     0.46937   0.55527   0.21207   0.00000  Uiso   1.00
C349   C     0.46868   0.46909   0.27039   0.00000  Uiso   1.00
C350   C     0.53151   0.53066   0.22911   0.00000  Uiso   1.00
H351   H     0.44508   0.44408   0.28663   0.00000  Uiso   1.00
H352   H     0.55542   0.55523   0.21207   0.00000  Uiso   1.00
N353   N     0.45069   0.50001   0.24999   0.00000  Uiso   1.00
N354   N     0.54931   0.49999   0.25001   0.00000  Uiso   1.00
S355   S     0.62720   0.46219   0.10849   0.00000  Uiso   1.00
O356   O     0.58391   0.48741   0.13362   0.00000  Uiso   1.00
O357   O     0.61634   0.44117   0.06973   0.00000  Uiso   1.00
O358   O     0.63797   0.42596   0.14303   0.00000  Uiso   1.00
H359   H     0.60568   0.41387   0.15859   0.00000  Uiso   1.00
S360   S     0.35980   0.44512   0.39123   0.00000  Uiso   1.00
O361   O     0.40488   0.47011   0.37071   0.00000  Uiso   1.00
O362   O     0.36749   0.41833   0.42794   0.00000  Uiso   1.00
O363   O     0.34864   0.41513   0.35162   0.00000  Uiso   1.00
H364   H     0.37777   0.39739   0.34081   0.00000  Uiso   1.00
N365   N     0.51801   0.56286   0.08283   0.00000  Uiso   1.00
O366   O     0.48581   0.59224   0.09110   0.00000  Uiso   1.00
O367   O     0.54818   0.56102   0.10653   0.00000  Uiso   1.00
N368   N     0.47964   0.52041   0.40347   0.00000  Uiso   1.00
O369   O     0.46437   0.54583   0.37833   0.00000  Uiso   1.00
O370   O     0.49472   0.48403   0.38801   0.00000  Uiso   1.00
O371   O     0.70625   0.43989   0.25000   0.00000  Uiso   1.00
O372   O     0.96042   0.56011   0.25000   0.00000  Uiso   1.00
O373   O     0.96039   0.43988   0.25000   0.00000  Uiso   1.00
O374   O     0.70628   0.56012   0.25000   0.00000  Uiso   1.00
C375   C     0.66669   0.42078   0.24989   0.00000  Uiso   1.00
C376   C     0.66670   0.57922   0.24993   0.00000  Uiso   1.00
O377   O     0.68519   0.50001   0.31491   0.00000  Uiso   1.00
O378   O     0.98148   0.49999   0.18509   0.00000  Uiso   1.00
O379   O     0.93933   0.50000   0.31492   0.00000  Uiso   1.00
O380   O     0.72733   0.50000   0.18508   0.00000  Uiso   1.00
C381   C     0.97196   0.49960   0.33607   0.00000  Uiso   1.00
C382   C     0.69459   0.49963   0.16382   0.00000  Uiso   1.00
Cu383  Cu    0.71355   0.50001   0.25000   0.00000  Uiso   1.00
Cu384  Cu    0.95311   0.49999   0.25000   0.00000  Uiso   1.00
C385   C     0.95439   0.50063   0.38549   0.00000  Uiso   1.00
C386   C     0.71039   0.50331   0.11433   0.00000  Uiso   1.00
C387   C     0.95880   0.48368   0.45973   0.00000  Uiso   1.00
C388   C     0.69251   0.50738   0.04381   0.00000  Uiso   1.00
C389   C     0.97702   0.47902   0.41311   0.00000  Uiso   1.00
C390   C     0.67893   0.49472   0.08862   0.00000  Uiso   1.00
C391   C     0.91080   0.52180   0.40546   0.00000  Uiso   1.00
C392   C     0.75758   0.51766   0.09243   0.00000  Uiso   1.00
C393   C     0.88828   0.52032   0.45205   0.00000  Uiso   1.00
C394   C     0.77299   0.52665   0.04582   0.00000  Uiso   1.00
C395   C     0.91673   0.50687   0.47902   0.00000  Uiso   1.00
C396   C     0.73889   0.52247   0.02206   0.00000  Uiso   1.00
C397   C     0.83810   0.52922   0.47343   0.00000  Uiso   1.00
C398   C     0.82258   0.53370   0.02134   0.00000  Uiso   1.00
C399   C     0.85849   0.53754   0.04346   0.00000  Uiso   1.00
C400   C     0.80195   0.52824   0.45062   0.00000  Uiso   1.00
C401   C     0.90287   0.51806   0.02434   0.00000  Uiso   1.00
C402   C     0.75292   0.52746   0.47549   0.00000  Uiso   1.00
H403   H     0.92706   0.51430   0.04424   0.00000  Uiso   1.00
H404   H     0.72608   0.52434   0.45765   0.00000  Uiso   1.00
H405   H     0.78255   0.51925   0.11200   0.00000  Uiso   1.00
H406   H     0.89516   0.53987   0.38418   0.00000  Uiso   1.00
H407   H     0.97576   0.46699   0.48083   0.00000  Uiso   1.00
H408   H     0.66884   0.50177   0.02426   0.00000  Uiso   1.00
C409   C     0.95822   0.35465   0.24883   0.00000  Uiso   1.00
C410   C     0.70862   0.64537   0.25062   0.00000  Uiso   1.00
H411   H     0.92549   0.37066   0.24808   0.00000  Uiso   1.00
H412   H     0.74136   0.62937   0.25133   0.00000  Uiso   1.00
C413   C     0.95821   0.64538   0.24886   0.00000  Uiso   1.00
C414   C     0.70862   0.35464   0.25059   0.00000  Uiso   1.00
H415   H     0.92548   0.62938   0.24813   0.00000  Uiso   1.00
H416   H     0.74135   0.37064   0.25132   0.00000  Uiso   1.00
C417   C     0.66673   0.62389   0.24980   0.00000  Uiso   1.00
C418   C     0.66673   0.37613   0.24976   0.00000  Uiso   1.00
C419   C     0.85128   0.46922   0.27067   0.00000  Uiso   1.00
C420   C     0.81547   0.53067   0.22910   0.00000  Uiso   1.00
H421   H     0.86410   0.44450   0.28748   0.00000  Uiso   1.00
H422   H     0.80270   0.55527   0.21207   0.00000  Uiso   1.00
C423   C     0.80201   0.46909   0.27039   0.00000  Uiso   1.00
C424   C     0.86485   0.53066   0.22911   0.00000  Uiso   1.00
H425   H     0.77842   0.44408   0.28663   0.00000  Uiso   1.00
H426   H     0.88875   0.55523   0.21207   0.00000  Uiso   1.00
N427   N     0.78403   0.50001   0.24999   0.00000  Uiso   1.00
N428   N     0.88264   0.49999   0.25001   0.00000  Uiso   1.00
S429   S     0.96054   0.46219   0.10849   0.00000  Uiso   1.00
O430   O     0.91724   0.48741   0.13362   0.00000  Uiso   1.00
O431   O     0.94967   0.44117   0.06973   0.00000  Uiso   1.00
O432   O     0.97130   0.42596   0.14303   0.00000  Uiso   1.00
H433   H     0.93902   0.41387   0.15859   0.00000  Uiso   1.00
S434   S     0.69314   0.44512   0.39123   0.00000  Uiso   1.00
O435   O     0.73821   0.47011   0.37071   0.00000  Uiso   1.00
O436   O     0.70082   0.41833   0.42794   0.00000  Uiso   1.00
O437   O     0.68197   0.41513   0.35162   0.00000  Uiso   1.00
H438   H     0.71110   0.39739   0.34081   0.00000  Uiso   1.00
N439   N     0.85134   0.56286   0.08283   0.00000  Uiso   1.00
O440   O     0.81915   0.59224   0.09110   0.00000  Uiso   1.00
O441   O     0.88151   0.56102   0.10653   0.00000  Uiso   1.00
N442   N     0.81297   0.52041   0.40347   0.00000  Uiso   1.00
O443   O     0.79770   0.54583   0.37833   0.00000  Uiso   1.00
O444   O     0.82805   0.48403   0.38801   0.00000  Uiso   1.00
O445   O     0.03958   0.77322   0.25000   0.00000  Uiso   1.00
O446   O     0.29375   0.89345   0.25000   0.00000  Uiso   1.00
O447   O     0.29372   0.77321   0.25000   0.00000  Uiso   1.00
O448   O     0.03961   0.89346   0.25000   0.00000  Uiso   1.00
C449   C     0.00002   0.75412   0.24989   0.00000  Uiso   1.00
C450   C     0.00003   0.91255   0.24993   0.00000  Uiso   1.00
O451   O     0.01852   0.83334   0.31491   0.00000  Uiso   1.00
O452   O     0.31481   0.83332   0.18509   0.00000  Uiso   1.00
O453   O     0.27267   0.83333   0.31492   0.00000  Uiso   1.00
O454   O     0.06067   0.83333   0.18508   0.00000  Uiso   1.00
C455   C     0.30529   0.83293   0.33607   0.00000  Uiso   1.00
C456   C     0.02792   0.83296   0.16382   0.00000  Uiso   1.00
Cu457  Cu    0.04689   0.83334   0.25000   0.00000  Uiso   1.00
Cu458  Cu    0.28645   0.83333   0.25000   0.00000  Uiso   1.00
C459   C     0.28772   0.83396   0.38549   0.00000  Uiso   1.00
C460   C     0.04373   0.83664   0.11433   0.00000  Uiso   1.00
C461   C     0.29213   0.81701   0.45973   0.00000  Uiso   1.00
C462   C     0.02584   0.84072   0.04381   0.00000  Uiso   1.00
C463   C     0.31035   0.81235   0.41311   0.00000  Uiso   1.00
C464   C     0.01226   0.82805   0.08862   0.00000  Uiso   1.00
C465   C     0.24413   0.85514   0.40546   0.00000  Uiso   1.00
C466   C     0.09091   0.85099   0.09243   0.00000  Uiso   1.00
C467   C     0.22161   0.85365   0.45205   0.00000  Uiso   1.00
C468   C     0.10633   0.85999   0.04582   0.00000  Uiso   1.00
C469   C     0.25006   0.84020   0.47902   0.00000  Uiso   1.00
C470   C     0.07222   0.85581   0.02206   0.00000  Uiso   1.00
C471   C     0.17144   0.86256   0.47343   0.00000  Uiso   1.00
C472   C     0.15591   0.86703   0.02134   0.00000  Uiso   1.00
C473   C     0.19183   0.87088   0.04346   0.00000  Uiso   1.00
C474   C     0.13528   0.86157   0.45062   0.00000  Uiso   1.00
C475   C     0.23621   0.85140   0.02434   0.00000  Uiso   1.00
C476   C     0.08625   0.86079   0.47549   0.00000  Uiso   1.00
H477   H     0.26040   0.84764   0.04424   0.00000  Uiso   1.00
H478   H     0.05941   0.85767   0.45765   0.00000  Uiso   1.00
H479   H     0.11588   0.85258   0.11200   0.00000  Uiso   1.00
H480   H     0.22850   0.87320   0.38418   0.00000  Uiso   1.00
H481   H     0.30909   0.80033   0.48083   0.00000  Uiso   1.00
H482   H     0.00218   0.83511   0.02426   0.00000  Uiso   1.00
C483   C     0.29155   0.68798   0.24883   0.00000  Uiso   1.00
C484   C     0.04195   0.97871   0.25062   0.00000  Uiso   1.00
H485   H     0.25883   0.70400   0.24808   0.00000  Uiso   1.00
H486   H     0.07469   0.96271   0.25133   0.00000  Uiso   1.00
C487   C     0.29155   0.97872   0.24886   0.00000  Uiso   1.00
C488   C     0.04195   0.68797   0.25059   0.00000  Uiso   1.00
H489   H     0.25882   0.96272   0.24813   0.00000  Uiso   1.00
H490   H     0.07468   0.70397   0.25132   0.00000  Uiso   1.00
C491   C     0.00007   0.95723   0.24980   0.00000  Uiso   1.00
C492   C     0.00007   0.70946   0.24976   0.00000  Uiso   1.00
C493   C     0.18461   0.80255   0.27067   0.00000  Uiso   1.00
C494   C     0.14880   0.86400   0.22910   0.00000  Uiso   1.00
H495   H     0.19744   0.77783   0.28748   0.00000  Uiso   1.00
H496   H     0.13604   0.88860   0.21207   0.00000  Uiso   1.00
C497   C     0.13534   0.80243   0.27039   0.00000  Uiso   1.00
C498   C     0.19818   0.86399   0.22911   0.00000  Uiso   1.00
H499   H     0.11175   0.77741   0.28663   0.00000  Uiso   1.00
H500   H     0.22208   0.88857   0.21207   0.00000  Uiso   1.00
N501   N     0.11736   0.83334   0.24999   0.00000  Uiso   1.00
N502   N     0.21597   0.83332   0.25001   0.00000  Uiso   1.00
S503   S     0.29387   0.79553   0.10849   0.00000  Uiso   1.00
O504   O     0.25057   0.82074   0.13362   0.00000  Uiso   1.00
O505   O     0.28300   0.77450   0.06973   0.00000  Uiso   1.00
O506   O     0.30464   0.75930   0.14303   0.00000  Uiso   1.00
H507   H     0.27235   0.74721   0.15859   0.00000  Uiso   1.00
S508   S     0.02647   0.77845   0.39123   0.00000  Uiso   1.00
O509   O     0.07154   0.80344   0.37071   0.00000  Uiso   1.00
O510   O     0.03416   0.75167   0.42794   0.00000  Uiso   1.00
O511   O     0.01530   0.74846   0.35162   0.00000  Uiso   1.00
H512   H     0.04444   0.73072   0.34081   0.00000  Uiso   1.00
N513   N     0.18468   0.89619   0.08283   0.00000  Uiso   1.00
O514   O     0.15248   0.92557   0.09110   0.00000  Uiso   1.00
O515   O     0.21485   0.89436   0.10653   0.00000  Uiso   1.00
N516   N     0.14630   0.85374   0.40347   0.00000  Uiso   1.00
O517   O     0.13103   0.87916   0.37833   0.00000  Uiso   1.00
O518   O     0.16139   0.81737   0.38801   0.00000  Uiso   1.00
O519   O     0.37291   0.77322   0.25000   0.00000  Uiso   1.00
O520   O     0.62709   0.89345   0.25000   0.00000  Uiso   1.00
O521   O     0.62706   0.77321   0.25000   0.00000  Uiso   1.00
O522   O     0.37294   0.89346   0.25000   0.00000  Uiso   1.00
C523   C     0.33335   0.75412   0.24989   0.00000  Uiso   1.00
C524   C     0.33337   0.91255   0.24993   0.00000  Uiso   1.00
O525   O     0.35186   0.83334   0.31491   0.00000  Uiso   1.00
O526   O     0.64814   0.83332   0.18509   0.00000  Uiso   1.00
O527   O     0.60600   0.83333   0.31492   0.00000  Uiso   1.00
O528   O     0.39400   0.83333   0.18508   0.00000  Uiso   1.00
C529   C     0.63862   0.83293   0.33607   0.00000  Uiso   1.00
C530   C     0.36126   0.83296   0.16382   0.00000  Uiso   1.00
Cu531  Cu    0.38022   0.83334   0.25000   0.00000  Uiso   1.00
Cu532  Cu    0.61978   0.83333   0.25000   0.00000  Uiso   1.00
C533   C     0.62106   0.83396   0.38549   0.00000  Uiso   1.00
C534   C     0.37706   0.83664   0.11433   0.00000  Uiso   1.00
C535   C     0.62547   0.81701   0.45973   0.00000  Uiso   1.00
C536   C     0.35917   0.84072   0.04381   0.00000  Uiso   1.00
C537   C     0.64368   0.81235   0.41311   0.00000  Uiso   1.00
C538   C     0.34559   0.82805   0.08862   0.00000  Uiso   1.00
C539   C     0.57746   0.85514   0.40546   0.00000  Uiso   1.00
C540   C     0.42424   0.85099   0.09243   0.00000  Uiso   1.00
C541   C     0.55495   0.85365   0.45205   0.00000  Uiso   1.00
C542   C     0.43966   0.85999   0.04582   0.00000  Uiso   1.00
C543   C     0.58339   0.84020   0.47902   0.00000  Uiso   1.00
C544   C     0.40556   0.85581   0.02206   0.00000  Uiso   1.00
C545   C     0.50477   0.86256   0.47343   0.00000  Uiso   1.00
C546   C     0.48924   0.86703   0.02134   0.00000  Uiso   1.00
C547   C     0.52516   0.87088   0.04346   0.00000  Uiso   1.00
C548   C     0.46862   0.86157   0.45062   0.00000  Uiso   1.00
C549   C     0.56954   0.85140   0.02434   0.00000  Uiso   1.00
C550   C     0.41959   0.86079   0.47549   0.00000  Uiso   1.00
H551   H     0.59373   0.84764   0.04424   0.00000  Uiso   1.00
H552   H     0.39275   0.85767   0.45765   0.00000  Uiso   1.00
H553   H     0.44922   0.85258   0.11200   0.00000  Uiso   1.00
H554   H     0.56183   0.87320   0.38418   0.00000  Uiso   1.00
H555   H     0.64242   0.80033   0.48083   0.00000  Uiso   1.00
H556   H     0.33551   0.83511   0.02426   0.00000  Uiso   1.00
C557   C     0.62489   0.68798   0.24883   0.00000  Uiso   1.00
C558   C     0.37529   0.97871   0.25062   0.00000  Uiso   1.00
H559   H     0.59216   0.70400   0.24808   0.00000  Uiso   1.00
H560   H     0.40803   0.96271   0.25133   0.00000  Uiso   1.00
C561   C     0.62488   0.97872   0.24886   0.00000  Uiso   1.00
C562   C     0.37529   0.68797   0.25059   0.00000  Uiso   1.00
H563   H     0.59215   0.96272   0.24813   0.00000  Uiso   1.00
H564   H     0.40802   0.70397   0.25132   0.00000  Uiso   1.00
C565   C     0.33340   0.95723   0.24980   0.00000  Uiso   1.00
C566   C     0.33340   0.70946   0.24976   0.00000  Uiso   1.00
C567   C     0.51794   0.80255   0.27067   0.00000  Uiso   1.00
C568   C     0.48214   0.86400   0.22910   0.00000  Uiso   1.00
H569   H     0.53077   0.77783   0.28748   0.00000  Uiso   1.00
H570   H     0.46937   0.88860   0.21207   0.00000  Uiso   1.00
C571   C     0.46868   0.80243   0.27039   0.00000  Uiso   1.00
C572   C     0.53151   0.86399   0.22911   0.00000  Uiso   1.00
H573   H     0.44508   0.77741   0.28663   0.00000  Uiso   1.00
H574   H     0.55542   0.88857   0.21207   0.00000  Uiso   1.00
N575   N     0.45069   0.83334   0.24999   0.00000  Uiso   1.00
N576   N     0.54931   0.83332   0.25001   0.00000  Uiso   1.00
S577   S     0.62720   0.79553   0.10849   0.00000  Uiso   1.00
O578   O     0.58391   0.82074   0.13362   0.00000  Uiso   1.00
O579   O     0.61634   0.77450   0.06973   0.00000  Uiso   1.00
O580   O     0.63797   0.75930   0.14303   0.00000  Uiso   1.00
H581   H     0.60568   0.74721   0.15859   0.00000  Uiso   1.00
S582   S     0.35980   0.77845   0.39123   0.00000  Uiso   1.00
O583   O     0.40488   0.80344   0.37071   0.00000  Uiso   1.00
O584   O     0.36749   0.75167   0.42794   0.00000  Uiso   1.00
O585   O     0.34864   0.74846   0.35162   0.00000  Uiso   1.00
H586   H     0.37777   0.73072   0.34081   0.00000  Uiso   1.00
N587   N     0.51801   0.89619   0.08283   0.00000  Uiso   1.00
O588   O     0.48581   0.92557   0.09110   0.00000  Uiso   1.00
O589   O     0.54818   0.89436   0.10653   0.00000  Uiso   1.00
N590   N     0.47964   0.85374   0.40347   0.00000  Uiso   1.00
O591   O     0.46437   0.87916   0.37833   0.00000  Uiso   1.00
O592   O     0.49472   0.81737   0.38801   0.00000  Uiso   1.00
O593   O     0.70625   0.77322   0.25000   0.00000  Uiso   1.00
O594   O     0.96042   0.89345   0.25000   0.00000  Uiso   1.00
O595   O     0.96039   0.77321   0.25000   0.00000  Uiso   1.00
O596   O     0.70628   0.89346   0.25000   0.00000  Uiso   1.00
C597   C     0.66669   0.75412   0.24989   0.00000  Uiso   1.00
C598   C     0.66670   0.91255   0.24993   0.00000  Uiso   1.00
O599   O     0.68519   0.83334   0.31491   0.00000  Uiso   1.00
O600   O     0.98148   0.83332   0.18509   0.00000  Uiso   1.00
O601   O     0.93933   0.83333   0.31492   0.00000  Uiso   1.00
O602   O     0.72733   0.83333   0.18508   0.00000  Uiso   1.00
C603   C     0.97196   0.83293   0.33607   0.00000  Uiso   1.00
C604   C     0.69459   0.83296   0.16382   0.00000  Uiso   1.00
Cu605  Cu    0.71355   0.83334   0.25000   0.00000  Uiso   1.00
Cu606  Cu    0.95311   0.83333   0.25000   0.00000  Uiso   1.00
C607   C     0.95439   0.83396   0.38549   0.00000  Uiso   1.00
C608   C     0.71039   0.83664   0.11433   0.00000  Uiso   1.00
C609   C     0.95880   0.81701   0.45973   0.00000  Uiso   1.00
C610   C     0.69251   0.84072   0.04381   0.00000  Uiso   1.00
C611   C     0.97702   0.81235   0.41311   0.00000  Uiso   1.00
C612   C     0.67893   0.82805   0.08862   0.00000  Uiso   1.00
C613   C     0.91080   0.85514   0.40546   0.00000  Uiso   1.00
C614   C     0.75758   0.85099   0.09243   0.00000  Uiso   1.00
C615   C     0.88828   0.85365   0.45205   0.00000  Uiso   1.00
C616   C     0.77299   0.85999   0.04582   0.00000  Uiso   1.00
C617   C     0.91673   0.84020   0.47902   0.00000  Uiso   1.00
C618   C     0.73889   0.85581   0.02206   0.00000  Uiso   1.00
C619   C     0.83810   0.86256   0.47343   0.00000  Uiso   1.00
C620   C     0.82258   0.86703   0.02134   0.00000  Uiso   1.00
C621   C     0.85849   0.87088   0.04346   0.00000  Uiso   1.00
C622   C     0.80195   0.86157   0.45062   0.00000  Uiso   1.00
C623   C     0.90287   0.85140   0.02434   0.00000  Uiso   1.00
C624   C     0.75292   0.86079   0.47549   0.00000  Uiso   1.00
H625   H     0.92706   0.84764   0.04424   0.00000  Uiso   1.00
H626   H     0.72608   0.85767   0.45765   0.00000  Uiso   1.00
H627   H     0.78255   0.85258   0.11200   0.00000  Uiso   1.00
H628   H     0.89516   0.87320   0.38418   0.00000  Uiso   1.00
H629   H     0.97576   0.80033   0.48083   0.00000  Uiso   1.00
H630   H     0.66884   0.83511   0.02426   0.00000  Uiso   1.00
C631   C     0.95822   0.68798   0.24883   0.00000  Uiso   1.00
C632   C     0.70862   0.97871   0.25062   0.00000  Uiso   1.00
H633   H     0.92549   0.70400   0.24808   0.00000  Uiso   1.00
H634   H     0.74136   0.96271   0.25133   0.00000  Uiso   1.00
C635   C     0.95821   0.97872   0.24886   0.00000  Uiso   1.00
C636   C     0.70862   0.68797   0.25059   0.00000  Uiso   1.00
H637   H     0.92548   0.96272   0.24813   0.00000  Uiso   1.00
H638   H     0.74135   0.70397   0.25132   0.00000  Uiso   1.00
C639   C     0.66673   0.95723   0.24980   0.00000  Uiso   1.00
C640   C     0.66673   0.70946   0.24976   0.00000  Uiso   1.00
C641   C     0.85128   0.80255   0.27067   0.00000  Uiso   1.00
C642   C     0.81547   0.86400   0.22910   0.00000  Uiso   1.00
H643   H     0.86410   0.77783   0.28748   0.00000  Uiso   1.00
H644   H     0.80270   0.88860   0.21207   0.00000  Uiso   1.00
C645   C     0.80201   0.80243   0.27039   0.00000  Uiso   1.00
C646   C     0.86485   0.86399   0.22911   0.00000  Uiso   1.00
H647   H     0.77842   0.77741   0.28663   0.00000  Uiso   1.00
H648   H     0.88875   0.88857   0.21207   0.00000  Uiso   1.00
N649   N     0.78403   0.83334   0.24999   0.00000  Uiso   1.00
N650   N     0.88264   0.83332   0.25001   0.00000  Uiso   1.00
S651   S     0.96054   0.79553   0.10849   0.00000  Uiso   1.00
O652   O     0.91724   0.82074   0.13362   0.00000  Uiso   1.00
O653   O     0.94967   0.77450   0.06973   0.00000  Uiso   1.00
O654   O     0.97130   0.75930   0.14303   0.00000  Uiso   1.00
H655   H     0.93902   0.74721   0.15859   0.00000  Uiso   1.00
S656   S     0.69314   0.77845   0.39123   0.00000  Uiso   1.00
O657   O     0.73821   0.80344   0.37071   0.00000  Uiso   1.00
O658   O     0.70082   0.75167   0.42794   0.00000  Uiso   1.00
O659   O     0.68197   0.74846   0.35162   0.00000  Uiso   1.00
H660   H     0.71110   0.73072   0.34081   0.00000  Uiso   1.00
N661   N     0.85134   0.89619   0.08283   0.00000  Uiso   1.00
O662   O     0.81915   0.92557   0.09110   0.00000  Uiso   1.00
O663   O     0.88151   0.89436   0.10653   0.00000  Uiso   1.00
N664   N     0.81297   0.85374   0.40347   0.00000  Uiso   1.00
O665   O     0.79770   0.87916   0.37833   0.00000  Uiso   1.00
O666   O     0.82805   0.81737   0.38801   0.00000  Uiso   1.00
O667   O     0.03958   0.10655   0.75000   0.00000  Uiso   1.00
O668   O     0.29375   0.22678   0.75000   0.00000  Uiso   1.00
O669   O     0.29372   0.10654   0.75000   0.00000  Uiso   1.00
O670   O     0.03961   0.22679   0.75000   0.00000  Uiso   1.00
C671   C     0.00002   0.08745   0.74989   0.00000  Uiso   1.00
C672   C     0.00003   0.24589   0.74993   0.00000  Uiso   1.00
O673   O     0.01852   0.16668   0.81491   0.00000  Uiso   1.00
O674   O     0.31481   0.16666   0.68509   0.00000  Uiso   1.00
O675   O     0.27267   0.16667   0.81492   0.00000  Uiso   1.00
O676   O     0.06067   0.16667   0.68508   0.00000  Uiso   1.00
C677   C     0.30529   0.16626   0.83607   0.00000  Uiso   1.00
C678   C     0.02792   0.16629   0.66382   0.00000  Uiso   1.00
Cu679  Cu    0.04689   0.16667   0.75000   0.00000  Uiso   1.00
Cu680  Cu    0.28645   0.16666   0.75000   0.00000  Uiso   1.00
C681   C     0.28772   0.16729   0.88549   0.00000  Uiso   1.00
C682   C     0.04373   0.16998   0.61433   0.00000  Uiso   1.00
C683   C     0.29213   0.15034   0.95973   0.00000  Uiso   1.00
C684   C     0.02584   0.17405   0.54381   0.00000  Uiso   1.00
C685   C     0.31035   0.14569   0.91311   0.00000  Uiso   1.00
C686   C     0.01226   0.16138   0.58862   0.00000  Uiso   1.00
C687   C     0.24413   0.18847   0.90546   0.00000  Uiso   1.00
C688   C     0.09091   0.18433   0.59243   0.00000  Uiso   1.00
C689   C     0.22161   0.18698   0.95205   0.00000  Uiso   1.00
C690   C     0.10633   0.19332   0.54582   0.00000  Uiso   1.00
C691   C     0.25006   0.17353   0.97902   0.00000  Uiso   1.00
C692   C     0.07222   0.18914   0.52206   0.00000  Uiso   1.00
C693   C     0.17144   0.19589   0.97343   0.00000  Uiso   1.00
C694   C     0.15591   0.20036   0.52134   0.00000  Uiso   1.00
C695   C     0.19183   0.20421   0.54346   0.00000  Uiso   1.00
C696   C     0.13528   0.19490   0.95062   0.00000  Uiso   1.00
C697   C     0.23621   0.18473   0.52434   0.00000  Uiso   1.00
C698   C     0.08625   0.19413   0.97549   0.00000  Uiso   1.00
H699   H     0.26040   0.18097   0.54424   0.00000  Uiso   1.00
H700   H     0.05941   0.19101   0.95765   0.00000  Uiso   1.00
H701   H     0.11588   0.18591   0.61200   0.00000  Uiso   1.00
H702   H     0.22850   0.20653   0.88418   0.00000  Uiso   1.00
H703   H     0.30909   0.13366   0.98083   0.00000  Uiso   1.00
H704   H     0.00218   0.16844   0.52426   0.00000  Uiso   1.00
C705   C     0.29155   0.02132   0.74883   0.00000  Uiso   1.00
C706   C     0.04195   0.31204   0.75062   0.00000  Uiso   1.00
H707   H     0.25883   0.03733   0.74808   0.00000  Uiso   1.00
H708   H     0.07469   0.29604   0.75133   0.00000  Uiso   1.00
C709   C     0.29155   0.31205   0.74886   0.00000  Uiso   1.00
C710   C     0.04195   0.02130   0.75059   0.00000  Uiso   1.00
H711   H     0.25882   0.29605   0.74813   0.00000  Uiso   1.00
H712   H     0.07468   0.03730   0.75132   0.00000  Uiso   1.00
C713   C     0.00007   0.29056   0.74980   0.00000  Uiso   1.00
C714   C     0.00007   0.04279   0.74976   0.00000  Uiso   1.00
C715   C     0.18461   0.13588   0.77067   0.00000  Uiso   1.00
C716   C     0.14880   0.19734   0.72910   0.00000  Uiso   1.00
H717   H     0.19744   0.11117   0.78748   0.00000  Uiso   1.00
H718   H     0.13604   0.22193   0.71207   0.00000  Uiso   1.00
C719   C     0.13534   0.13576   0.77039   0.00000  Uiso   1.00
C720   C     0.19818   0.19733   0.72911   0.00000  Uiso   1.00
H721   H     0.11175   0.11075   0.78663   0.00000  Uiso   1.00
H722   H     0.22208   0.22190   0.71207   0.00000  Uiso   1.00
N723   N     0.11736   0.16668   0.74999   0.00000  Uiso   1.00
N724   N     0.21597   0.16666   0.75001   0.00000  Uiso   1.00
S725   S     0.29387   0.12886   0.60849   0.00000  Uiso   1.00
O726   O     0.25057   0.15407   0.63362   0.00000  Uiso   1.00
O727   O     0.28300   0.10783   0.56973   0.00000  Uiso   1.00
O728   O     0.30464   0.09263   0.64303   0.00000  Uiso   1.00
H729   H     0.27235   0.08054   0.65859   0.00000  Uiso   1.00
S730   S     0.02647   0.11179   0.89123   0.00000  Uiso   1.00
O731   O     0.07154   0.13678   0.87071   0.00000  Uiso   1.00
O732   O     0.03416   0.08500   0.92794   0.00000  Uiso   1.00
O733   O     0.01530   0.08179   0.85162   0.00000  Uiso   1.00
H734   H     0.04444   0.06405   0.84081   0.00000  Uiso   1.00
N735   N     0.18468   0.22953   0.58283   0.00000  Uiso   1.00
O736   O     0.15248   0.25891   0.59110   0.00000  Uiso   1.00
O737   O     0.21485   0.22769   0.60653   0.00000  Uiso   1.00
N738   N     0.14630   0.18708   0.90347   0.00000  Uiso   1.00
O739   O     0.13103   0.21250   0.87833   0.00000  Uiso   1.00
O740   O     0.16139   0.15070   0.88801   0.00000  Uiso   1.00
O741   O     0.37291   0.10655   0.75000   0.00000  Uiso   1.00
O742   O     0.62709   0.22678   0.75000   0.00000  Uiso   1.00
O743   O     0.62706   0.10654   0.75000   0.00000  Uiso   1.00
O744   O     0.37294   0.22679   0.75000   0.00000  Uiso   1.00
C745   C     0.33335   0.08745   0.74989   0.00000  Uiso   1.00
C746   C     0.33337   0.24589   0.74993   0.00000  Uiso   1.00
O747   O     0.35186   0.16668   0.81491   0.00000  Uiso   1.00
O748   O     0.64814   0.16666   0.68509   0.00000  Uiso   1.00
O749   O     0.60600   0.16667   0.81492   0.00000  Uiso   1.00
O750   O     0.39400   0.16667   0.68508   0.00000  Uiso   1.00
C751   C     0.63862   0.16626   0.83607   0.00000  Uiso   1.00
C752   C     0.36126   0.16629   0.66382   0.00000  Uiso   1.00
Cu753  Cu    0.38022   0.16667   0.75000   0.00000  Uiso   1.00
Cu754  Cu    0.61978   0.16666   0.75000   0.00000  Uiso   1.00
C755   C     0.62106   0.16729   0.88549   0.00000  Uiso   1.00
C756   C     0.37706   0.16998   0.61433   0.00000  Uiso   1.00
C757   C     0.62547   0.15034   0.95973   0.00000  Uiso   1.00
C758   C     0.35917   0.17405   0.54381   0.00000  Uiso   1.00
C759   C     0.64368   0.14569   0.91311   0.00000  Uiso   1.00
C760   C     0.34559   0.16138   0.58862   0.00000  Uiso   1.00
C761   C     0.57746   0.18847   0.90546   0.00000  Uiso   1.00
C762   C     0.42424   0.18433   0.59243   0.00000  Uiso   1.00
C763   C     0.55495   0.18698   0.95205   0.00000  Uiso   1.00
C764   C     0.43966   0.19332   0.54582   0.00000  Uiso   1.00
C765   C     0.58339   0.17353   0.97902   0.00000  Uiso   1.00
C766   C     0.40556   0.18914   0.52206   0.00000  Uiso   1.00
C767   C     0.50477   0.19589   0.97343   0.00000  Uiso   1.00
C768   C     0.48924   0.20036   0.52134   0.00000  Uiso   1.00
C769   C     0.52516   0.20421   0.54346   0.00000  Uiso   1.00
C770   C     0.46862   0.19490   0.95062   0.00000  Uiso   1.00
C771   C     0.56954   0.18473   0.52434   0.00000  Uiso   1.00
C772   C     0.41959   0.19413   0.97549   0.00000  Uiso   1.00
H773   H     0.59373   0.18097   0.54424   0.00000  Uiso   1.00
H774   H     0.39275   0.19101   0.95765   0.00000  Uiso   1.00
H775   H     0.44922   0.18591   0.61200   0.00000  Uiso   1.00
H776   H     0.56183   0.20653   0.88418   0.00000  Uiso   1.00
H777   H     0.64242   0.13366   0.98083   0.00000  Uiso   1.00
H778   H     0.33551   0.16844   0.52426   0.00000  Uiso   1.00
C779   C     0.62489   0.02132   0.74883   0.00000  Uiso   1.00
C780   C     0.37529   0.31204   0.75062   0.00000  Uiso   1.00
H781   H     0.59216   0.03733   0.74808   0.00000  Uiso   1.00
H782   H     0.40803   0.29604   0.75133   0.00000  Uiso   1.00
C783   C     0.62488   0.31205   0.74886   0.00000  Uiso   1.00
C784   C     0.37529   0.02130   0.75059   0.00000  Uiso   1.00
H785   H     0.59215   0.29605   0.74813   0.00000  Uiso   1.00
H786   H     0.40802   0.03730   0.75132   0.00000  Uiso   1.00
C787   C     0.33340   0.29056   0.74980   0.00000  Uiso   1.00
C788   C     0.33340   0.04279   0.74976   0.00000  Uiso   1.00
C789   C     0.51794   0.13588   0.77067   0.00000  Uiso   1.00
C790   C     0.48214   0.19734   0.72910   0.00000  Uiso   1.00
H791   H     0.53077   0.11117   0.78748   0.00000  Uiso   1.00
H792   H     0.46937   0.22193   0.71207   0.00000  Uiso   1.00
C793   C     0.46868   0.13576   0.77039   0.00000  Uiso   1.00
C794   C     0.53151   0.19733   0.72911   0.00000  Uiso   1.00
H795   H     0.44508   0.11075   0.78663   0.00000  Uiso   1.00
H796   H     0.55542   0.22190   0.71207   0.00000  Uiso   1.00
N797   N     0.45069   0.16668   0.74999   0.00000  Uiso   1.00
N798   N     0.54931   0.16666   0.75001   0.00000  Uiso   1.00
S799   S     0.62720   0.12886   0.60849   0.00000  Uiso   1.00
O800   O     0.58391   0.15407   0.63362   0.00000  Uiso   1.00
O801   O     0.61634   0.10783   0.56973   0.00000  Uiso   1.00
O802   O     0.63797   0.09263   0.64303   0.00000  Uiso   1.00
H803   H     0.60568   0.08054   0.65859   0.00000  Uiso   1.00
S804   S     0.35980   0.11179   0.89123   0.00000  Uiso   1.00
O805   O     0.40488   0.13678   0.87071   0.00000  Uiso   1.00
O806   O     0.36749   0.08500   0.92794   0.00000  Uiso   1.00
O807   O     0.34864   0.08179   0.85162   0.00000  Uiso   1.00
H808   H     0.37777   0.06405   0.84081   0.00000  Uiso   1.00
N809   N     0.51801   0.22953   0.58283   0.00000  Uiso   1.00
O810   O     0.48581   0.25891   0.59110   0.00000  Uiso   1.00
O811   O     0.54818   0.22769   0.60653   0.00000  Uiso   1.00
N812   N     0.47964   0.18708   0.90347   0.00000  Uiso   1.00
O813   O     0.46437   0.21250   0.87833   0.00000  Uiso   1.00
O814   O     0.49472   0.15070   0.88801   0.00000  Uiso   1.00
O815   O     0.70625   0.10655   0.75000   0.00000  Uiso   1.00
O816   O     0.96042   0.22678   0.75000   0.00000  Uiso   1.00
O817   O     0.96039   0.10654   0.75000   0.00000  Uiso   1.00
O818   O     0.70628   0.22679   0.75000   0.00000  Uiso   1.00
C819   C     0.66669   0.08745   0.74989   0.00000  Uiso   1.00
C820   C     0.66670   0.24589   0.74993   0.00000  Uiso   1.00
O821   O     0.68519   0.16668   0.81491   0.00000  Uiso   1.00
O822   O     0.98148   0.16666   0.68509   0.00000  Uiso   1.00
O823   O     0.93933   0.16667   0.81492   0.00000  Uiso   1.00
O824   O     0.72733   0.16667   0.68508   0.00000  Uiso   1.00
C825   C     0.97196   0.16626   0.83607   0.00000  Uiso   1.00
C826   C     0.69459   0.16629   0.66382   0.00000  Uiso   1.00
Cu827  Cu    0.71355   0.16667   0.75000   0.00000  Uiso   1.00
Cu828  Cu    0.95311   0.16666   0.75000   0.00000  Uiso   1.00
C829   C     0.95439   0.16729   0.88549   0.00000  Uiso   1.00
C830   C     0.71039   0.16998   0.61433   0.00000  Uiso   1.00
C831   C     0.95880   0.15034   0.95973   0.00000  Uiso   1.00
C832   C     0.69251   0.17405   0.54381   0.00000  Uiso   1.00
C833   C     0.97702   0.14569   0.91311   0.00000  Uiso   1.00
C834   C     0.67893   0.16138   0.58862   0.00000  Uiso   1.00
C835   C     0.91080   0.18847   0.90546   0.00000  Uiso   1.00
C836   C     0.75758   0.18433   0.59243   0.00000  Uiso   1.00
C837   C     0.88828   0.18698   0.95205   0.00000  Uiso   1.00
C838   C     0.77299   0.19332   0.54582   0.00000  Uiso   1.00
C839   C     0.91673   0.17353   0.97902   0.00000  Uiso   1.00
C840   C     0.73889   0.18914   0.52206   0.00000  Uiso   1.00
C841   C     0.83810   0.19589   0.97343   0.00000  Uiso   1.00
C842   C     0.82258   0.20036   0.52134   0.00000  Uiso   1.00
C843   C     0.85849   0.20421   0.54346   0.00000  Uiso   1.00
C844   C     0.80195   0.19490   0.95062   0.00000  Uiso   1.00
C845   C     0.90287   0.18473   0.52434   0.00000  Uiso   1.00
C846   C     0.75292   0.19413   0.97549   0.00000  Uiso   1.00
H847   H     0.92706   0.18097   0.54424   0.00000  Uiso   1.00
H848   H     0.72608   0.19101   0.95765   0.00000  Uiso   1.00
H849   H     0.78255   0.18591   0.61200   0.00000  Uiso   1.00
H850   H     0.89516   0.20653   0.88418   0.00000  Uiso   1.00
H851   H     0.97576   0.13366   0.98083   0.00000  Uiso   1.00
H852   H     0.66884   0.16844   0.52426   0.00000  Uiso   1.00
C853   C     0.95822   0.02132   0.74883   0.00000  Uiso   1.00
C854   C     0.70862   0.31204   0.75062   0.00000  Uiso   1.00
H855   H     0.92549   0.03733   0.74808   0.00000  Uiso   1.00
H856   H     0.74136   0.29604   0.75133   0.00000  Uiso   1.00
C857   C     0.95821   0.31205   0.74886   0.00000  Uiso   1.00
C858   C     0.70862   0.02130   0.75059   0.00000  Uiso   1.00
H859   H     0.92548   0.29605   0.74813   0.00000  Uiso   1.00
H860   H     0.74135   0.03730   0.75132   0.00000  Uiso   1.00
C861   C     0.66673   0.29056   0.74980   0.00000  Uiso   1.00
C862   C     0.66673   0.04279   0.74976   0.00000  Uiso   1.00
C863   C     0.85128   0.13588   0.77067   0.00000  Uiso   1.00
C864   C     0.81547   0.19734   0.72910   0.00000  Uiso   1.00
H865   H     0.86410   0.11117   0.78748   0.00000  Uiso   1.00
H866   H     0.80270   0.22193   0.71207   0.00000  Uiso   1.00
C867   C     0.80201   0.13576   0.77039   0.00000  Uiso   1.00
C868   C     0.86485   0.19733   0.72911   0.00000  Uiso   1.00
H869   H     0.77842   0.11075   0.78663   0.00000  Uiso   1.00
H870   H     0.88875   0.22190   0.71207   0.00000  Uiso   1.00
N871   N     0.78403   0.16668   0.74999   0.00000  Uiso   1.00
N872   N     0.88264   0.16666   0.75001   0.00000  Uiso   1.00
S873   S     0.96054   0.12886   0.60849   0.00000  Uiso   1.00
O874   O     0.91724   0.15407   0.63362   0.00000  Uiso   1.00
O875   O     0.94967   0.10783   0.56973   0.00000  Uiso   1.00
O876   O     0.97130   0.09263   0.64303   0.00000  Uiso   1.00
H877   H     0.93902   0.08054   0.65859   0.00000  Uiso   1.00
S878   S     0.69314   0.11179   0.89123   0.00000  Uiso   1.00
O879   O     0.73821   0.13678   0.87071   0.00000  Uiso   1.00
O880   O     0.70082   0.08500   0.92794   0.00000  Uiso   1.00
O881   O     0.68197   0.08179   0.85162   0.00000  Uiso   1.00
H882   H     0.71110   0.06405   0.84081   0.00000  Uiso   1.00
N883   N     0.85134   0.22953   0.58283   0.00000  Uiso   1.00
O884   O     0.81915   0.25891   0.59110   0.00000  Uiso   1.00
O885   O     0.88151   0.22769   0.60653   0.00000  Uiso   1.00
N886   N     0.81297   0.18708   0.90347   0.00000  Uiso   1.00
O887   O     0.79770   0.21250   0.87833   0.00000  Uiso   1.00
O888   O     0.82805   0.15070   0.88801   0.00000  Uiso   1.00
O889   O     0.03958   0.43989   0.75000   0.00000  Uiso   1.00
O890   O     0.29375   0.56011   0.75000   0.00000  Uiso   1.00
O891   O     0.29372   0.43988   0.75000   0.00000  Uiso   1.00
O892   O     0.03961   0.56012   0.75000   0.00000  Uiso   1.00
C893   C     0.00002   0.42078   0.74989   0.00000  Uiso   1.00
C894   C     0.00003   0.57922   0.74993   0.00000  Uiso   1.00
O895   O     0.01852   0.50001   0.81491   0.00000  Uiso   1.00
O896   O     0.31481   0.49999   0.68509   0.00000  Uiso   1.00
O897   O     0.27267   0.50000   0.81492   0.00000  Uiso   1.00
O898   O     0.06067   0.50000   0.68508   0.00000  Uiso   1.00
C899   C     0.30529   0.49960   0.83607   0.00000  Uiso   1.00
C900   C     0.02792   0.49963   0.66382   0.00000  Uiso   1.00
Cu901  Cu    0.04689   0.50001   0.75000   0.00000  Uiso   1.00
Cu902  Cu    0.28645   0.49999   0.75000   0.00000  Uiso   1.00
C903   C     0.28772   0.50063   0.88549   0.00000  Uiso   1.00
C904   C     0.04373   0.50331   0.61433   0.00000  Uiso   1.00
C905   C     0.29213   0.48368   0.95973   0.00000  Uiso   1.00
C906   C     0.02584   0.50738   0.54381   0.00000  Uiso   1.00
C907   C     0.31035   0.47902   0.91311   0.00000  Uiso   1.00
C908   C     0.01226   0.49472   0.58862   0.00000  Uiso   1.00
C909   C     0.24413   0.52180   0.90546   0.00000  Uiso   1.00
C910   C     0.09091   0.51766   0.59243   0.00000  Uiso   1.00
C911   C     0.22161   0.52032   0.95205   0.00000  Uiso   1.00
C912   C     0.10633   0.52665   0.54582   0.00000  Uiso   1.00
C913   C     0.25006   0.50687   0.97902   0.00000  Uiso   1.00
C914   C     0.07222   0.52247   0.52206   0.00000  Uiso   1.00
C915   C     0.17144   0.52922   0.97343   0.00000  Uiso   1.00
C916   C     0.15591   0.53370   0.52134   0.00000  Uiso   1.00
C917   C     0.19183   0.53754   0.54346   0.00000  Uiso   1.00
C918   C     0.13528   0.52824   0.95062   0.00000  Uiso   1.00
C919   C     0.23621   0.51806   0.52434   0.00000  Uiso   1.00
C920   C     0.08625   0.52746   0.97549   0.00000  Uiso   1.00
H921   H     0.26040   0.51430   0.54424   0.00000  Uiso   1.00
H922   H     0.05941   0.52434   0.95765   0.00000  Uiso   1.00
H923   H     0.11588   0.51925   0.61200   0.00000  Uiso   1.00
H924   H     0.22850   0.53987   0.88418   0.00000  Uiso   1.00
H925   H     0.30909   0.46699   0.98083   0.00000  Uiso   1.00
H926   H     0.00218   0.50177   0.52426   0.00000  Uiso   1.00
C927   C     0.29155   0.35465   0.74883   0.00000  Uiso   1.00
C928   C     0.04195   0.64537   0.75062   0.00000  Uiso   1.00
H929   H     0.25883   0.37066   0.74808   0.00000  Uiso   1.00
H930   H     0.07469   0.62937   0.75133   0.00000  Uiso   1.00
C931   C     0.29155   0.64538   0.74886   0.00000  Uiso   1.00
C932   C     0.04195   0.35464   0.75059   0.00000  Uiso   1.00
H933   H     0.25882   0.62938   0.74813   0.00000  Uiso   1.00
H934   H     0.07468   0.37064   0.75132   0.00000  Uiso   1.00
C935   C     0.00007   0.62389   0.74980   0.00000  Uiso   1.00
C936   C     0.00007   0.37613   0.74976   0.00000  Uiso   1.00
C937   C     0.18461   0.46922   0.77067   0.00000  Uiso   1.00
C938   C     0.14880   0.53067   0.72910   0.00000  Uiso   1.00
H939   H     0.19744   0.44450   0.78748   0.00000  Uiso   1.00
H940   H     0.13604   0.55527   0.71207   0.00000  Uiso   1.00
C941   C     0.13534   0.46909   0.77039   0.00000  Uiso   1.00
C942   C     0.19818   0.53066   0.72911   0.00000  Uiso   1.00
H943   H     0.11175   0.44408   0.78663   0.00000  Uiso   1.00
H944   H     0.22208   0.55523   0.71207   0.00000  Uiso   1.00
N945   N     0.11736   0.50001   0.74999   0.00000  Uiso   1.00
N946   N     0.21597   0.49999   0.75001   0.00000  Uiso   1.00
S947   S     0.29387   0.46219   0.60849   0.00000  Uiso   1.00
O948   O     0.25057   0.48741   0.63362   0.00000  Uiso   1.00
O949   O     0.28300   0.44117   0.56973   0.00000  Uiso   1.00
O950   O     0.30464   0.42596   0.64303   0.00000  Uiso   1.00
H951   H     0.27235   0.41387   0.65859   0.00000  Uiso   1.00
S952   S     0.02647   0.44512   0.89123   0.00000  Uiso   1.00
O953   O     0.07154   0.47011   0.87071   0.00000  Uiso   1.00
O954   O     0.03416   0.41833   0.92794   0.00000  Uiso   1.00
O955   O     0.01530   0.41513   0.85162   0.00000  Uiso   1.00
H956   H     0.04444   0.39739   0.84081   0.00000  Uiso   1.00
N957   N     0.18468   0.56286   0.58283   0.00000  Uiso   1.00
O958   O     0.15248   0.59224   0.59110   0.00000  Uiso   1.00
O959   O     0.21485   0.56102   0.60653   0.00000  Uiso   1.00
N960   N     0.14630   0.52041   0.90347   0.00000  Uiso   1.00
O961   O     0.13103   0.54583   0.87833   0.00000  Uiso   1.00
O962   O     0.16139   0.48403   0.88801   0.00000  Uiso   1.00
O963   O     0.37291   0.43989   0.75000   0.00000  Uiso   1.00
O964   O     0.62709   0.56011   0.75000   0.00000  Uiso   1.00
O965   O     0.62706   0.43988   0.75000   0.00000  Uiso   1.00
O966   O     0.37294   0.56012   0.75000   0.00000  Uiso   1.00
C967   C     0.33335   0.42078   0.74989   0.00000  Uiso   1.00
C968   C     0.33337   0.57922   0.74993   0.00000  Uiso   1.00
O969   O     0.35186   0.50001   0.81491   0.00000  Uiso   1.00
O970   O     0.64814   0.49999   0.68509   0.00000  Uiso   1.00
O971   O     0.60600   0.50000   0.81492   0.00000  Uiso   1.00
O972   O     0.39400   0.50000   0.68508   0.00000  Uiso   1.00
C973   C     0.63862   0.49960   0.83607   0.00000  Uiso   1.00
C974   C     0.36126   0.49963   0.66382   0.00000  Uiso   1.00
Cu975  Cu    0.38022   0.50001   0.75000   0.00000  Uiso   1.00
Cu976  Cu    0.61978   0.49999   0.75000   0.00000  Uiso   1.00
C977   C     0.62106   0.50063   0.88549   0.00000  Uiso   1.00
C978   C     0.37706   0.50331   0.61433   0.00000  Uiso   1.00
C979   C     0.62547   0.48368   0.95973   0.00000  Uiso   1.00
C980   C     0.35917   0.50738   0.54381   0.00000  Uiso   1.00
C981   C     0.64368   0.47902   0.91311   0.00000  Uiso   1.00
C982   C     0.34559   0.49472   0.58862   0.00000  Uiso   1.00
C983   C     0.57746   0.52180   0.90546   0.00000  Uiso   1.00
C984   C     0.42424   0.51766   0.59243   0.00000  Uiso   1.00
C985   C     0.55495   0.52032   0.95205   0.00000  Uiso   1.00
C986   C     0.43966   0.52665   0.54582   0.00000  Uiso   1.00
C987   C     0.58339   0.50687   0.97902   0.00000  Uiso   1.00
C988   C     0.40556   0.52247   0.52206   0.00000  Uiso   1.00
C989   C     0.50477   0.52922   0.97343   0.00000  Uiso   1.00
C990   C     0.48924   0.53370   0.52134   0.00000  Uiso   1.00
C991   C     0.52516   0.53754   0.54346   0.00000  Uiso   1.00
C992   C     0.46862   0.52824   0.95062   0.00000  Uiso   1.00
C993   C     0.56954   0.51806   0.52434   0.00000  Uiso   1.00
C994   C     0.41959   0.52746   0.97549   0.00000  Uiso   1.00
H995   H     0.59373   0.51430   0.54424   0.00000  Uiso   1.00
H996   H     0.39275   0.52434   0.95765   0.00000  Uiso   1.00
H997   H     0.44922   0.51925   0.61200   0.00000  Uiso   1.00
H998   H     0.56183   0.53987   0.88418   0.00000  Uiso   1.00
H999   H     0.64242   0.46699   0.98083   0.00000  Uiso   1.00
H1000  H     0.33551   0.50177   0.52426   0.00000  Uiso   1.00
C1001  C     0.62489   0.35465   0.74883   0.00000  Uiso   1.00
C1002  C     0.37529   0.64537   0.75062   0.00000  Uiso   1.00
H1003  H     0.59216   0.37066   0.74808   0.00000  Uiso   1.00
H1004  H     0.40803   0.62937   0.75133   0.00000  Uiso   1.00
C1005  C     0.62488   0.64538   0.74886   0.00000  Uiso   1.00
C1006  C     0.37529   0.35464   0.75059   0.00000  Uiso   1.00
H1007  H     0.59215   0.62938   0.74813   0.00000  Uiso   1.00
H1008  H     0.40802   0.37064   0.75132   0.00000  Uiso   1.00
C1009  C     0.33340   0.62389   0.74980   0.00000  Uiso   1.00
C1010  C     0.33340   0.37613   0.74976   0.00000  Uiso   1.00
C1011  C     0.51794   0.46922   0.77067   0.00000  Uiso   1.00
C1012  C     0.48214   0.53067   0.72910   0.00000  Uiso   1.00
H1013  H     0.53077   0.44450   0.78748   0.00000  Uiso   1.00
H1014  H     0.46937   0.55527   0.71207   0.00000  Uiso   1.00
C1015  C     0.46868   0.46909   0.77039   0.00000  Uiso   1.00
C1016  C     0.53151   0.53066   0.72911   0.00000  Uiso   1.00
H1017  H     0.44508   0.44408   0.78663   0.00000  Uiso   1.00
H1018  H     0.55542   0.55523   0.71207   0.00000  Uiso   1.00
N1019  N     0.45069   0.50001   0.74999   0.00000  Uiso   1.00
N1020  N     0.54931   0.49999   0.75001   0.00000  Uiso   1.00
S1021  S     0.62720   0.46219   0.60849   0.00000  Uiso   1.00
O1022  O     0.58391   0.48741   0.63362   0.00000  Uiso   1.00
O1023  O     0.61634   0.44117   0.56973   0.00000  Uiso   1.00
O1024  O     0.63797   0.42596   0.64303   0.00000  Uiso   1.00
H1025  H     0.60568   0.41387   0.65859   0.00000  Uiso   1.00
S1026  S     0.35980   0.44512   0.89123   0.00000  Uiso   1.00
O1027  O     0.40488   0.47011   0.87071   0.00000  Uiso   1.00
O1028  O     0.36749   0.41833   0.92794   0.00000  Uiso   1.00
O1029  O     0.34864   0.41513   0.85162   0.00000  Uiso   1.00
H1030  H     0.37777   0.39739   0.84081   0.00000  Uiso   1.00
N1031  N     0.51801   0.56286   0.58283   0.00000  Uiso   1.00
O1032  O     0.48581   0.59224   0.59110   0.00000  Uiso   1.00
O1033  O     0.54818   0.56102   0.60653   0.00000  Uiso   1.00
N1034  N     0.47964   0.52041   0.90347   0.00000  Uiso   1.00
O1035  O     0.46437   0.54583   0.87833   0.00000  Uiso   1.00
O1036  O     0.49472   0.48403   0.88801   0.00000  Uiso   1.00
O1037  O     0.70625   0.43989   0.75000   0.00000  Uiso   1.00
O1038  O     0.96042   0.56011   0.75000   0.00000  Uiso   1.00
O1039  O     0.96039   0.43988   0.75000   0.00000  Uiso   1.00
O1040  O     0.70628   0.56012   0.75000   0.00000  Uiso   1.00
C1041  C     0.66669   0.42078   0.74989   0.00000  Uiso   1.00
C1042  C     0.66670   0.57922   0.74993   0.00000  Uiso   1.00
O1043  O     0.68519   0.50001   0.81491   0.00000  Uiso   1.00
O1044  O     0.98148   0.49999   0.68509   0.00000  Uiso   1.00
O1045  O     0.93933   0.50000   0.81492   0.00000  Uiso   1.00
O1046  O     0.72733   0.50000   0.68508   0.00000  Uiso   1.00
C1047  C     0.97196   0.49960   0.83607   0.00000  Uiso   1.00
C1048  C     0.69459   0.49963   0.66382   0.00000  Uiso   1.00
Cu1049 Cu    0.71355   0.50001   0.75000   0.00000  Uiso   1.00
Cu1050 Cu    0.95311   0.49999   0.75000   0.00000  Uiso   1.00
C1051  C     0.95439   0.50063   0.88549   0.00000  Uiso   1.00
C1052  C     0.71039   0.50331   0.61433   0.00000  Uiso   1.00
C1053  C     0.95880   0.48368   0.95973   0.00000  Uiso   1.00
C1054  C     0.69251   0.50738   0.54381   0.00000  Uiso   1.00
C1055  C     0.97702   0.47902   0.91311   0.00000  Uiso   1.00
C1056  C     0.67893   0.49472   0.58862   0.00000  Uiso   1.00
C1057  C     0.91080   0.52180   0.90546   0.00000  Uiso   1.00
C1058  C     0.75758   0.51766   0.59243   0.00000  Uiso   1.00
C1059  C     0.88828   0.52032   0.95205   0.00000  Uiso   1.00
C1060  C     0.77299   0.52665   0.54582   0.00000  Uiso   1.00
C1061  C     0.91673   0.50687   0.97902   0.00000  Uiso   1.00
C1062  C     0.73889   0.52247   0.52206   0.00000  Uiso   1.00
C1063  C     0.83810   0.52922   0.97343   0.00000  Uiso   1.00
C1064  C     0.82258   0.53370   0.52134   0.00000  Uiso   1.00
C1065  C     0.85849   0.53754   0.54346   0.00000  Uiso   1.00
C1066  C     0.80195   0.52824   0.95062   0.00000  Uiso   1.00
C1067  C     0.90287   0.51806   0.52434   0.00000  Uiso   1.00
C1068  C     0.75292   0.52746   0.97549   0.00000  Uiso   1.00
H1069  H     0.92706   0.51430   0.54424   0.00000  Uiso   1.00
H1070  H     0.72608   0.52434   0.95765   0.00000  Uiso   1.00
H1071  H     0.78255   0.51925   0.61200   0.00000  Uiso   1.00
H1072  H     0.89516   0.53987   0.88418   0.00000  Uiso   1.00
H1073  H     0.97576   0.46699   0.98083   0.00000  Uiso   1.00
H1074  H     0.66884   0.50177   0.52426   0.00000  Uiso   1.00
C1075  C     0.95822   0.35465   0.74883   0.00000  Uiso   1.00
C1076  C     0.70862   0.64537   0.75062   0.00000  Uiso   1.00
H1077  H     0.92549   0.37066   0.74808   0.00000  Uiso   1.00
H1078  H     0.74136   0.62937   0.75133   0.00000  Uiso   1.00
C1079  C     0.95821   0.64538   0.74886   0.00000  Uiso   1.00
C1080  C     0.70862   0.35464   0.75059   0.00000  Uiso   1.00
H1081  H     0.92548   0.62938   0.74813   0.00000  Uiso   1.00
H1082  H     0.74135   0.37064   0.75132   0.00000  Uiso   1.00
C1083  C     0.66673   0.62389   0.74980   0.00000  Uiso   1.00
C1084  C     0.66673   0.37613   0.74976   0.00000  Uiso   1.00
C1085  C     0.85128   0.46922   0.77067   0.00000  Uiso   1.00
C1086  C     0.81547   0.53067   0.72910   0.00000  Uiso   1.00
H1087  H     0.86410   0.44450   0.78748   0.00000  Uiso   1.00
H1088  H     0.80270   0.55527   0.71207   0.00000  Uiso   1.00
C1089  C     0.80201   0.46909   0.77039   0.00000  Uiso   1.00
C1090  C     0.86485   0.53066   0.72911   0.00000  Uiso   1.00
H1091  H     0.77842   0.44408   0.78663   0.00000  Uiso   1.00
H1092  H     0.88875   0.55523   0.71207   0.00000  Uiso   1.00
N1093  N     0.78403   0.50001   0.74999   0.00000  Uiso   1.00
N1094  N     0.88264   0.49999   0.75001   0.00000  Uiso   1.00
S1095  S     0.96054   0.46219   0.60849   0.00000  Uiso   1.00
O1096  O     0.91724   0.48741   0.63362   0.00000  Uiso   1.00
O1097  O     0.94967   0.44117   0.56973   0.00000  Uiso   1.00
O1098  O     0.97130   0.42596   0.64303   0.00000  Uiso   1.00
H1099  H     0.93902   0.41387   0.65859   0.00000  Uiso   1.00
S1100  S     0.69314   0.44512   0.89123   0.00000  Uiso   1.00
O1101  O     0.73821   0.47011   0.87071   0.00000  Uiso   1.00
O1102  O     0.70082   0.41833   0.92794   0.00000  Uiso   1.00
O1103  O     0.68197   0.41513   0.85162   0.00000  Uiso   1.00
H1104  H     0.71110   0.39739   0.84081   0.00000  Uiso   1.00
N1105  N     0.85134   0.56286   0.58283   0.00000  Uiso   1.00
O1106  O     0.81915   0.59224   0.59110   0.00000  Uiso   1.00
O1107  O     0.88151   0.56102   0.60653   0.00000  Uiso   1.00
N1108  N     0.81297   0.52041   0.90347   0.00000  Uiso   1.00
O1109  O     0.79770   0.54583   0.87833   0.00000  Uiso   1.00
O1110  O     0.82805   0.48403   0.88801   0.00000  Uiso   1.00
O1111  O     0.03958   0.77322   0.75000   0.00000  Uiso   1.00
O1112  O     0.29375   0.89345   0.75000   0.00000  Uiso   1.00
O1113  O     0.29372   0.77321   0.75000   0.00000  Uiso   1.00
O1114  O     0.03961   0.89346   0.75000   0.00000  Uiso   1.00
C1115  C     0.00002   0.75412   0.74989   0.00000  Uiso   1.00
C1116  C     0.00003   0.91255   0.74993   0.00000  Uiso   1.00
O1117  O     0.01852   0.83334   0.81491   0.00000  Uiso   1.00
O1118  O     0.31481   0.83332   0.68509   0.00000  Uiso   1.00
O1119  O     0.27267   0.83333   0.81492   0.00000  Uiso   1.00
O1120  O     0.06067   0.83333   0.68508   0.00000  Uiso   1.00
C1121  C     0.30529   0.83293   0.83607   0.00000  Uiso   1.00
C1122  C     0.02792   0.83296   0.66382   0.00000  Uiso   1.00
Cu1123 Cu    0.04689   0.83334   0.75000   0.00000  Uiso   1.00
Cu1124 Cu    0.28645   0.83333   0.75000   0.00000  Uiso   1.00
C1125  C     0.28772   0.83396   0.88549   0.00000  Uiso   1.00
C1126  C     0.04373   0.83664   0.61433   0.00000  Uiso   1.00
C1127  C     0.29213   0.81701   0.95973   0.00000  Uiso   1.00
C1128  C     0.02584   0.84072   0.54381   0.00000  Uiso   1.00
C1129  C     0.31035   0.81235   0.91311   0.00000  Uiso   1.00
C1130  C     0.01226   0.82805   0.58862   0.00000  Uiso   1.00
C1131  C     0.24413   0.85514   0.90546   0.00000  Uiso   1.00
C1132  C     0.09091   0.85099   0.59243   0.00000  Uiso   1.00
C1133  C     0.22161   0.85365   0.95205   0.00000  Uiso   1.00
C1134  C     0.10633   0.85999   0.54582   0.00000  Uiso   1.00
C1135  C     0.25006   0.84020   0.97902   0.00000  Uiso   1.00
C1136  C     0.07222   0.85581   0.52206   0.00000  Uiso   1.00
C1137  C     0.17144   0.86256   0.97343   0.00000  Uiso   1.00
C1138  C     0.15591   0.86703   0.52134   0.00000  Uiso   1.00
C1139  C     0.19183   0.87088   0.54346   0.00000  Uiso   1.00
C1140  C     0.13528   0.86157   0.95062   0.00000  Uiso   1.00
C1141  C     0.23621   0.85140   0.52434   0.00000  Uiso   1.00
C1142  C     0.08625   0.86079   0.97549   0.00000  Uiso   1.00
H1143  H     0.26040   0.84764   0.54424   0.00000  Uiso   1.00
H1144  H     0.05941   0.85767   0.95765   0.00000  Uiso   1.00
H1145  H     0.11588   0.85258   0.61200   0.00000  Uiso   1.00
H1146  H     0.22850   0.87320   0.88418   0.00000  Uiso   1.00
H1147  H     0.30909   0.80033   0.98083   0.00000  Uiso   1.00
H1148  H     0.00218   0.83511   0.52426   0.00000  Uiso   1.00
C1149  C     0.29155   0.68798   0.74883   0.00000  Uiso   1.00
C1150  C     0.04195   0.97871   0.75062   0.00000  Uiso   1.00
H1151  H     0.25883   0.70400   0.74808   0.00000  Uiso   1.00
H1152  H     0.07469   0.96271   0.75133   0.00000  Uiso   1.00
C1153  C     0.29155   0.97872   0.74886   0.00000  Uiso   1.00
C1154  C     0.04195   0.68797   0.75059   0.00000  Uiso   1.00
H1155  H     0.25882   0.96272   0.74813   0.00000  Uiso   1.00
H1156  H     0.07468   0.70397   0.75132   0.00000  Uiso   1.00
C1157  C     0.00007   0.95723   0.74980   0.00000  Uiso   1.00
C1158  C     0.00007   0.70946   0.74976   0.00000  Uiso   1.00
C1159  C     0.18461   0.80255   0.77067   0.00000  Uiso   1.00
C1160  C     0.14880   0.86400   0.72910   0.00000  Uiso   1.00
H1161  H     0.19744   0.77783   0.78748   0.00000  Uiso   1.00
H1162  H     0.13604   0.88860   0.71207   0.00000  Uiso   1.00
C1163  C     0.13534   0.80243   0.77039   0.00000  Uiso   1.00
C1164  C     0.19818   0.86399   0.72911   0.00000  Uiso   1.00
H1165  H     0.11175   0.77741   0.78663   0.00000  Uiso   1.00
H1166  H     0.22208   0.88857   0.71207   0.00000  Uiso   1.00
N1167  N     0.11736   0.83334   0.74999   0.00000  Uiso   1.00
N1168  N     0.21597   0.83332   0.75001   0.00000  Uiso   1.00
S1169  S     0.29387   0.79553   0.60849   0.00000  Uiso   1.00
O1170  O     0.25057   0.82074   0.63362   0.00000  Uiso   1.00
O1171  O     0.28300   0.77450   0.56973   0.00000  Uiso   1.00
O1172  O     0.30464   0.75930   0.64303   0.00000  Uiso   1.00
H1173  H     0.27235   0.74721   0.65859   0.00000  Uiso   1.00
S1174  S     0.02647   0.77845   0.89123   0.00000  Uiso   1.00
O1175  O     0.07154   0.80344   0.87071   0.00000  Uiso   1.00
O1176  O     0.03416   0.75167   0.92794   0.00000  Uiso   1.00
O1177  O     0.01530   0.74846   0.85162   0.00000  Uiso   1.00
H1178  H     0.04444   0.73072   0.84081   0.00000  Uiso   1.00
N1179  N     0.18468   0.89619   0.58283   0.00000  Uiso   1.00
O1180  O     0.15248   0.92557   0.59110   0.00000  Uiso   1.00
O1181  O     0.21485   0.89436   0.60653   0.00000  Uiso   1.00
N1182  N     0.14630   0.85374   0.90347   0.00000  Uiso   1.00
O1183  O     0.13103   0.87916   0.87833   0.00000  Uiso   1.00
O1184  O     0.16139   0.81737   0.88801   0.00000  Uiso   1.00
O1185  O     0.37291   0.77322   0.75000   0.00000  Uiso   1.00
O1186  O     0.62709   0.89345   0.75000   0.00000  Uiso   1.00
O1187  O     0.62706   0.77321   0.75000   0.00000  Uiso   1.00
O1188  O     0.37294   0.89346   0.75000   0.00000  Uiso   1.00
C1189  C     0.33335   0.75412   0.74989   0.00000  Uiso   1.00
C1190  C     0.33337   0.91255   0.74993   0.00000  Uiso   1.00
O1191  O     0.35186   0.83334   0.81491   0.00000  Uiso   1.00
O1192  O     0.64814   0.83332   0.68509   0.00000  Uiso   1.00
O1193  O     0.60600   0.83333   0.81492   0.00000  Uiso   1.00
O1194  O     0.39400   0.83333   0.68508   0.00000  Uiso   1.00
C1195  C     0.63862   0.83293   0.83607   0.00000  Uiso   1.00
C1196  C     0.36126   0.83296   0.66382   0.00000  Uiso   1.00
Cu1197 Cu    0.38022   0.83334   0.75000   0.00000  Uiso   1.00
Cu1198 Cu    0.61978   0.83333   0.75000   0.00000  Uiso   1.00
C1199  C     0.62106   0.83396   0.88549   0.00000  Uiso   1.00
C1200  C     0.37706   0.83664   0.61433   0.00000  Uiso   1.00
C1201  C     0.62547   0.81701   0.95973   0.00000  Uiso   1.00
C1202  C     0.35917   0.84072   0.54381   0.00000  Uiso   1.00
C1203  C     0.64368   0.81235   0.91311   0.00000  Uiso   1.00
C1204  C     0.34559   0.82805   0.58862   0.00000  Uiso   1.00
C1205  C     0.57746   0.85514   0.90546   0.00000  Uiso   1.00
C1206  C     0.42424   0.85099   0.59243   0.00000  Uiso   1.00
C1207  C     0.55495   0.85365   0.95205   0.00000  Uiso   1.00
C1208  C     0.43966   0.85999   0.54582   0.00000  Uiso   1.00
C1209  C     0.58339   0.84020   0.97902   0.00000  Uiso   1.00
C1210  C     0.40556   0.85581   0.52206   0.00000  Uiso   1.00
C1211  C     0.50477   0.86256   0.97343   0.00000  Uiso   1.00
C1212  C     0.48924   0.86703   0.52134   0.00000  Uiso   1.00
C1213  C     0.52516   0.87088   0.54346   0.00000  Uiso   1.00
C1214  C     0.46862   0.86157   0.95062   0.00000  Uiso   1.00
C1215  C     0.56954   0.85140   0.52434   0.00000  Uiso   1.00
C1216  C     0.41959   0.86079   0.97549   0.00000  Uiso   1.00
H1217  H     0.59373   0.84764   0.54424   0.00000  Uiso   1.00
H1218  H     0.39275   0.85767   0.95765   0.00000  Uiso   1.00
H1219  H     0.44922   0.85258   0.61200   0.00000  Uiso   1.00
H1220  H     0.56183   0.87320   0.88418   0.00000  Uiso   1.00
H1221  H     0.64242   0.80033   0.98083   0.00000  Uiso   1.00
H1222  H     0.33551   0.83511   0.52426   0.00000  Uiso   1.00
C1223  C     0.62489   0.68798   0.74883   0.00000  Uiso   1.00
C1224  C     0.37529   0.97871   0.75062   0.00000  Uiso   1.00
H1225  H     0.59216   0.70400   0.74808   0.00000  Uiso   1.00
H1226  H     0.40803   0.96271   0.75133   0.00000  Uiso   1.00
C1227  C     0.62488   0.97872   0.74886   0.00000  Uiso   1.00
C1228  C     0.37529   0.68797   0.75059   0.00000  Uiso   1.00
H1229  H     0.59215   0.96272   0.74813   0.00000  Uiso   1.00
H1230  H     0.40802   0.70397   0.75132   0.00000  Uiso   1.00
C1231  C     0.33340   0.95723   0.74980   0.00000  Uiso   1.00
C1232  C     0.33340   0.70946   0.74976   0.00000  Uiso   1.00
C1233  C     0.51794   0.80255   0.77067   0.00000  Uiso   1.00
C1234  C     0.48214   0.86400   0.72910   0.00000  Uiso   1.00
H1235  H     0.53077   0.77783   0.78748   0.00000  Uiso   1.00
H1236  H     0.46937   0.88860   0.71207   0.00000  Uiso   1.00
C1237  C     0.46868   0.80243   0.77039   0.00000  Uiso   1.00
C1238  C     0.53151   0.86399   0.72911   0.00000  Uiso   1.00
H1239  H     0.44508   0.77741   0.78663   0.00000  Uiso   1.00
H1240  H     0.55542   0.88857   0.71207   0.00000  Uiso   1.00
N1241  N     0.45069   0.83334   0.74999   0.00000  Uiso   1.00
N1242  N     0.54931   0.83332   0.75001   0.00000  Uiso   1.00
S1243  S     0.62720   0.79553   0.60849   0.00000  Uiso   1.00
O1244  O     0.58391   0.82074   0.63362   0.00000  Uiso   1.00
O1245  O     0.61634   0.77450   0.56973   0.00000  Uiso   1.00
O1246  O     0.63797   0.75930   0.64303   0.00000  Uiso   1.00
H1247  H     0.60568   0.74721   0.65859   0.00000  Uiso   1.00
S1248  S     0.35980   0.77845   0.89123   0.00000  Uiso   1.00
O1249  O     0.40488   0.80344   0.87071   0.00000  Uiso   1.00
O1250  O     0.36749   0.75167   0.92794   0.00000  Uiso   1.00
O1251  O     0.34864   0.74846   0.85162   0.00000  Uiso   1.00
H1252  H     0.37777   0.73072   0.84081   0.00000  Uiso   1.00
N1253  N     0.51801   0.89619   0.58283   0.00000  Uiso   1.00
O1254  O     0.48581   0.92557   0.59110   0.00000  Uiso   1.00
O1255  O     0.54818   0.89436   0.60653   0.00000  Uiso   1.00
N1256  N     0.47964   0.85374   0.90347   0.00000  Uiso   1.00
O1257  O     0.46437   0.87916   0.87833   0.00000  Uiso   1.00
O1258  O     0.49472   0.81737   0.88801   0.00000  Uiso   1.00
O1259  O     0.70625   0.77322   0.75000   0.00000  Uiso   1.00
O1260  O     0.96042   0.89345   0.75000   0.00000  Uiso   1.00
O1261  O     0.96039   0.77321   0.75000   0.00000  Uiso   1.00
O1262  O     0.70628   0.89346   0.75000   0.00000  Uiso   1.00
C1263  C     0.66669   0.75412   0.74989   0.00000  Uiso   1.00
C1264  C     0.66670   0.91255   0.74993   0.00000  Uiso   1.00
O1265  O     0.68519   0.83334   0.81491   0.00000  Uiso   1.00
O1266  O     0.98148   0.83332   0.68509   0.00000  Uiso   1.00
O1267  O     0.93933   0.83333   0.81492   0.00000  Uiso   1.00
O1268  O     0.72733   0.83333   0.68508   0.00000  Uiso   1.00
C1269  C     0.97196   0.83293   0.83607   0.00000  Uiso   1.00
C1270  C     0.69459   0.83296   0.66382   0.00000  Uiso   1.00
Cu1271 Cu    0.71355   0.83334   0.75000   0.00000  Uiso   1.00
Cu1272 Cu    0.95311   0.83333   0.75000   0.00000  Uiso   1.00
C1273  C     0.95439   0.83396   0.88549   0.00000  Uiso   1.00
C1274  C     0.71039   0.83664   0.61433   0.00000  Uiso   1.00
C1275  C     0.95880   0.81701   0.95973   0.00000  Uiso   1.00
C1276  C     0.69251   0.84072   0.54381   0.00000  Uiso   1.00
C1277  C     0.97702   0.81235   0.91311   0.00000  Uiso   1.00
C1278  C     0.67893   0.82805   0.58862   0.00000  Uiso   1.00
C1279  C     0.91080   0.85514   0.90546   0.00000  Uiso   1.00
C1280  C     0.75758   0.85099   0.59243   0.00000  Uiso   1.00
C1281  C     0.88828   0.85365   0.95205   0.00000  Uiso   1.00
C1282  C     0.77299   0.85999   0.54582   0.00000  Uiso   1.00
C1283  C     0.91673   0.84020   0.97902   0.00000  Uiso   1.00
C1284  C     0.73889   0.85581   0.52206   0.00000  Uiso   1.00
C1285  C     0.83810   0.86256   0.97343   0.00000  Uiso   1.00
C1286  C     0.82258   0.86703   0.52134   0.00000  Uiso   1.00
C1287  C     0.85849   0.87088   0.54346   0.00000  Uiso   1.00
C1288  C     0.80195   0.86157   0.95062   0.00000  Uiso   1.00
C1289  C     0.90287   0.85140   0.52434   0.00000  Uiso   1.00
C1290  C     0.75292   0.86079   0.97549   0.00000  Uiso   1.00
H1291  H     0.92706   0.84764   0.54424   0.00000  Uiso   1.00
H1292  H     0.72608   0.85767   0.95765   0.00000  Uiso   1.00
H1293  H     0.78255   0.85258   0.61200   0.00000  Uiso   1.00
H1294  H     0.89516   0.87320   0.88418   0.00000  Uiso   1.00
H1295  H     0.97576   0.80033   0.98083   0.00000  Uiso   1.00
H1296  H     0.66884   0.83511   0.52426   0.00000  Uiso   1.00
C1297  C     0.95822   0.68798   0.74883   0.00000  Uiso   1.00
C1298  C     0.70862   0.97871   0.75062   0.00000  Uiso   1.00
H1299  H     0.92549   0.70400   0.74808   0.00000  Uiso   1.00
H1300  H     0.74136   0.96271   0.75133   0.00000  Uiso   1.00
C1301  C     0.95821   0.97872   0.74886   0.00000  Uiso   1.00
C1302  C     0.70862   0.68797   0.75059   0.00000  Uiso   1.00
H1303  H     0.92548   0.96272   0.74813   0.00000  Uiso   1.00
H1304  H     0.74135   0.70397   0.75132   0.00000  Uiso   1.00
C1305  C     0.66673   0.95723   0.74980   0.00000  Uiso   1.00
C1306  C     0.66673   0.70946   0.74976   0.00000  Uiso   1.00
C1307  C     0.85128   0.80255   0.77067   0.00000  Uiso   1.00
C1308  C     0.81547   0.86400   0.72910   0.00000  Uiso   1.00
H1309  H     0.86410   0.77783   0.78748   0.00000  Uiso   1.00
H1310  H     0.80270   0.88860   0.71207   0.00000  Uiso   1.00
C1311  C     0.80201   0.80243   0.77039   0.00000  Uiso   1.00
C1312  C     0.86485   0.86399   0.72911   0.00000  Uiso   1.00
H1313  H     0.77842   0.77741   0.78663   0.00000  Uiso   1.00
H1314  H     0.88875   0.88857   0.71207   0.00000  Uiso   1.00
N1315  N     0.78403   0.83334   0.74999   0.00000  Uiso   1.00
N1316  N     0.88264   0.83332   0.75001   0.00000  Uiso   1.00
S1317  S     0.96054   0.79553   0.60849   0.00000  Uiso   1.00
O1318  O     0.91724   0.82074   0.63362   0.00000  Uiso   1.00
O1319  O     0.94967   0.77450   0.56973   0.00000  Uiso   1.00
O1320  O     0.97130   0.75930   0.64303   0.00000  Uiso   1.00
H1321  H     0.93902   0.74721   0.65859   0.00000  Uiso   1.00
S1322  S     0.69314   0.77845   0.89123   0.00000  Uiso   1.00
O1323  O     0.73821   0.80344   0.87071   0.00000  Uiso   1.00
O1324  O     0.70082   0.75167   0.92794   0.00000  Uiso   1.00
O1325  O     0.68197   0.74846   0.85162   0.00000  Uiso   1.00
H1326  H     0.71110   0.73072   0.84081   0.00000  Uiso   1.00
N1327  N     0.85134   0.89619   0.58283   0.00000  Uiso   1.00
O1328  O     0.81915   0.92557   0.59110   0.00000  Uiso   1.00
O1329  O     0.88151   0.89436   0.60653   0.00000  Uiso   1.00
N1330  N     0.81297   0.85374   0.90347   0.00000  Uiso   1.00
O1331  O     0.79770   0.87916   0.87833   0.00000  Uiso   1.00
O1332  O     0.82805   0.81737   0.88801   0.00000  Uiso   1.00
loop_
_geom_bond_atom_site_label_1
_geom_bond_atom_site_label_2
_geom_bond_distance
_geom_bond_site_symmetry_2
_ccdc_geom_bond_type
O1     C5      1.299   .     A
O1     Cu13    1.964   .     S
O2     Cu14    1.964   .     S
O2     C80     1.299   .     S
O3     Cu14    1.964   .     S
O3     C79     1.299   .     S
O4     Cu13    1.964   .     S
O4     C6      1.299   .     A
C5     C48     1.450   .     S
C5     O151    1.299   1_455 S
C6     C47     1.451   .     S
C6     O150    1.299   1_455 S
O7     Cu13    1.940   .     S
O7     C159    1.305   1_455 S
O8     Cu14    1.940   .     S
O8     C86     1.302   .     S
O9     Cu14    1.941   .     S
O9     C11     1.301   .     A
O10    C12     1.307   .     A
O10    Cu13    1.941   .     S
C11    C15     1.470   .     S
C11    O81     1.305   .     S
C12    C16     1.475   .     S
C12    O156    1.302   1_455 S
Cu13   N57     2.031   .     S
Cu13   Cu162   2.702   1_455 S
Cu14   N58     2.031   .     S
Cu14   Cu87    2.702   .     S
C15    C19     1.412   .     A
C15    C21     1.403   .     A
C16    C20     1.408   .     A
C16    C22     1.403   .     A
C17    H37     1.075   .     S
C17    C25     1.401   .     A
C17    C19     1.397   .     A
C18    C26     1.392   .     A
C18    H38     1.059   .     S
C18    C20     1.393   .     A
C19    S138    1.768   .     S
C20    S207    1.777   1_455 S
C21    H36     1.079   .     S
C21    C23     1.401   .     A
C22    H35     1.076   .     S
C22    C24     1.415   .     A
C23    C27     1.428   .     A
C23    C25     1.408   .     A
C24    C26     1.405   .     A
C24    C28     1.420   .     A
C25    C697    1.397   .     S
C26    C698    1.393   1_554 S
C27    C30     1.428   .     A
C27    C694    1.432   .     S
C28    C29     1.412   .     A
C28    C693    1.432   1_554 S
C29    N69     1.442   .     S
C29    C31     1.391   .     A
C30    N72     1.431   .     S
C30    C32     1.392   .     A
C31    H33     1.071   .     S
C31    C691    1.397   1_554 S
C32    H34     1.085   .     S
C32    C692    1.393   .     S
C39    H41     1.083   .     S
C39    C487    1.384   1_545 S
C39    C122    1.401   .     S
C40    C47     1.401   .     A
C40    H42     1.083   .     S
C40    C266    1.383   .     S
C43    H45     1.083   .     S
C43    C261    1.384   .     S
C43    C121    1.401   .     S
C44    H46     1.083   .     S
C44    C48     1.401   .     A
C44    C484    1.383   1_545 S
C47    C191    1.401   1_455 S
C48    C187    1.401   1_455 S
C49    H51     1.081   .     S
C49    N58     1.369   .     A
C49    C53     1.422   .     A
C50    C54     1.423   .     A
C50    H52     1.082   .     S
C50    N57     1.370   .     A
C53    H55     1.081   .     S
C53    N57     1.369   .     A
C54    H56     1.082   .     S
C54    N58     1.370   .     A
S59    O60     1.502   .     D
S59    O61     1.503   .     D
S59    O62     1.683   .     S
S59    C94     1.777   .     S
O62    H63     0.991   .     S
S64    O67     1.681   .     S
S64    O65     1.500   .     D
S64    O66     1.504   .     D
S64    C167    1.768   1_455 S
O67    H68     0.990   .     S
N69    O71     1.301   .     A
N69    O70     1.302   .     A
N72    O74     1.302   .     A
N72    O73     1.301   .     A
O75    C79     1.299   .     A
O75    Cu87    1.964   .     S
O76    Cu88    1.964   .     S
O76    C154    1.299   .     S
O77    Cu88    1.964   .     S
O77    C153    1.299   .     S
O78    Cu87    1.964   .     S
O78    C80     1.299   .     A
C79    C122    1.450   .     S
C80    C121    1.451   .     S
O81    Cu87    1.940   .     S
O82    Cu88    1.940   .     S
O82    C160    1.302   .     S
O83    Cu88    1.941   .     S
O83    C85     1.301   .     A
O84    C86     1.307   .     A
O84    Cu87    1.941   .     S
C85    C89     1.470   .     S
C85    O155    1.305   .     S
C86    C90     1.475   .     S
Cu87   N131    2.031   .     S
Cu88   N132    2.031   .     S
Cu88   Cu161   2.702   .     S
C89    C93     1.412   .     A
C89    C95     1.403   .     A
C90    C94     1.408   .     A
C90    C96     1.403   .     A
C91    H111    1.075   .     S
C91    C99     1.401   .     A
C91    C93     1.397   .     A
C92    C100    1.392   .     A
C92    H112    1.059   .     S
C92    C94     1.393   .     A
C93    S212    1.768   .     S
C95    H110    1.079   .     S
C95    C97     1.401   .     A
C96    H109    1.076   .     S
C96    C98     1.415   .     A
C97    C101    1.428   .     A
C97    C99     1.408   .     A
C98    C100    1.405   .     A
C98    C102    1.420   .     A
C99    C771    1.397   .     S
C100   C772    1.393   1_554 S
C101   C104    1.428   .     A
C101   C768    1.432   .     S
C102   C103    1.412   .     A
C102   C767    1.432   1_554 S
C103   N143    1.442   .     S
C103   C105    1.391   .     A
C104   N146    1.431   .     S
C104   C106    1.392   .     A
C105   H107    1.071   .     S
C105   C765    1.397   1_554 S
C106   H108    1.085   .     S
C106   C766    1.393   .     S
C113   H115    1.083   .     S
C113   C561    1.384   1_545 S
C113   C196    1.401   .     S
C114   C121    1.401   .     A
C114   H116    1.083   .     S
C114   C340    1.383   .     S
C117   H119    1.083   .     S
C117   C335    1.384   .     S
C117   C195    1.401   .     S
C118   H120    1.083   .     S
C118   C122    1.401   .     A
C118   C558    1.383   1_545 S
C123   H125    1.081   .     S
C123   N132    1.369   .     A
C123   C127    1.422   .     A
C124   C128    1.423   .     A
C124   H126    1.082   .     S
C124   N131    1.370   .     A
C127   H129    1.081   .     S
C127   N131    1.369   .     A
C128   H130    1.082   .     S
C128   N132    1.370   .     A
S133   O134    1.502   .     D
S133   O135    1.503   .     D
S133   O136    1.683   .     S
S133   C168    1.777   .     S
O136   H137    0.991   .     S
S138   O141    1.681   .     S
S138   O139    1.500   .     D
S138   O140    1.504   .     D
O141   H142    0.990   .     S
N143   O145    1.301   .     A
N143   O144    1.302   .     A
N146   O148    1.302   .     A
N146   O147    1.301   .     A
O149   C153    1.299   .     A
O149   Cu161   1.964   .     S
O150   Cu162   1.964   .     S
O150   C6      1.299   1_655 S
O151   Cu162   1.964   .     S
O151   C5      1.299   1_655 S
O152   Cu161   1.964   .     S
O152   C154    1.299   .     A
C153   C196    1.450   .     S
C154   C195    1.451   .     S
O155   Cu161   1.940   .     S
O156   Cu162   1.940   .     S
O156   C12     1.302   1_655 S
O157   Cu162   1.941   .     S
O157   C159    1.301   .     A
O158   C160    1.307   .     A
O158   Cu161   1.941   .     S
C159   C163    1.470   .     S
C159   O7      1.305   1_655 S
C160   C164    1.475   .     S
Cu161  N205    2.031   .     S
Cu162  N206    2.031   .     S
Cu162  Cu13    2.702   1_655 S
C163   C167    1.412   .     A
C163   C169    1.403   .     A
C164   C168    1.408   .     A
C164   C170    1.403   .     A
C165   H185    1.075   .     S
C165   C173    1.401   .     A
C165   C167    1.397   .     A
C166   C174    1.392   .     A
C166   H186    1.059   .     S
C166   C168    1.393   .     A
C167   S64     1.768   1_655 S
C169   H184    1.079   .     S
C169   C171    1.401   .     A
C170   H183    1.076   .     S
C170   C172    1.415   .     A
C171   C175    1.428   .     A
C171   C173    1.408   .     A
C172   C174    1.405   .     A
C172   C176    1.420   .     A
C173   C845    1.397   .     S
C174   C846    1.393   1_554 S
C175   C178    1.428   .     A
C175   C842    1.432   .     S
C176   C177    1.412   .     A
C176   C841    1.432   1_554 S
C177   N217    1.442   .     S
C177   C179    1.391   .     A
C178   N220    1.431   .     S
C178   C180    1.392   .     A
C179   H181    1.071   .     S
C179   C839    1.397   1_554 S
C180   H182    1.085   .     S
C180   C840    1.393   .     S
C187   H189    1.083   .     S
C187   C635    1.384   1_545 S
C187   C48     1.401   1_655 S
C188   C195    1.401   .     A
C188   H190    1.083   .     S
C188   C414    1.383   .     S
C191   H193    1.083   .     S
C191   C409    1.384   .     S
C191   C47     1.401   1_655 S
C192   H194    1.083   .     S
C192   C196    1.401   .     A
C192   C632    1.383   1_545 S
C197   H199    1.081   .     S
C197   N206    1.369   .     A
C197   C201    1.422   .     A
C198   C202    1.423   .     A
C198   H200    1.082   .     S
C198   N205    1.370   .     A
C201   H203    1.081   .     S
C201   N205    1.369   .     A
C202   H204    1.082   .     S
C202   N206    1.370   .     A
S207   O208    1.502   .     D
S207   O209    1.503   .     D
S207   O210    1.683   .     S
S207   C20     1.777   1_655 S
O210   H211    0.991   .     S
S212   O215    1.681   .     S
S212   O213    1.500   .     D
S212   O214    1.504   .     D
O215   H216    0.990   .     S
N217   O219    1.301   .     A
N217   O218    1.302   .     A
N220   O222    1.302   .     A
N220   O221    1.301   .     A
O223   C227    1.299   .     A
O223   Cu235   1.964   .     S
O224   Cu236   1.964   .     S
O224   C302    1.299   .     S
O225   Cu236   1.964   .     S
O225   C301    1.299   .     S
O226   Cu235   1.964   .     S
O226   C228    1.299   .     A
C227   C270    1.450   .     S
C227   O373    1.299   1_455 S
C228   C269    1.451   .     S
C228   O372    1.299   1_455 S
O229   Cu235   1.940   .     S
O229   C381    1.305   1_455 S
O230   Cu236   1.940   .     S
O230   C308    1.302   .     S
O231   Cu236   1.941   .     S
O231   C233    1.301   .     A
O232   C234    1.307   .     A
O232   Cu235   1.941   .     S
C233   C237    1.470   .     S
C233   O303    1.305   .     S
C234   C238    1.475   .     S
C234   O378    1.302   1_455 S
Cu235  N279    2.031   .     S
Cu235  Cu384   2.702   1_455 S
Cu236  N280    2.031   .     S
Cu236  Cu309   2.702   .     S
C237   C241    1.412   .     A
C237   C243    1.403   .     A
C238   C242    1.408   .     A
C238   C244    1.403   .     A
C239   H259    1.075   .     S
C239   C247    1.401   .     A
C239   C241    1.397   .     A
C240   C248    1.392   .     A
C240   H260    1.059   .     S
C240   C242    1.393   .     A
C241   S360    1.768   .     S
C242   S429    1.777   1_455 S
C243   H258    1.079   .     S
C243   C245    1.401   .     A
C244   H257    1.076   .     S
C244   C246    1.415   .     A
C245   C249    1.428   .     A
C245   C247    1.408   .     A
C246   C248    1.405   .     A
C246   C250    1.420   .     A
C247   C919    1.397   .     S
C248   C920    1.393   1_554 S
C249   C252    1.428   .     A
C249   C916    1.432   .     S
C250   C251    1.412   .     A
C250   C915    1.432   1_554 S
C251   N291    1.442   .     S
C251   C253    1.391   .     A
C252   N294    1.431   .     S
C252   C254    1.392   .     A
C253   H255    1.071   .     S
C253   C913    1.397   1_554 S
C254   H256    1.085   .     S
C254   C914    1.393   .     S
C261   H263    1.083   .     S
C261   C344    1.401   .     S
C262   C269    1.401   .     A
C262   H264    1.083   .     S
C262   C488    1.383   .     S
C265   H267    1.083   .     S
C265   C483    1.384   .     S
C265   C343    1.401   .     S
C266   H268    1.083   .     S
C266   C270    1.401   .     A
C269   C413    1.401   1_455 S
C270   C409    1.401   1_455 S
C271   H273    1.081   .     S
C271   N280    1.369   .     A
C271   C275    1.422   .     A
C272   C276    1.423   .     A
C272   H274    1.082   .     S
C272   N279    1.370   .     A
C275   H277    1.081   .     S
C275   N279    1.369   .     A
C276   H278    1.082   .     S
C276   N280    1.370   .     A
S281   O282    1.502   .     D
S281   O283    1.503   .     D
S281   O284    1.683   .     S
S281   C316    1.777   .     S
O284   H285    0.991   .     S
S286   O289    1.681   .     S
S286   O287    1.500   .     D
S286   O288    1.504   .     D
S286   C389    1.768   1_455 S
O289   H290    0.990   .     S
N291   O293    1.301   .     A
N291   O292    1.302   .     A
N294   O296    1.302   .     A
N294   O295    1.301   .     A
O297   C301    1.299   .     A
O297   Cu309   1.964   .     S
O298   Cu310   1.964   .     S
O298   C376    1.299   .     S
O299   Cu310   1.964   .     S
O299   C375    1.299   .     S
O300   Cu309   1.964   .     S
O300   C302    1.299   .     A
C301   C344    1.450   .     S
C302   C343    1.451   .     S
O303   Cu309   1.940   .     S
O304   Cu310   1.940   .     S
O304   C382    1.302   .     S
O305   Cu310   1.941   .     S
O305   C307    1.301   .     A
O306   C308    1.307   .     A
O306   Cu309   1.941   .     S
C307   C311    1.470   .     S
C307   O377    1.305   .     S
C308   C312    1.475   .     S
Cu309  N353    2.031   .     S
Cu310  N354    2.031   .     S
Cu310  Cu383   2.702   .     S
C311   C315    1.412   .     A
C311   C317    1.403   .     A
C312   C316    1.408   .     A
C312   C318    1.403   .     A
C313   H333    1.075   .     S
C313   C321    1.401   .     A
C313   C315    1.397   .     A
C314   C322    1.392   .     A
C314   H334    1.059   .     S
C314   C316    1.393   .     A
C315   S434    1.768   .     S
C317   H332    1.079   .     S
C317   C319    1.401   .     A
C318   H331    1.076   .     S
C318   C320    1.415   .     A
C319   C323    1.428   .     A
C319   C321    1.408   .     A
C320   C322    1.405   .     A
C320   C324    1.420   .     A
C321   C993    1.397   .     S
C322   C994    1.393   1_554 S
C323   C326    1.428   .     A
C323   C990    1.432   .     S
C324   C325    1.412   .     A
C324   C989    1.432   1_554 S
C325   N365    1.442   .     S
C325   C327    1.391   .     A
C326   N368    1.431   .     S
C326   C328    1.392   .     A
C327   H329    1.071   .     S
C327   C987    1.397   1_554 S
C328   H330    1.085   .     S
C328   C988    1.393   .     S
C335   H337    1.083   .     S
C335   C418    1.401   .     S
C336   C343    1.401   .     A
C336   H338    1.083   .     S
C336   C562    1.383   .     S
C339   H341    1.083   .     S
C339   C557    1.384   .     S
C339   C417    1.401   .     S
C340   H342    1.083   .     S
C340   C344    1.401   .     A
C345   H347    1.081   .     S
C345   N354    1.369   .     A
C345   C349    1.422   .     A
C346   C350    1.423   .     A
C346   H348    1.082   .     S
C346   N353    1.370   .     A
C349   H351    1.081   .     S
C349   N353    1.369   .     A
C350   H352    1.082   .     S
C350   N354    1.370   .     A
S355   O356    1.502   .     D
S355   O357    1.503   .     D
S355   O358    1.683   .     S
S355   C390    1.777   .     S
O358   H359    0.991   .     S
S360   O363    1.681   .     S
S360   O361    1.500   .     D
S360   O362    1.504   .     D
O363   H364    0.990   .     S
N365   O367    1.301   .     A
N365   O366    1.302   .     A
N368   O370    1.302   .     A
N368   O369    1.301   .     A
O371   C375    1.299   .     A
O371   Cu383   1.964   .     S
O372   Cu384   1.964   .     S
O372   C228    1.299   1_655 S
O373   Cu384   1.964   .     S
O373   C227    1.299   1_655 S
O374   Cu383   1.964   .     S
O374   C376    1.299   .     A
C375   C418    1.450   .     S
C376   C417    1.451   .     S
O377   Cu383   1.940   .     S
O378   Cu384   1.940   .     S
O378   C234    1.302   1_655 S
O379   Cu384   1.941   .     S
O379   C381    1.301   .     A
O380   C382    1.307   .     A
O380   Cu383   1.941   .     S
C381   C385    1.470   .     S
C381   O229    1.305   1_655 S
C382   C386    1.475   .     S
Cu383  N427    2.031   .     S
Cu384  N428    2.031   .     S
Cu384  Cu235   2.702   1_655 S
C385   C389    1.412   .     A
C385   C391    1.403   .     A
C386   C390    1.408   .     A
C386   C392    1.403   .     A
C387   H407    1.075   .     S
C387   C395    1.401   .     A
C387   C389    1.397   .     A
C388   C396    1.392   .     A
C388   H408    1.059   .     S
C388   C390    1.393   .     A
C389   S286    1.768   1_655 S
C391   H406    1.079   .     S
C391   C393    1.401   .     A
C392   H405    1.076   .     S
C392   C394    1.415   .     A
C393   C397    1.428   .     A
C393   C395    1.408   .     A
C394   C396    1.405   .     A
C394   C398    1.420   .     A
C395   C1067   1.397   .     S
C396   C1068   1.393   1_554 S
C397   C400    1.428   .     A
C397   C1064   1.432   .     S
C398   C399    1.412   .     A
C398   C1063   1.432   1_554 S
C399   N439    1.442   .     S
C399   C401    1.391   .     A
C400   N442    1.431   .     S
C400   C402    1.392   .     A
C401   H403    1.071   .     S
C401   C1061   1.397   1_554 S
C402   H404    1.085   .     S
C402   C1062   1.393   .     S
C409   H411    1.083   .     S
C409   C270    1.401   1_655 S
C410   C417    1.401   .     A
C410   H412    1.083   .     S
C410   C636    1.383   .     S
C413   H415    1.083   .     S
C413   C631    1.384   .     S
C413   C269    1.401   1_655 S
C414   H416    1.083   .     S
C414   C418    1.401   .     A
C419   H421    1.081   .     S
C419   N428    1.369   .     A
C419   C423    1.422   .     A
C420   C424    1.423   .     A
C420   H422    1.082   .     S
C420   N427    1.370   .     A
C423   H425    1.081   .     S
C423   N427    1.369   .     A
C424   H426    1.082   .     S
C424   N428    1.370   .     A
S429   O430    1.502   .     D
S429   O431    1.503   .     D
S429   O432    1.683   .     S
S429   C242    1.777   1_655 S
O432   H433    0.991   .     S
S434   O437    1.681   .     S
S434   O435    1.500   .     D
S434   O436    1.504   .     D
O437   H438    0.990   .     S
N439   O441    1.301   .     A
N439   O440    1.302   .     A
N442   O444    1.302   .     A
N442   O443    1.301   .     A
O445   C449    1.299   .     A
O445   Cu457   1.964   .     S
O446   Cu458   1.964   .     S
O446   C524    1.299   .     S
O447   Cu458   1.964   .     S
O447   C523    1.299   .     S
O448   Cu457   1.964   .     S
O448   C450    1.299   .     A
C449   C492    1.450   .     S
C449   O595    1.299   1_455 S
C450   C491    1.451   .     S
C450   O594    1.299   1_455 S
O451   Cu457   1.940   .     S
O451   C603    1.305   1_455 S
O452   Cu458   1.940   .     S
O452   C530    1.302   .     S
O453   Cu458   1.941   .     S
O453   C455    1.301   .     A
O454   C456    1.307   .     A
O454   Cu457   1.941   .     S
C455   C459    1.470   .     S
C455   O525    1.305   .     S
C456   C460    1.475   .     S
C456   O600    1.302   1_455 S
Cu457  N501    2.031   .     S
Cu457  Cu606   2.702   1_455 S
Cu458  N502    2.031   .     S
Cu458  Cu531   2.702   .     S
C459   C463    1.412   .     A
C459   C465    1.403   .     A
C460   C464    1.408   .     A
C460   C466    1.403   .     A
C461   H481    1.075   .     S
C461   C469    1.401   .     A
C461   C463    1.397   .     A
C462   C470    1.392   .     A
C462   H482    1.059   .     S
C462   C464    1.393   .     A
C463   S582    1.768   .     S
C464   S651    1.777   1_455 S
C465   H480    1.079   .     S
C465   C467    1.401   .     A
C466   H479    1.076   .     S
C466   C468    1.415   .     A
C467   C471    1.428   .     A
C467   C469    1.408   .     A
C468   C470    1.405   .     A
C468   C472    1.420   .     A
C469   C1141   1.397   .     S
C470   C1142   1.393   1_554 S
C471   C474    1.428   .     A
C471   C1138   1.432   .     S
C472   C473    1.412   .     A
C472   C1137   1.432   1_554 S
C473   N513    1.442   .     S
C473   C475    1.391   .     A
C474   N516    1.431   .     S
C474   C476    1.392   .     A
C475   H477    1.071   .     S
C475   C1135   1.397   1_554 S
C476   H478    1.085   .     S
C476   C1136   1.393   .     S
C483   H485    1.083   .     S
C483   C566    1.401   .     S
C484   C491    1.401   .     A
C484   H486    1.083   .     S
C484   C44     1.383   1_565 S
C487   H489    1.083   .     S
C487   C39     1.384   1_565 S
C487   C565    1.401   .     S
C488   H490    1.083   .     S
C488   C492    1.401   .     A
C491   C635    1.401   1_455 S
C492   C631    1.401   1_455 S
C493   H495    1.081   .     S
C493   N502    1.369   .     A
C493   C497    1.422   .     A
C494   C498    1.423   .     A
C494   H496    1.082   .     S
C494   N501    1.370   .     A
C497   H499    1.081   .     S
C497   N501    1.369   .     A
C498   H500    1.082   .     S
C498   N502    1.370   .     A
S503   O504    1.502   .     D
S503   O505    1.503   .     D
S503   O506    1.683   .     S
S503   C538    1.777   .     S
O506   H507    0.991   .     S
S508   O511    1.681   .     S
S508   O509    1.500   .     D
S508   O510    1.504   .     D
S508   C611    1.768   1_455 S
O511   H512    0.990   .     S
N513   O515    1.301   .     A
N513   O514    1.302   .     A
N516   O518    1.302   .     A
N516   O517    1.301   .     A
O519   C523    1.299   .     A
O519   Cu531   1.964   .     S
O520   Cu532   1.964   .     S
O520   C598    1.299   .     S
O521   Cu532   1.964   .     S
O521   C597    1.299   .     S
O522   Cu531   1.964   .     S
O522   C524    1.299   .     A
C523   C566    1.450   .     S
C524   C565    1.451   .     S
O525   Cu531   1.940   .     S
O526   Cu532   1.940   .     S
O526   C604    1.302   .     S
O527   Cu532   1.941   .     S
O527   C529    1.301   .     A
O528   C530    1.307   .     A
O528   Cu531   1.941   .     S
C529   C533    1.470   .     S
C529   O599    1.305   .     S
C530   C534    1.475   .     S
Cu531  N575    2.031   .     S
Cu532  N576    2.031   .     S
Cu532  Cu605   2.702   .     S
C533   C537    1.412   .     A
C533   C539    1.403   .     A
C534   C538    1.408   .     A
C534   C540    1.403   .     A
C535   H555    1.075   .     S
C535   C543    1.401   .     A
C535   C537    1.397   .     A
C536   C544    1.392   .     A
C536   H556    1.059   .     S
C536   C538    1.393   .     A
C537   S656    1.768   .     S
C539   H554    1.079   .     S
C539   C541    1.401   .     A
C540   H553    1.076   .     S
C540   C542    1.415   .     A
C541   C545    1.428   .     A
C541   C543    1.408   .     A
C542   C544    1.405   .     A
C542   C546    1.420   .     A
C543   C1215   1.397   .     S
C544   C1216   1.393   1_554 S
C545   C548    1.428   .     A
C545   C1212   1.432   .     S
C546   C547    1.412   .     A
C546   C1211   1.432   1_554 S
C547   N587    1.442   .     S
C547   C549    1.391   .     A
C548   N590    1.431   .     S
C548   C550    1.392   .     A
C549   H551    1.071   .     S
C549   C1209   1.397   1_554 S
C550   H552    1.085   .     S
C550   C1210   1.393   .     S
C557   H559    1.083   .     S
C557   C640    1.401   .     S
C558   C565    1.401   .     A
C558   H560    1.083   .     S
C558   C118    1.383   1_565 S
C561   H563    1.083   .     S
C561   C113    1.384   1_565 S
C561   C639    1.401   .     S
C562   H564    1.083   .     S
C562   C566    1.401   .     A
C567   H569    1.081   .     S
C567   N576    1.369   .     A
C567   C571    1.422   .     A
C568   C572    1.423   .     A
C568   H570    1.082   .     S
C568   N575    1.370   .     A
C571   H573    1.081   .     S
C571   N575    1.369   .     A
C572   H574    1.082   .     S
C572   N576    1.370   .     A
S577   O578    1.502   .     D
S577   O579    1.503   .     D
S577   O580    1.683   .     S
S577   C612    1.777   .     S
O580   H581    0.991   .     S
S582   O585    1.681   .     S
S582   O583    1.500   .     D
S582   O584    1.504   .     D
O585   H586    0.990   .     S
N587   O589    1.301   .     A
N587   O588    1.302   .     A
N590   O592    1.302   .     A
N590   O591    1.301   .     A
O593   C597    1.299   .     A
O593   Cu605   1.964   .     S
O594   Cu606   1.964   .     S
O594   C450    1.299   1_655 S
O595   Cu606   1.964   .     S
O595   C449    1.299   1_655 S
O596   Cu605   1.964   .     S
O596   C598    1.299   .     A
C597   C640    1.450   .     S
C598   C639    1.451   .     S
O599   Cu605   1.940   .     S
O600   Cu606   1.940   .     S
O600   C456    1.302   1_655 S
O601   Cu606   1.941   .     S
O601   C603    1.301   .     A
O602   C604    1.307   .     A
O602   Cu605   1.941   .     S
C603   C607    1.470   .     S
C603   O451    1.305   1_655 S
C604   C608    1.475   .     S
Cu605  N649    2.031   .     S
Cu606  N650    2.031   .     S
Cu606  Cu457   2.702   1_655 S
C607   C611    1.412   .     A
C607   C613    1.403   .     A
C608   C612    1.408   .     A
C608   C614    1.403   .     A
C609   H629    1.075   .     S
C609   C617    1.401   .     A
C609   C611    1.397   .     A
C610   C618    1.392   .     A
C610   H630    1.059   .     S
C610   C612    1.393   .     A
C611   S508    1.768   1_655 S
C613   H628    1.079   .     S
C613   C615    1.401   .     A
C614   H627    1.076   .     S
C614   C616    1.415   .     A
C615   C619    1.428   .     A
C615   C617    1.408   .     A
C616   C618    1.405   .     A
C616   C620    1.420   .     A
C617   C1289   1.397   .     S
C618   C1290   1.393   1_554 S
C619   C622    1.428   .     A
C619   C1286   1.432   .     S
C620   C621    1.412   .     A
C620   C1285   1.432   1_554 S
C621   N661    1.442   .     S
C621   C623    1.391   .     A
C622   N664    1.431   .     S
C622   C624    1.392   .     A
C623   H625    1.071   .     S
C623   C1283   1.397   1_554 S
C624   H626    1.085   .     S
C624   C1284   1.393   .     S
C631   H633    1.083   .     S
C631   C492    1.401   1_655 S
C632   C639    1.401   .     A
C632   H634    1.083   .     S
C632   C192    1.383   1_565 S
C635   H637    1.083   .     S
C635   C187    1.384   1_565 S
C635   C491    1.401   1_655 S
C636   H638    1.083   .     S
C636   C640    1.401   .     A
C641   H643    1.081   .     S
C641   N650    1.369   .     A
C641   C645    1.422   .     A
C642   C646    1.423   .     A
C642   H644    1.082   .     S
C642   N649    1.370   .     A
C645   H647    1.081   .     S
C645   N649    1.369   .     A
C646   H648    1.082   .     S
C646   N650    1.370   .     A
S651   O652    1.502   .     D
S651   O653    1.503   .     D
S651   O654    1.683   .     S
S651   C464    1.777   1_655 S
O654   H655    0.991   .     S
S656   O659    1.681   .     S
S656   O657    1.500   .     D
S656   O658    1.504   .     D
O659   H660    0.990   .     S
N661   O663    1.301   .     A
N661   O662    1.302   .     A
N664   O666    1.302   .     A
N664   O665    1.301   .     A
O667   C671    1.299   .     A
O667   Cu679   1.964   .     S
O668   Cu680   1.964   .     S
O668   C746    1.299   .     S
O669   Cu680   1.964   .     S
O669   C745    1.299   .     S
O670   Cu679   1.964   .     S
O670   C672    1.299   .     A
C671   C714    1.450   .     S
C671   O817    1.299   1_455 S
C672   C713    1.451   .     S
C672   O816    1.299   1_455 S
O673   Cu679   1.940   .     S
O673   C825    1.305   1_455 S
O674   Cu680   1.940   .     S
O674   C752    1.302   .     S
O675   Cu680   1.941   .     S
O675   C677    1.301   .     A
O676   C678    1.307   .     A
O676   Cu679   1.941   .     S
C677   C681    1.470   .     S
C677   O747    1.305   .     S
C678   C682    1.475   .     S
C678   O822    1.302   1_455 S
Cu679  N723    2.031   .     S
Cu679  Cu828   2.702   1_455 S
Cu680  N724    2.031   .     S
Cu680  Cu753   2.702   .     S
C681   C685    1.412   .     A
C681   C687    1.403   .     A
C682   C686    1.408   .     A
C682   C688    1.403   .     A
C683   H703    1.075   .     S
C683   C691    1.401   .     A
C683   C685    1.397   .     A
C684   C692    1.392   .     A
C684   H704    1.059   .     S
C684   C686    1.393   .     A
C685   S804    1.768   .     S
C686   S873    1.777   1_455 S
C687   H702    1.079   .     S
C687   C689    1.401   .     A
C688   H701    1.076   .     S
C688   C690    1.415   .     A
C689   C693    1.428   .     A
C689   C691    1.408   .     A
C690   C692    1.405   .     A
C690   C694    1.420   .     A
C691   C31     1.397   1_556 S
C693   C696    1.428   .     A
C693   C28     1.432   1_556 S
C694   C695    1.412   .     A
C695   N735    1.442   .     S
C695   C697    1.391   .     A
C696   N738    1.431   .     S
C696   C698    1.392   .     A
C697   H699    1.071   .     S
C698   H700    1.085   .     S
C698   C26     1.393   1_556 S
C705   H707    1.083   .     S
C705   C1153   1.384   1_545 S
C705   C788    1.401   .     S
C706   C713    1.401   .     A
C706   H708    1.083   .     S
C706   C932    1.383   .     S
C709   H711    1.083   .     S
C709   C927    1.384   .     S
C709   C787    1.401   .     S
C710   H712    1.083   .     S
C710   C714    1.401   .     A
C710   C1150   1.383   1_545 S
C713   C857    1.401   1_455 S
C714   C853    1.401   1_455 S
C715   H717    1.081   .     S
C715   N724    1.369   .     A
C715   C719    1.422   .     A
C716   C720    1.423   .     A
C716   H718    1.082   .     S
C716   N723    1.370   .     A
C719   H721    1.081   .     S
C719   N723    1.369   .     A
C720   H722    1.082   .     S
C720   N724    1.370   .     A
S725   O726    1.502   .     D
S725   O727    1.503   .     D
S725   O728    1.683   .     S
S725   C760    1.777   .     S
O728   H729    0.991   .     S
S730   O733    1.681   .     S
S730   O731    1.500   .     D
S730   O732    1.504   .     D
S730   C833    1.768   1_455 S
O733   H734    0.990   .     S
N735   O737    1.301   .     A
N735   O736    1.302   .     A
N738   O740    1.302   .     A
N738   O739    1.301   .     A
O741   C745    1.299   .     A
O741   Cu753   1.964   .     S
O742   Cu754   1.964   .     S
O742   C820    1.299   .     S
O743   Cu754   1.964   .     S
O743   C819    1.299   .     S
O744   Cu753   1.964   .     S
O744   C746    1.299   .     A
C745   C788    1.450   .     S
C746   C787    1.451   .     S
O747   Cu753   1.940   .     S
O748   Cu754   1.940   .     S
O748   C826    1.302   .     S
O749   Cu754   1.941   .     S
O749   C751    1.301   .     A
O750   C752    1.307   .     A
O750   Cu753   1.941   .     S
C751   C755    1.470   .     S
C751   O821    1.305   .     S
C752   C756    1.475   .     S
Cu753  N797    2.031   .     S
Cu754  N798    2.031   .     S
Cu754  Cu827   2.702   .     S
C755   C759    1.412   .     A
C755   C761    1.403   .     A
C756   C760    1.408   .     A
C756   C762    1.403   .     A
C757   H777    1.075   .     S
C757   C765    1.401   .     A
C757   C759    1.397   .     A
C758   C766    1.392   .     A
C758   H778    1.059   .     S
C758   C760    1.393   .     A
C759   S878    1.768   .     S
C761   H776    1.079   .     S
C761   C763    1.401   .     A
C762   H775    1.076   .     S
C762   C764    1.415   .     A
C763   C767    1.428   .     A
C763   C765    1.408   .     A
C764   C766    1.405   .     A
C764   C768    1.420   .     A
C765   C105    1.397   1_556 S
C767   C770    1.428   .     A
C767   C102    1.432   1_556 S
C768   C769    1.412   .     A
C769   N809    1.442   .     S
C769   C771    1.391   .     A
C770   N812    1.431   .     S
C770   C772    1.392   .     A
C771   H773    1.071   .     S
C772   H774    1.085   .     S
C772   C100    1.393   1_556 S
C779   H781    1.083   .     S
C779   C1227   1.384   1_545 S
C779   C862    1.401   .     S
C780   C787    1.401   .     A
C780   H782    1.083   .     S
C780   C1006   1.383   .     S
C783   H785    1.083   .     S
C783   C1001   1.384   .     S
C783   C861    1.401   .     S
C784   H786    1.083   .     S
C784   C788    1.401   .     A
C784   C1224   1.383   1_545 S
C789   H791    1.081   .     S
C789   N798    1.369   .     A
C789   C793    1.422   .     A
C790   C794    1.423   .     A
C790   H792    1.082   .     S
C790   N797    1.370   .     A
C793   H795    1.081   .     S
C793   N797    1.369   .     A
C794   H796    1.082   .     S
C794   N798    1.370   .     A
S799   O800    1.502   .     D
S799   O801    1.503   .     D
S799   O802    1.683   .     S
S799   C834    1.777   .     S
O802   H803    0.991   .     S
S804   O807    1.681   .     S
S804   O805    1.500   .     D
S804   O806    1.504   .     D
O807   H808    0.990   .     S
N809   O811    1.301   .     A
N809   O810    1.302   .     A
N812   O814    1.302   .     A
N812   O813    1.301   .     A
O815   C819    1.299   .     A
O815   Cu827   1.964   .     S
O816   Cu828   1.964   .     S
O816   C672    1.299   1_655 S
O817   Cu828   1.964   .     S
O817   C671    1.299   1_655 S
O818   Cu827   1.964   .     S
O818   C820    1.299   .     A
C819   C862    1.450   .     S
C820   C861    1.451   .     S
O821   Cu827   1.940   .     S
O822   Cu828   1.940   .     S
O822   C678    1.302   1_655 S
O823   Cu828   1.941   .     S
O823   C825    1.301   .     A
O824   C826    1.307   .     A
O824   Cu827   1.941   .     S
C825   C829    1.470   .     S
C825   O673    1.305   1_655 S
C826   C830    1.475   .     S
Cu827  N871    2.031   .     S
Cu828  N872    2.031   .     S
Cu828  Cu679   2.702   1_655 S
C829   C833    1.412   .     A
C829   C835    1.403   .     A
C830   C834    1.408   .     A
C830   C836    1.403   .     A
C831   H851    1.075   .     S
C831   C839    1.401   .     A
C831   C833    1.397   .     A
C832   C840    1.392   .     A
C832   H852    1.059   .     S
C832   C834    1.393   .     A
C833   S730    1.768   1_655 S
C835   H850    1.079   .     S
C835   C837    1.401   .     A
C836   H849    1.076   .     S
C836   C838    1.415   .     A
C837   C841    1.428   .     A
C837   C839    1.408   .     A
C838   C840    1.405   .     A
C838   C842    1.420   .     A
C839   C179    1.397   1_556 S
C841   C844    1.428   .     A
C841   C176    1.432   1_556 S
C842   C843    1.412   .     A
C843   N883    1.442   .     S
C843   C845    1.391   .     A
C844   N886    1.431   .     S
C844   C846    1.392   .     A
C845   H847    1.071   .     S
C846   H848    1.085   .     S
C846   C174    1.393   1_556 S
C853   H855    1.083   .     S
C853   C1301   1.384   1_545 S
C853   C714    1.401   1_655 S
C854   C861    1.401   .     A
C854   H856    1.083   .     S
C854   C1080   1.383   .     S
C857   H859    1.083   .     S
C857   C1075   1.384   .     S
C857   C713    1.401   1_655 S
C858   H860    1.083   .     S
C858   C862    1.401   .     A
C858   C1298   1.383   1_545 S
C863   H865    1.081   .     S
C863   N872    1.369   .     A
C863   C867    1.422   .     A
C864   C868    1.423   .     A
C864   H866    1.082   .     S
C864   N871    1.370   .     A
C867   H869    1.081   .     S
C867   N871    1.369   .     A
C868   H870    1.082   .     S
C868   N872    1.370   .     A
S873   O874    1.502   .     D
S873   O875    1.503   .     D
S873   O876    1.683   .     S
S873   C686    1.777   1_655 S
O876   H877    0.991   .     S
S878   O881    1.681   .     S
S878   O879    1.500   .     D
S878   O880    1.504   .     D
O881   H882    0.990   .     S
N883   O885    1.301   .     A
N883   O884    1.302   .     A
N886   O888    1.302   .     A
N886   O887    1.301   .     A
O889   C893    1.299   .     A
O889   Cu901   1.964   .     S
O890   Cu902   1.964   .     S
O890   C968    1.299   .     S
O891   Cu902   1.964   .     S
O891   C967    1.299   .     S
O892   Cu901   1.964   .     S
O892   C894    1.299   .     A
C893   C936    1.450   .     S
C893   O1039   1.299   1_455 S
C894   C935    1.451   .     S
C894   O1038   1.299   1_455 S
O895   Cu901   1.940   .     S
O895   C1047   1.305   1_455 S
O896   Cu902   1.940   .     S
O896   C974    1.302   .     S
O897   Cu902   1.941   .     S
O897   C899    1.301   .     A
O898   C900    1.307   .     A
O898   Cu901   1.941   .     S
C899   C903    1.470   .     S
C899   O969    1.305   .     S
C900   C904    1.475   .     S
C900   O1044   1.302   1_455 S
Cu901  N945    2.031   .     S
Cu901  Cu1050  2.702   1_455 S
Cu902  N946    2.031   .     S
Cu902  Cu975   2.702   .     S
C903   C907    1.412   .     A
C903   C909    1.403   .     A
C904   C908    1.408   .     A
C904   C910    1.403   .     A
C905   H925    1.075   .     S
C905   C913    1.401   .     A
C905   C907    1.397   .     A
C906   C914    1.392   .     A
C906   H926    1.059   .     S
C906   C908    1.393   .     A
C907   S1026   1.768   .     S
C908   S1095   1.777   1_455 S
C909   H924    1.079   .     S
C909   C911    1.401   .     A
C910   H923    1.076   .     S
C910   C912    1.415   .     A
C911   C915    1.428   .     A
C911   C913    1.408   .     A
C912   C914    1.405   .     A
C912   C916    1.420   .     A
C913   C253    1.397   1_556 S
C915   C918    1.428   .     A
C915   C250    1.432   1_556 S
C916   C917    1.412   .     A
C917   N957    1.442   .     S
C917   C919    1.391   .     A
C918   N960    1.431   .     S
C918   C920    1.392   .     A
C919   H921    1.071   .     S
C920   H922    1.085   .     S
C920   C248    1.393   1_556 S
C927   H929    1.083   .     S
C927   C1010   1.401   .     S
C928   C935    1.401   .     A
C928   H930    1.083   .     S
C928   C1154   1.383   .     S
C931   H933    1.083   .     S
C931   C1149   1.384   .     S
C931   C1009   1.401   .     S
C932   H934    1.083   .     S
C932   C936    1.401   .     A
C935   C1079   1.401   1_455 S
C936   C1075   1.401   1_455 S
C937   H939    1.081   .     S
C937   N946    1.369   .     A
C937   C941    1.422   .     A
C938   C942    1.423   .     A
C938   H940    1.082   .     S
C938   N945    1.370   .     A
C941   H943    1.081   .     S
C941   N945    1.369   .     A
C942   H944    1.082   .     S
C942   N946    1.370   .     A
S947   O948    1.502   .     D
S947   O949    1.503   .     D
S947   O950    1.683   .     S
S947   C982    1.777   .     S
O950   H951    0.991   .     S
S952   O955    1.681   .     S
S952   O953    1.500   .     D
S952   O954    1.504   .     D
S952   C1055   1.768   1_455 S
O955   H956    0.990   .     S
N957   O959    1.301   .     A
N957   O958    1.302   .     A
N960   O962    1.302   .     A
N960   O961    1.301   .     A
O963   C967    1.299   .     A
O963   Cu975   1.964   .     S
O964   Cu976   1.964   .     S
O964   C1042   1.299   .     S
O965   Cu976   1.964   .     S
O965   C1041   1.299   .     S
O966   Cu975   1.964   .     S
O966   C968    1.299   .     A
C967   C1010   1.450   .     S
C968   C1009   1.451   .     S
O969   Cu975   1.940   .     S
O970   Cu976   1.940   .     S
O970   C1048   1.302   .     S
O971   Cu976   1.941   .     S
O971   C973    1.301   .     A
O972   C974    1.307   .     A
O972   Cu975   1.941   .     S
C973   C977    1.470   .     S
C973   O1043   1.305   .     S
C974   C978    1.475   .     S
Cu975  N1019   2.031   .     S
Cu976  N1020   2.031   .     S
Cu976  Cu1049  2.702   .     S
C977   C981    1.412   .     A
C977   C983    1.403   .     A
C978   C982    1.408   .     A
C978   C984    1.403   .     A
C979   H999    1.075   .     S
C979   C987    1.401   .     A
C979   C981    1.397   .     A
C980   C988    1.392   .     A
C980   H1000   1.059   .     S
C980   C982    1.393   .     A
C981   S1100   1.768   .     S
C983   H998    1.079   .     S
C983   C985    1.401   .     A
C984   H997    1.076   .     S
C984   C986    1.415   .     A
C985   C989    1.428   .     A
C985   C987    1.408   .     A
C986   C988    1.405   .     A
C986   C990    1.420   .     A
C987   C327    1.397   1_556 S
C989   C992    1.428   .     A
C989   C324    1.432   1_556 S
C990   C991    1.412   .     A
C991   N1031   1.442   .     S
C991   C993    1.391   .     A
C992   N1034   1.431   .     S
C992   C994    1.392   .     A
C993   H995    1.071   .     S
C994   H996    1.085   .     S
C994   C322    1.393   1_556 S
C1001  H1003   1.083   .     S
C1001  C1084   1.401   .     S
C1002  C1009   1.401   .     A
C1002  H1004   1.083   .     S
C1002  C1228   1.383   .     S
C1005  H1007   1.083   .     S
C1005  C1223   1.384   .     S
C1005  C1083   1.401   .     S
C1006  H1008   1.083   .     S
C1006  C1010   1.401   .     A
C1011  H1013   1.081   .     S
C1011  N1020   1.369   .     A
C1011  C1015   1.422   .     A
C1012  C1016   1.423   .     A
C1012  H1014   1.082   .     S
C1012  N1019   1.370   .     A
C1015  H1017   1.081   .     S
C1015  N1019   1.369   .     A
C1016  H1018   1.082   .     S
C1016  N1020   1.370   .     A
S1021  O1022   1.502   .     D
S1021  O1023   1.503   .     D
S1021  O1024   1.683   .     S
S1021  C1056   1.777   .     S
O1024  H1025   0.991   .     S
S1026  O1029   1.681   .     S
S1026  O1027   1.500   .     D
S1026  O1028   1.504   .     D
O1029  H1030   0.990   .     S
N1031  O1033   1.301   .     A
N1031  O1032   1.302   .     A
N1034  O1036   1.302   .     A
N1034  O1035   1.301   .     A
O1037  C1041   1.299   .     A
O1037  Cu1049  1.964   .     S
O1038  Cu1050  1.964   .     S
O1038  C894    1.299   1_655 S
O1039  Cu1050  1.964   .     S
O1039  C893    1.299   1_655 S
O1040  Cu1049  1.964   .     S
O1040  C1042   1.299   .     A
C1041  C1084   1.450   .     S
C1042  C1083   1.451   .     S
O1043  Cu1049  1.940   .     S
O1044  Cu1050  1.940   .     S
O1044  C900    1.302   1_655 S
O1045  Cu1050  1.941   .     S
O1045  C1047   1.301   .     A
O1046  C1048   1.307   .     A
O1046  Cu1049  1.941   .     S
C1047  C1051   1.470   .     S
C1047  O895    1.305   1_655 S
C1048  C1052   1.475   .     S
Cu1049 N1093   2.031   .     S
Cu1050 N1094   2.031   .     S
Cu1050 Cu901   2.702   1_655 S
C1051  C1055   1.412   .     A
C1051  C1057   1.403   .     A
C1052  C1056   1.408   .     A
C1052  C1058   1.403   .     A
C1053  H1073   1.075   .     S
C1053  C1061   1.401   .     A
C1053  C1055   1.397   .     A
C1054  C1062   1.392   .     A
C1054  H1074   1.059   .     S
C1054  C1056   1.393   .     A
C1055  S952    1.768   1_655 S
C1057  H1072   1.079   .     S
C1057  C1059   1.401   .     A
C1058  H1071   1.076   .     S
C1058  C1060   1.415   .     A
C1059  C1063   1.428   .     A
C1059  C1061   1.408   .     A
C1060  C1062   1.405   .     A
C1060  C1064   1.420   .     A
C1061  C401    1.397   1_556 S
C1063  C1066   1.428   .     A
C1063  C398    1.432   1_556 S
C1064  C1065   1.412   .     A
C1065  N1105   1.442   .     S
C1065  C1067   1.391   .     A
C1066  N1108   1.431   .     S
C1066  C1068   1.392   .     A
C1067  H1069   1.071   .     S
C1068  H1070   1.085   .     S
C1068  C396    1.393   1_556 S
C1075  H1077   1.083   .     S
C1075  C936    1.401   1_655 S
C1076  C1083   1.401   .     A
C1076  H1078   1.083   .     S
C1076  C1302   1.383   .     S
C1079  H1081   1.083   .     S
C1079  C1297   1.384   .     S
C1079  C935    1.401   1_655 S
C1080  H1082   1.083   .     S
C1080  C1084   1.401   .     A
C1085  H1087   1.081   .     S
C1085  N1094   1.369   .     A
C1085  C1089   1.422   .     A
C1086  C1090   1.423   .     A
C1086  H1088   1.082   .     S
C1086  N1093   1.370   .     A
C1089  H1091   1.081   .     S
C1089  N1093   1.369   .     A
C1090  H1092   1.082   .     S
C1090  N1094   1.370   .     A
S1095  O1096   1.502   .     D
S1095  O1097   1.503   .     D
S1095  O1098   1.683   .     S
S1095  C908    1.777   1_655 S
O1098  H1099   0.991   .     S
S1100  O1103   1.681   .     S
S1100  O1101   1.500   .     D
S1100  O1102   1.504   .     D
O1103  H1104   0.990   .     S
N1105  O1107   1.301   .     A
N1105  O1106   1.302   .     A
N1108  O1110   1.302   .     A
N1108  O1109   1.301   .     A
O1111  C1115   1.299   .     A
O1111  Cu1123  1.964   .     S
O1112  Cu1124  1.964   .     S
O1112  C1190   1.299   .     S
O1113  Cu1124  1.964   .     S
O1113  C1189   1.299   .     S
O1114  Cu1123  1.964   .     S
O1114  C1116   1.299   .     A
C1115  C1158   1.450   .     S
C1115  O1261   1.299   1_455 S
C1116  C1157   1.451   .     S
C1116  O1260   1.299   1_455 S
O1117  Cu1123  1.940   .     S
O1117  C1269   1.305   1_455 S
O1118  Cu1124  1.940   .     S
O1118  C1196   1.302   .     S
O1119  Cu1124  1.941   .     S
O1119  C1121   1.301   .     A
O1120  C1122   1.307   .     A
O1120  Cu1123  1.941   .     S
C1121  C1125   1.470   .     S
C1121  O1191   1.305   .     S
C1122  C1126   1.475   .     S
C1122  O1266   1.302   1_455 S
Cu1123 N1167   2.031   .     S
Cu1123 Cu1272  2.702   1_455 S
Cu1124 N1168   2.031   .     S
Cu1124 Cu1197  2.702   .     S
C1125  C1129   1.412   .     A
C1125  C1131   1.403   .     A
C1126  C1130   1.408   .     A
C1126  C1132   1.403   .     A
C1127  H1147   1.075   .     S
C1127  C1135   1.401   .     A
C1127  C1129   1.397   .     A
C1128  C1136   1.392   .     A
C1128  H1148   1.059   .     S
C1128  C1130   1.393   .     A
C1129  S1248   1.768   .     S
C1130  S1317   1.777   1_455 S
C1131  H1146   1.079   .     S
C1131  C1133   1.401   .     A
C1132  H1145   1.076   .     S
C1132  C1134   1.415   .     A
C1133  C1137   1.428   .     A
C1133  C1135   1.408   .     A
C1134  C1136   1.405   .     A
C1134  C1138   1.420   .     A
C1135  C475    1.397   1_556 S
C1137  C1140   1.428   .     A
C1137  C472    1.432   1_556 S
C1138  C1139   1.412   .     A
C1139  N1179   1.442   .     S
C1139  C1141   1.391   .     A
C1140  N1182   1.431   .     S
C1140  C1142   1.392   .     A
C1141  H1143   1.071   .     S
C1142  H1144   1.085   .     S
C1142  C470    1.393   1_556 S
C1149  H1151   1.083   .     S
C1149  C1232   1.401   .     S
C1150  C1157   1.401   .     A
C1150  H1152   1.083   .     S
C1150  C710    1.383   1_565 S
C1153  H1155   1.083   .     S
C1153  C705    1.384   1_565 S
C1153  C1231   1.401   .     S
C1154  H1156   1.083   .     S
C1154  C1158   1.401   .     A
C1157  C1301   1.401   1_455 S
C1158  C1297   1.401   1_455 S
C1159  H1161   1.081   .     S
C1159  N1168   1.369   .     A
C1159  C1163   1.422   .     A
C1160  C1164   1.423   .     A
C1160  H1162   1.082   .     S
C1160  N1167   1.370   .     A
C1163  H1165   1.081   .     S
C1163  N1167   1.369   .     A
C1164  H1166   1.082   .     S
C1164  N1168   1.370   .     A
S1169  O1170   1.502   .     D
S1169  O1171   1.503   .     D
S1169  O1172   1.683   .     S
S1169  C1204   1.777   .     S
O1172  H1173   0.991   .     S
S1174  O1177   1.681   .     S
S1174  O1175   1.500   .     D
S1174  O1176   1.504   .     D
S1174  C1277   1.768   1_455 S
O1177  H1178   0.990   .     S
N1179  O1181   1.301   .     A
N1179  O1180   1.302   .     A
N1182  O1184   1.302   .     A
N1182  O1183   1.301   .     A
O1185  C1189   1.299   .     A
O1185  Cu1197  1.964   .     S
O1186  Cu1198  1.964   .     S
O1186  C1264   1.299   .     S
O1187  Cu1198  1.964   .     S
O1187  C1263   1.299   .     S
O1188  Cu1197  1.964   .     S
O1188  C1190   1.299   .     A
C1189  C1232   1.450   .     S
C1190  C1231   1.451   .     S
O1191  Cu1197  1.940   .     S
O1192  Cu1198  1.940   .     S
O1192  C1270   1.302   .     S
O1193  Cu1198  1.941   .     S
O1193  C1195   1.301   .     A
O1194  C1196   1.307   .     A
O1194  Cu1197  1.941   .     S
C1195  C1199   1.470   .     S
C1195  O1265   1.305   .     S
C1196  C1200   1.475   .     S
Cu1197 N1241   2.031   .     S
Cu1198 N1242   2.031   .     S
Cu1198 Cu1271  2.702   .     S
C1199  C1203   1.412   .     A
C1199  C1205   1.403   .     A
C1200  C1204   1.408   .     A
C1200  C1206   1.403   .     A
C1201  H1221   1.075   .     S
C1201  C1209   1.401   .     A
C1201  C1203   1.397   .     A
C1202  C1210   1.392   .     A
C1202  H1222   1.059   .     S
C1202  C1204   1.393   .     A
C1203  S1322   1.768   .     S
C1205  H1220   1.079   .     S
C1205  C1207   1.401   .     A
C1206  H1219   1.076   .     S
C1206  C1208   1.415   .     A
C1207  C1211   1.428   .     A
C1207  C1209   1.408   .     A
C1208  C1210   1.405   .     A
C1208  C1212   1.420   .     A
C1209  C549    1.397   1_556 S
C1211  C1214   1.428   .     A
C1211  C546    1.432   1_556 S
C1212  C1213   1.412   .     A
C1213  N1253   1.442   .     S
C1213  C1215   1.391   .     A
C1214  N1256   1.431   .     S
C1214  C1216   1.392   .     A
C1215  H1217   1.071   .     S
C1216  H1218   1.085   .     S
C1216  C544    1.393   1_556 S
C1223  H1225   1.083   .     S
C1223  C1306   1.401   .     S
C1224  C1231   1.401   .     A
C1224  H1226   1.083   .     S
C1224  C784    1.383   1_565 S
C1227  H1229   1.083   .     S
C1227  C779    1.384   1_565 S
C1227  C1305   1.401   .     S
C1228  H1230   1.083   .     S
C1228  C1232   1.401   .     A
C1233  H1235   1.081   .     S
C1233  N1242   1.369   .     A
C1233  C1237   1.422   .     A
C1234  C1238   1.423   .     A
C1234  H1236   1.082   .     S
C1234  N1241   1.370   .     A
C1237  H1239   1.081   .     S
C1237  N1241   1.369   .     A
C1238  H1240   1.082   .     S
C1238  N1242   1.370   .     A
S1243  O1244   1.502   .     D
S1243  O1245   1.503   .     D
S1243  O1246   1.683   .     S
S1243  C1278   1.777   .     S
O1246  H1247   0.991   .     S
S1248  O1251   1.681   .     S
S1248  O1249   1.500   .     D
S1248  O1250   1.504   .     D
O1251  H1252   0.990   .     S
N1253  O1255   1.301   .     A
N1253  O1254   1.302   .     A
N1256  O1258   1.302   .     A
N1256  O1257   1.301   .     A
O1259  C1263   1.299   .     A
O1259  Cu1271  1.964   .     S
O1260  Cu1272  1.964   .     S
O1260  C1116   1.299   1_655 S
O1261  Cu1272  1.964   .     S
O1261  C1115   1.299   1_655 S
O1262  Cu1271  1.964   .     S
O1262  C1264   1.299   .     A
C1263  C1306   1.450   .     S
C1264  C1305   1.451   .     S
O1265  Cu1271  1.940   .     S
O1266  Cu1272  1.940   .     S
O1266  C1122   1.302   1_655 S
O1267  Cu1272  1.941   .     S
O1267  C1269   1.301   .     A
O1268  C1270   1.307   .     A
O1268  Cu1271  1.941   .     S
C1269  C1273   1.470   .     S
C1269  O1117   1.305   1_655 S
C1270  C1274   1.475   .     S
Cu1271 N1315   2.031   .     S
Cu1272 N1316   2.031   .     S
Cu1272 Cu1123  2.702   1_655 S
C1273  C1277   1.412   .     A
C1273  C1279   1.403   .     A
C1274  C1278   1.408   .     A
C1274  C1280   1.403   .     A
C1275  H1295   1.075   .     S
C1275  C1283   1.401   .     A
C1275  C1277   1.397   .     A
C1276  C1284   1.392   .     A
C1276  H1296   1.059   .     S
C1276  C1278   1.393   .     A
C1277  S1174   1.768   1_655 S
C1279  H1294   1.079   .     S
C1279  C1281   1.401   .     A
C1280  H1293   1.076   .     S
C1280  C1282   1.415   .     A
C1281  C1285   1.428   .     A
C1281  C1283   1.408   .     A
C1282  C1284   1.405   .     A
C1282  C1286   1.420   .     A
C1283  C623    1.397   1_556 S
C1285  C1288   1.428   .     A
C1285  C620    1.432   1_556 S
C1286  C1287   1.412   .     A
C1287  N1327   1.442   .     S
C1287  C1289   1.391   .     A
C1288  N1330   1.431   .     S
C1288  C1290   1.392   .     A
C1289  H1291   1.071   .     S
C1290  H1292   1.085   .     S
C1290  C618    1.393   1_556 S
C1297  H1299   1.083   .     S
C1297  C1158   1.401   1_655 S
C1298  C1305   1.401   .     A
C1298  H1300   1.083   .     S
C1298  C858    1.383   1_565 S
C1301  H1303   1.083   .     S
C1301  C853    1.384   1_565 S
C1301  C1157   1.401   1_655 S
C1302  H1304   1.083   .     S
C1302  C1306   1.401   .     A
C1307  H1309   1.081   .     S
C1307  N1316   1.369   .     A
C1307  C1311   1.422   .     A
C1308  C1312   1.423   .     A
C1308  H1310   1.082   .     S
C1308  N1315   1.370   .     A
C1311  H1313   1.081   .     S
C1311  N1315   1.369   .     A
C1312  H1314   1.082   .     S
C1312  N1316   1.370   .     A
S1317  O1318   1.502   .     D
S1317  O1319   1.503   .     D
S1317  O1320   1.683   .     S
S1317  C1130   1.777   1_655 S
O1320  H1321   0.991   .     S
S1322  O1325   1.681   .     S
S1322  O1323   1.500   .     D
S1322  O1324   1.504   .     D
O1325  H1326   0.990   .     S
N1327  O1329   1.301   .     A
N1327  O1328   1.302   .     A
N1330  O1332   1.302   .     A
N1330  O1331   1.301   .     A
