data_str_m2_o2_o10_pcu_sym.28
_audit_creation_date              2020-01-03
_audit_creation_method            'Materials Studio'
_symmetry_space_group_name_H-M    'P1'
_symmetry_Int_Tables_number       1
_symmetry_cell_setting            triclinic
loop_
_symmetry_equiv_pos_as_xyz
  x,y,z
_cell_length_a                    26.1591
_cell_length_b                    30.2191
_cell_length_c                    27.8099
_cell_angle_alpha                 89.9129
_cell_angle_beta                  97.5851
_cell_angle_gamma                 90.5906
loop_
_atom_site_label
_atom_site_type_symbol
_atom_site_fract_x
_atom_site_fract_y
_atom_site_fract_z
_atom_site_U_iso_or_equiv
_atom_site_adp_type
_atom_site_occupancy
C1     C     0.16810   0.16497   0.25013   0.00000  Uiso   1.00
C2     C     0.19082   0.28362   0.44941   0.00000  Uiso   1.00
C3     C     0.16585   0.24857   0.02690   0.00000  Uiso   1.00
C4     C     0.16588   0.24924   0.47233   0.00000  Uiso   1.00
C5     C     0.06798   0.24961   0.23766   0.00000  Uiso   1.00
C6     C     0.26538   0.24992   0.26236   0.00000  Uiso   1.00
C7     C     0.01279   0.24867   0.23088   0.00000  Uiso   1.00
C8     C     0.32061   0.25012   0.26925   0.00000  Uiso   1.00
C9     C     0.15606   0.04643   0.28759   0.00000  Uiso   1.00
C10    C     0.15236   0.45330   0.21078   0.00000  Uiso   1.00
C11    C     0.15422   0.09244   0.28735   0.00000  Uiso   1.00
C12    C     0.16810   0.33502   0.25018   0.00000  Uiso   1.00
C13    C     0.15044   0.40726   0.21063   0.00000  Uiso   1.00
C14    C     0.17316   0.11678   0.25059   0.00000  Uiso   1.00
C15    C     0.17309   0.38325   0.25072   0.00000  Uiso   1.00
C16    C     0.19762   0.09493   0.21508   0.00000  Uiso   1.00
C17    C     0.20128   0.40542   0.29050   0.00000  Uiso   1.00
C18    C     0.20106   0.04873   0.21576   0.00000  Uiso   1.00
C19    C     0.20451   0.45170   0.29068   0.00000  Uiso   1.00
C20    C     0.17944   0.02434   0.25172   0.00000  Uiso   1.00
C21    C     0.17931   0.47578   0.25091   0.00000  Uiso   1.00
C22    C     0.08426   0.01543   0.31215   0.00000  Uiso   1.00
C23    C     0.21211   0.25315   0.05860   0.00000  Uiso   1.00
C24    C     0.07814   0.48443   0.17499   0.00000  Uiso   1.00
C25    C     0.26635   0.13332   0.19340   0.00000  Uiso   1.00
C26    C     0.27339   0.36849   0.32178   0.00000  Uiso   1.00
C27    C     0.27074   0.01070   0.19577   0.00000  Uiso   1.00
C28    C     0.27621   0.49148   0.32272   0.00000  Uiso   1.00
C29    C     0.28675   0.21593   0.05587   0.00000  Uiso   1.00
C30    C     0.15236   0.14598   0.47194   0.00000  Uiso   1.00
C31    C     0.05174   0.28336   0.01308   0.00000  Uiso   1.00
C32    C     0.18983   0.35761   0.46507   0.00000  Uiso   1.00
C33    C     0.14073   0.21559   0.44260   0.00000  Uiso   1.00
C34    C     0.21055   0.25964   0.10869   0.00000  Uiso   1.00
C35    C     0.13897   0.21808   0.39122   0.00000  Uiso   1.00
C36    C     0.12186   0.24182   0.09919   0.00000  Uiso   1.00
C37    C     0.19261   0.28192   0.39881   0.00000  Uiso   1.00
C38    C     0.11982   0.24410   0.04812   0.00000  Uiso   1.00
Cu39   Cu    0.16667   0.24999   0.29822   0.00000  Uiso   1.00
Cu40   Cu    0.16667   0.25000   0.20179   0.00000  Uiso   1.00
H41    H     0.32650   0.24662   0.19405   0.00000  Uiso   1.00
H42    H     0.07539   0.01118   0.20182   0.00000  Uiso   1.00
H43    H     0.05706   0.45419   0.18479   0.00000  Uiso   1.00
H44    H     0.05858   0.49626   0.13956   0.00000  Uiso   1.00
H45    H     0.26925   0.15202   0.22813   0.00000  Uiso   1.00
H46    H     0.27821   0.15622   0.16558   0.00000  Uiso   1.00
H47    H     0.29380   0.10539   0.19702   0.00000  Uiso   1.00
H48    H     0.27180   0.34851   0.28802   0.00000  Uiso   1.00
H49    H     0.28999   0.34724   0.35238   0.00000  Uiso   1.00
H50    H     0.29989   0.39723   0.32021   0.00000  Uiso   1.00
H51    H     0.26672   0.47634   0.20891   0.00000  Uiso   1.00
H52    H     0.00703   0.25177   0.30615   0.00000  Uiso   1.00
H53    H     0.29308   0.03128   0.22461   0.00000  Uiso   1.00
H54    H     0.29378   0.00923   0.16509   0.00000  Uiso   1.00
H55    H     0.29617   0.47185   0.29704   0.00000  Uiso   1.00
H56    H     0.30240   0.49323   0.35745   0.00000  Uiso   1.00
H57    H     0.27047   0.02588   0.30929   0.00000  Uiso   1.00
H58    H     0.26211   0.18553   0.05506   0.00000  Uiso   1.00
H59    H     0.30780   0.22105   0.09285   0.00000  Uiso   1.00
H60    H     0.31555   0.20975   0.03093   0.00000  Uiso   1.00
H61    H     0.18670   0.15614   0.49764   0.00000  Uiso   1.00
H62    H     0.16445   0.13373   0.43746   0.00000  Uiso   1.00
H63    H     0.13650   0.10902   0.31536   0.00000  Uiso   1.00
H64    H     0.13336   0.11803   0.48874   0.00000  Uiso   1.00
H65    H     0.23914   0.30197   0.15548   0.00000  Uiso   1.00
H66    H     0.08858   0.16978   0.37999   0.00000  Uiso   1.00
H67    H     0.07760   0.30619   0.49582   0.00000  Uiso   1.00
H68    H     0.04322   0.29720   0.04821   0.00000  Uiso   1.00
H69    H     0.01478   0.28102   0.48851   0.00000  Uiso   1.00
H70    H     0.14779   0.35463   0.46764   0.00000  Uiso   1.00
H71    H     0.19618   0.36935   0.42841   0.00000  Uiso   1.00
H72    H     0.20593   0.38322   0.49151   0.00000  Uiso   1.00
H73    H     0.12984   0.39034   0.17948   0.00000  Uiso   1.00
H74    H     0.08650   0.23539   0.11417   0.00000  Uiso   1.00
H75    H     0.21422   0.30675   0.38188   0.00000  Uiso   1.00
H76    H     0.07742   0.48956   0.28364   0.00000  Uiso   1.00
H77    H     0.06281   0.04610   0.30043   0.00000  Uiso   1.00
H78    H     0.06841   0.00261   0.34458   0.00000  Uiso   1.00
N79    N     0.16667   0.25001   0.12935   0.00000  Uiso   1.00
N80    N     0.16667   0.24999   0.37066   0.00000  Uiso   1.00
O81    O     0.16667   0.18572   0.29072   0.00000  Uiso   1.00
O82    O     0.13013   0.47600   0.17022   0.00000  Uiso   1.00
O83    O     0.21565   0.11822   0.17772   0.00000  Uiso   1.00
O84    O     0.22404   0.38224   0.33052   0.00000  Uiso   1.00
O85    O     0.22184   0.02808   0.17840   0.00000  Uiso   1.00
O86    O     0.22886   0.47259   0.33196   0.00000  Uiso   1.00
O87    O     0.25866   0.25414   0.04008   0.00000  Uiso   1.00
O88    O     0.11684   0.18080   0.46345   0.00000  Uiso   1.00
O89    O     0.25271   0.27952   0.13468   0.00000  Uiso   1.00
O90    O     0.10957   0.18873   0.36094   0.00000  Uiso   1.00
O91    O     0.07277   0.24065   0.01932   0.00000  Uiso   1.00
O92    O     0.16666   0.31427   0.20929   0.00000  Uiso   1.00
O93    O     0.21568   0.31753   0.47694   0.00000  Uiso   1.00
O94    O     0.16667   0.18573   0.20928   0.00000  Uiso   1.00
O95    O     0.16666   0.31427   0.29072   0.00000  Uiso   1.00
O96    O     0.09161   0.24999   0.28132   0.00000  Uiso   1.00
O97    O     0.24172   0.25000   0.21868   0.00000  Uiso   1.00
O98    O     0.09161   0.25000   0.19989   0.00000  Uiso   1.00
O99    O     0.24172   0.25000   0.30012   0.00000  Uiso   1.00
O100   O     0.13754   0.02338   0.32480   0.00000  Uiso   1.00
C101   C     0.50143   0.16497   0.25013   0.00000  Uiso   1.00
C102   C     0.52415   0.28362   0.44941   0.00000  Uiso   1.00
C103   C     0.49918   0.24857   0.02690   0.00000  Uiso   1.00
C104   C     0.49921   0.24924   0.47233   0.00000  Uiso   1.00
C105   C     0.40131   0.24961   0.23766   0.00000  Uiso   1.00
C106   C     0.59871   0.24992   0.26236   0.00000  Uiso   1.00
C107   C     0.34613   0.24867   0.23088   0.00000  Uiso   1.00
C108   C     0.65394   0.25012   0.26925   0.00000  Uiso   1.00
C109   C     0.48939   0.04643   0.28759   0.00000  Uiso   1.00
C110   C     0.48569   0.45330   0.21078   0.00000  Uiso   1.00
C111   C     0.48755   0.09244   0.28735   0.00000  Uiso   1.00
C112   C     0.50144   0.33502   0.25018   0.00000  Uiso   1.00
C113   C     0.48377   0.40726   0.21063   0.00000  Uiso   1.00
C114   C     0.50650   0.11678   0.25059   0.00000  Uiso   1.00
C115   C     0.50642   0.38325   0.25072   0.00000  Uiso   1.00
C116   C     0.53095   0.09493   0.21508   0.00000  Uiso   1.00
C117   C     0.53461   0.40542   0.29050   0.00000  Uiso   1.00
C118   C     0.53439   0.04873   0.21576   0.00000  Uiso   1.00
C119   C     0.53785   0.45170   0.29068   0.00000  Uiso   1.00
C120   C     0.51277   0.02434   0.25172   0.00000  Uiso   1.00
C121   C     0.51264   0.47578   0.25091   0.00000  Uiso   1.00
C122   C     0.41760   0.01543   0.31215   0.00000  Uiso   1.00
C123   C     0.54545   0.25315   0.05860   0.00000  Uiso   1.00
C124   C     0.41147   0.48443   0.17499   0.00000  Uiso   1.00
C125   C     0.59968   0.13332   0.19340   0.00000  Uiso   1.00
C126   C     0.60673   0.36849   0.32178   0.00000  Uiso   1.00
C127   C     0.60407   0.01070   0.19577   0.00000  Uiso   1.00
C128   C     0.60954   0.49148   0.32272   0.00000  Uiso   1.00
C129   C     0.62008   0.21593   0.05587   0.00000  Uiso   1.00
C130   C     0.48569   0.14598   0.47194   0.00000  Uiso   1.00
C131   C     0.38507   0.28336   0.01308   0.00000  Uiso   1.00
C132   C     0.52316   0.35761   0.46507   0.00000  Uiso   1.00
C133   C     0.47407   0.21559   0.44260   0.00000  Uiso   1.00
C134   C     0.54388   0.25964   0.10869   0.00000  Uiso   1.00
C135   C     0.47231   0.21808   0.39122   0.00000  Uiso   1.00
C136   C     0.45519   0.24182   0.09919   0.00000  Uiso   1.00
C137   C     0.52594   0.28192   0.39881   0.00000  Uiso   1.00
C138   C     0.45315   0.24410   0.04812   0.00000  Uiso   1.00
Cu139  Cu    0.50000   0.24999   0.29822   0.00000  Uiso   1.00
Cu140  Cu    0.50000   0.25000   0.20179   0.00000  Uiso   1.00
H141   H     0.65983   0.24662   0.19405   0.00000  Uiso   1.00
H142   H     0.40872   0.01118   0.20182   0.00000  Uiso   1.00
H143   H     0.39039   0.45419   0.18479   0.00000  Uiso   1.00
H144   H     0.39191   0.49626   0.13956   0.00000  Uiso   1.00
H145   H     0.60258   0.15202   0.22813   0.00000  Uiso   1.00
H146   H     0.61154   0.15622   0.16558   0.00000  Uiso   1.00
H147   H     0.62713   0.10539   0.19702   0.00000  Uiso   1.00
H148   H     0.60513   0.34851   0.28802   0.00000  Uiso   1.00
H149   H     0.62332   0.34724   0.35238   0.00000  Uiso   1.00
H150   H     0.63322   0.39723   0.32021   0.00000  Uiso   1.00
H151   H     0.60005   0.47634   0.20891   0.00000  Uiso   1.00
H152   H     0.34036   0.25177   0.30615   0.00000  Uiso   1.00
H153   H     0.62641   0.03128   0.22461   0.00000  Uiso   1.00
H154   H     0.62711   0.00923   0.16509   0.00000  Uiso   1.00
H155   H     0.62951   0.47185   0.29704   0.00000  Uiso   1.00
H156   H     0.63573   0.49323   0.35745   0.00000  Uiso   1.00
H157   H     0.60380   0.02588   0.30929   0.00000  Uiso   1.00
H158   H     0.59544   0.18553   0.05506   0.00000  Uiso   1.00
H159   H     0.64113   0.22105   0.09285   0.00000  Uiso   1.00
H160   H     0.64888   0.20975   0.03093   0.00000  Uiso   1.00
H161   H     0.52004   0.15614   0.49764   0.00000  Uiso   1.00
H162   H     0.49778   0.13373   0.43746   0.00000  Uiso   1.00
H163   H     0.46983   0.10902   0.31536   0.00000  Uiso   1.00
H164   H     0.46669   0.11803   0.48874   0.00000  Uiso   1.00
H165   H     0.57248   0.30197   0.15548   0.00000  Uiso   1.00
H166   H     0.42191   0.16978   0.37999   0.00000  Uiso   1.00
H167   H     0.41093   0.30619   0.49582   0.00000  Uiso   1.00
H168   H     0.37655   0.29720   0.04821   0.00000  Uiso   1.00
H169   H     0.34811   0.28102   0.48851   0.00000  Uiso   1.00
H170   H     0.48113   0.35463   0.46764   0.00000  Uiso   1.00
H171   H     0.52951   0.36935   0.42841   0.00000  Uiso   1.00
H172   H     0.53927   0.38322   0.49151   0.00000  Uiso   1.00
H173   H     0.46318   0.39034   0.17948   0.00000  Uiso   1.00
H174   H     0.41984   0.23539   0.11417   0.00000  Uiso   1.00
H175   H     0.54756   0.30675   0.38188   0.00000  Uiso   1.00
H176   H     0.41076   0.48956   0.28364   0.00000  Uiso   1.00
H177   H     0.39614   0.04610   0.30043   0.00000  Uiso   1.00
H178   H     0.40174   0.00261   0.34458   0.00000  Uiso   1.00
N179   N     0.50000   0.25001   0.12935   0.00000  Uiso   1.00
N180   N     0.50000   0.24999   0.37066   0.00000  Uiso   1.00
O181   O     0.50000   0.18572   0.29072   0.00000  Uiso   1.00
O182   O     0.46347   0.47600   0.17022   0.00000  Uiso   1.00
O183   O     0.54899   0.11822   0.17772   0.00000  Uiso   1.00
O184   O     0.55737   0.38224   0.33052   0.00000  Uiso   1.00
O185   O     0.55517   0.02808   0.17840   0.00000  Uiso   1.00
O186   O     0.56219   0.47259   0.33196   0.00000  Uiso   1.00
O187   O     0.59200   0.25414   0.04008   0.00000  Uiso   1.00
O188   O     0.45018   0.18080   0.46345   0.00000  Uiso   1.00
O189   O     0.58604   0.27952   0.13468   0.00000  Uiso   1.00
O190   O     0.44290   0.18873   0.36094   0.00000  Uiso   1.00
O191   O     0.40611   0.24065   0.01932   0.00000  Uiso   1.00
O192   O     0.50000   0.31427   0.20929   0.00000  Uiso   1.00
O193   O     0.54901   0.31753   0.47694   0.00000  Uiso   1.00
O194   O     0.50000   0.18573   0.20928   0.00000  Uiso   1.00
O195   O     0.50000   0.31427   0.29072   0.00000  Uiso   1.00
O196   O     0.42495   0.24999   0.28132   0.00000  Uiso   1.00
O197   O     0.57505   0.25000   0.21868   0.00000  Uiso   1.00
O198   O     0.42495   0.25000   0.19989   0.00000  Uiso   1.00
O199   O     0.57505   0.25000   0.30012   0.00000  Uiso   1.00
O200   O     0.47087   0.02338   0.32480   0.00000  Uiso   1.00
C201   C     0.83476   0.16497   0.25013   0.00000  Uiso   1.00
C202   C     0.85749   0.28362   0.44941   0.00000  Uiso   1.00
C203   C     0.83251   0.24857   0.02690   0.00000  Uiso   1.00
C204   C     0.83255   0.24924   0.47233   0.00000  Uiso   1.00
C205   C     0.73465   0.24961   0.23766   0.00000  Uiso   1.00
C206   C     0.93204   0.24992   0.26236   0.00000  Uiso   1.00
C207   C     0.67946   0.24867   0.23088   0.00000  Uiso   1.00
C208   C     0.98727   0.25012   0.26925   0.00000  Uiso   1.00
C209   C     0.82272   0.04643   0.28759   0.00000  Uiso   1.00
C210   C     0.81902   0.45330   0.21078   0.00000  Uiso   1.00
C211   C     0.82088   0.09244   0.28735   0.00000  Uiso   1.00
C212   C     0.83477   0.33502   0.25018   0.00000  Uiso   1.00
C213   C     0.81710   0.40726   0.21063   0.00000  Uiso   1.00
C214   C     0.83983   0.11678   0.25059   0.00000  Uiso   1.00
C215   C     0.83976   0.38325   0.25072   0.00000  Uiso   1.00
C216   C     0.86428   0.09493   0.21508   0.00000  Uiso   1.00
C217   C     0.86795   0.40542   0.29050   0.00000  Uiso   1.00
C218   C     0.86773   0.04873   0.21576   0.00000  Uiso   1.00
C219   C     0.87118   0.45170   0.29068   0.00000  Uiso   1.00
C220   C     0.84610   0.02434   0.25172   0.00000  Uiso   1.00
C221   C     0.84598   0.47578   0.25091   0.00000  Uiso   1.00
C222   C     0.75093   0.01543   0.31215   0.00000  Uiso   1.00
C223   C     0.87878   0.25315   0.05860   0.00000  Uiso   1.00
C224   C     0.74481   0.48443   0.17499   0.00000  Uiso   1.00
C225   C     0.93301   0.13332   0.19340   0.00000  Uiso   1.00
C226   C     0.94006   0.36849   0.32178   0.00000  Uiso   1.00
C227   C     0.93740   0.01070   0.19577   0.00000  Uiso   1.00
C228   C     0.94287   0.49148   0.32272   0.00000  Uiso   1.00
C229   C     0.95342   0.21593   0.05587   0.00000  Uiso   1.00
C230   C     0.81902   0.14598   0.47194   0.00000  Uiso   1.00
C231   C     0.71840   0.28336   0.01308   0.00000  Uiso   1.00
C232   C     0.85649   0.35761   0.46507   0.00000  Uiso   1.00
C233   C     0.80740   0.21559   0.44260   0.00000  Uiso   1.00
C234   C     0.87721   0.25964   0.10869   0.00000  Uiso   1.00
C235   C     0.80564   0.21808   0.39122   0.00000  Uiso   1.00
C236   C     0.78853   0.24182   0.09919   0.00000  Uiso   1.00
C237   C     0.85927   0.28192   0.39881   0.00000  Uiso   1.00
C238   C     0.78648   0.24410   0.04812   0.00000  Uiso   1.00
Cu239  Cu    0.83333   0.24999   0.29822   0.00000  Uiso   1.00
Cu240  Cu    0.83333   0.25000   0.20179   0.00000  Uiso   1.00
H241   H     0.99316   0.24662   0.19405   0.00000  Uiso   1.00
H242   H     0.74205   0.01118   0.20182   0.00000  Uiso   1.00
H243   H     0.72373   0.45419   0.18479   0.00000  Uiso   1.00
H244   H     0.72524   0.49626   0.13956   0.00000  Uiso   1.00
H245   H     0.93592   0.15202   0.22813   0.00000  Uiso   1.00
H246   H     0.94488   0.15622   0.16558   0.00000  Uiso   1.00
H247   H     0.96047   0.10539   0.19702   0.00000  Uiso   1.00
H248   H     0.93846   0.34851   0.28802   0.00000  Uiso   1.00
H249   H     0.95665   0.34724   0.35238   0.00000  Uiso   1.00
H250   H     0.96655   0.39723   0.32021   0.00000  Uiso   1.00
H251   H     0.93339   0.47634   0.20891   0.00000  Uiso   1.00
H252   H     0.67370   0.25177   0.30615   0.00000  Uiso   1.00
H253   H     0.95974   0.03128   0.22461   0.00000  Uiso   1.00
H254   H     0.96045   0.00923   0.16509   0.00000  Uiso   1.00
H255   H     0.96284   0.47185   0.29704   0.00000  Uiso   1.00
H256   H     0.96907   0.49323   0.35745   0.00000  Uiso   1.00
H257   H     0.93714   0.02588   0.30929   0.00000  Uiso   1.00
H258   H     0.92878   0.18553   0.05506   0.00000  Uiso   1.00
H259   H     0.97447   0.22105   0.09285   0.00000  Uiso   1.00
H260   H     0.98222   0.20975   0.03093   0.00000  Uiso   1.00
H261   H     0.85337   0.15614   0.49764   0.00000  Uiso   1.00
H262   H     0.83112   0.13373   0.43746   0.00000  Uiso   1.00
H263   H     0.80317   0.10902   0.31536   0.00000  Uiso   1.00
H264   H     0.80003   0.11803   0.48874   0.00000  Uiso   1.00
H265   H     0.90581   0.30197   0.15548   0.00000  Uiso   1.00
H266   H     0.75525   0.16978   0.37999   0.00000  Uiso   1.00
H267   H     0.74426   0.30619   0.49582   0.00000  Uiso   1.00
H268   H     0.70988   0.29720   0.04821   0.00000  Uiso   1.00
H269   H     0.68145   0.28102   0.48851   0.00000  Uiso   1.00
H270   H     0.81446   0.35463   0.46764   0.00000  Uiso   1.00
H271   H     0.86284   0.36935   0.42841   0.00000  Uiso   1.00
H272   H     0.87260   0.38322   0.49151   0.00000  Uiso   1.00
H273   H     0.79651   0.39034   0.17948   0.00000  Uiso   1.00
H274   H     0.75317   0.23539   0.11417   0.00000  Uiso   1.00
H275   H     0.88089   0.30675   0.38188   0.00000  Uiso   1.00
H276   H     0.74409   0.48956   0.28364   0.00000  Uiso   1.00
H277   H     0.72947   0.04610   0.30043   0.00000  Uiso   1.00
H278   H     0.73508   0.00261   0.34458   0.00000  Uiso   1.00
N279   N     0.83333   0.25001   0.12935   0.00000  Uiso   1.00
N280   N     0.83333   0.24999   0.37066   0.00000  Uiso   1.00
O281   O     0.83334   0.18572   0.29072   0.00000  Uiso   1.00
O282   O     0.79680   0.47600   0.17022   0.00000  Uiso   1.00
O283   O     0.88232   0.11822   0.17772   0.00000  Uiso   1.00
O284   O     0.89070   0.38224   0.33052   0.00000  Uiso   1.00
O285   O     0.88851   0.02808   0.17840   0.00000  Uiso   1.00
O286   O     0.89553   0.47259   0.33196   0.00000  Uiso   1.00
O287   O     0.92533   0.25414   0.04008   0.00000  Uiso   1.00
O288   O     0.78351   0.18080   0.46345   0.00000  Uiso   1.00
O289   O     0.91937   0.27952   0.13468   0.00000  Uiso   1.00
O290   O     0.77624   0.18873   0.36094   0.00000  Uiso   1.00
O291   O     0.73944   0.24065   0.01932   0.00000  Uiso   1.00
O292   O     0.83333   0.31427   0.20929   0.00000  Uiso   1.00
O293   O     0.88234   0.31753   0.47694   0.00000  Uiso   1.00
O294   O     0.83334   0.18573   0.20928   0.00000  Uiso   1.00
O295   O     0.83333   0.31427   0.29072   0.00000  Uiso   1.00
O296   O     0.75828   0.24999   0.28132   0.00000  Uiso   1.00
O297   O     0.90839   0.25000   0.21868   0.00000  Uiso   1.00
O298   O     0.75828   0.25000   0.19989   0.00000  Uiso   1.00
O299   O     0.90839   0.25000   0.30012   0.00000  Uiso   1.00
O300   O     0.80421   0.02338   0.32480   0.00000  Uiso   1.00
C301   C     0.16810   0.66497   0.25013   0.00000  Uiso   1.00
C302   C     0.19082   0.78362   0.44941   0.00000  Uiso   1.00
C303   C     0.16585   0.74857   0.02690   0.00000  Uiso   1.00
C304   C     0.16588   0.74924   0.47233   0.00000  Uiso   1.00
C305   C     0.06798   0.74961   0.23766   0.00000  Uiso   1.00
C306   C     0.26538   0.74992   0.26236   0.00000  Uiso   1.00
C307   C     0.01279   0.74867   0.23088   0.00000  Uiso   1.00
C308   C     0.32061   0.75012   0.26925   0.00000  Uiso   1.00
C309   C     0.15606   0.54643   0.28759   0.00000  Uiso   1.00
C310   C     0.15236   0.95330   0.21078   0.00000  Uiso   1.00
C311   C     0.15422   0.59244   0.28735   0.00000  Uiso   1.00
C312   C     0.16810   0.83502   0.25018   0.00000  Uiso   1.00
C313   C     0.15044   0.90726   0.21063   0.00000  Uiso   1.00
C314   C     0.17316   0.61678   0.25059   0.00000  Uiso   1.00
C315   C     0.17309   0.88325   0.25072   0.00000  Uiso   1.00
C316   C     0.19762   0.59493   0.21508   0.00000  Uiso   1.00
C317   C     0.20128   0.90542   0.29050   0.00000  Uiso   1.00
C318   C     0.20106   0.54873   0.21576   0.00000  Uiso   1.00
C319   C     0.20451   0.95170   0.29068   0.00000  Uiso   1.00
C320   C     0.17944   0.52434   0.25172   0.00000  Uiso   1.00
C321   C     0.17931   0.97578   0.25091   0.00000  Uiso   1.00
C322   C     0.08426   0.51543   0.31215   0.00000  Uiso   1.00
C323   C     0.21211   0.75315   0.05860   0.00000  Uiso   1.00
C324   C     0.07814   0.98443   0.17499   0.00000  Uiso   1.00
C325   C     0.26635   0.63332   0.19340   0.00000  Uiso   1.00
C326   C     0.27339   0.86849   0.32178   0.00000  Uiso   1.00
C327   C     0.27074   0.51070   0.19577   0.00000  Uiso   1.00
C328   C     0.27621   0.99148   0.32272   0.00000  Uiso   1.00
C329   C     0.28675   0.71593   0.05587   0.00000  Uiso   1.00
C330   C     0.15236   0.64598   0.47194   0.00000  Uiso   1.00
C331   C     0.05174   0.78336   0.01308   0.00000  Uiso   1.00
C332   C     0.18983   0.85761   0.46507   0.00000  Uiso   1.00
C333   C     0.14073   0.71559   0.44260   0.00000  Uiso   1.00
C334   C     0.21055   0.75964   0.10869   0.00000  Uiso   1.00
C335   C     0.13897   0.71808   0.39122   0.00000  Uiso   1.00
C336   C     0.12186   0.74182   0.09919   0.00000  Uiso   1.00
C337   C     0.19261   0.78192   0.39881   0.00000  Uiso   1.00
C338   C     0.11982   0.74410   0.04812   0.00000  Uiso   1.00
Cu339  Cu    0.16667   0.74999   0.29822   0.00000  Uiso   1.00
Cu340  Cu    0.16667   0.75000   0.20179   0.00000  Uiso   1.00
H341   H     0.32650   0.74662   0.19405   0.00000  Uiso   1.00
H342   H     0.07539   0.51118   0.20182   0.00000  Uiso   1.00
H343   H     0.05706   0.95419   0.18479   0.00000  Uiso   1.00
H344   H     0.05858   0.99626   0.13956   0.00000  Uiso   1.00
H345   H     0.26925   0.65202   0.22813   0.00000  Uiso   1.00
H346   H     0.27821   0.65622   0.16558   0.00000  Uiso   1.00
H347   H     0.29380   0.60539   0.19702   0.00000  Uiso   1.00
H348   H     0.27180   0.84851   0.28802   0.00000  Uiso   1.00
H349   H     0.28999   0.84724   0.35238   0.00000  Uiso   1.00
H350   H     0.29989   0.89723   0.32021   0.00000  Uiso   1.00
H351   H     0.26672   0.97634   0.20891   0.00000  Uiso   1.00
H352   H     0.00703   0.75177   0.30615   0.00000  Uiso   1.00
H353   H     0.29308   0.53128   0.22461   0.00000  Uiso   1.00
H354   H     0.29378   0.50923   0.16509   0.00000  Uiso   1.00
H355   H     0.29617   0.97185   0.29704   0.00000  Uiso   1.00
H356   H     0.30240   0.99323   0.35745   0.00000  Uiso   1.00
H357   H     0.27047   0.52588   0.30929   0.00000  Uiso   1.00
H358   H     0.26211   0.68553   0.05506   0.00000  Uiso   1.00
H359   H     0.30780   0.72105   0.09285   0.00000  Uiso   1.00
H360   H     0.31555   0.70975   0.03093   0.00000  Uiso   1.00
H361   H     0.18670   0.65614   0.49764   0.00000  Uiso   1.00
H362   H     0.16445   0.63373   0.43746   0.00000  Uiso   1.00
H363   H     0.13650   0.60902   0.31536   0.00000  Uiso   1.00
H364   H     0.13336   0.61803   0.48874   0.00000  Uiso   1.00
H365   H     0.23914   0.80197   0.15548   0.00000  Uiso   1.00
H366   H     0.08858   0.66978   0.37999   0.00000  Uiso   1.00
H367   H     0.07760   0.80619   0.49582   0.00000  Uiso   1.00
H368   H     0.04322   0.79720   0.04821   0.00000  Uiso   1.00
H369   H     0.01478   0.78102   0.48851   0.00000  Uiso   1.00
H370   H     0.14779   0.85463   0.46764   0.00000  Uiso   1.00
H371   H     0.19618   0.86935   0.42841   0.00000  Uiso   1.00
H372   H     0.20593   0.88322   0.49151   0.00000  Uiso   1.00
H373   H     0.12984   0.89034   0.17948   0.00000  Uiso   1.00
H374   H     0.08650   0.73539   0.11417   0.00000  Uiso   1.00
H375   H     0.21422   0.80675   0.38188   0.00000  Uiso   1.00
H376   H     0.07742   0.98956   0.28364   0.00000  Uiso   1.00
H377   H     0.06281   0.54610   0.30043   0.00000  Uiso   1.00
H378   H     0.06841   0.50261   0.34458   0.00000  Uiso   1.00
N379   N     0.16667   0.75001   0.12935   0.00000  Uiso   1.00
N380   N     0.16667   0.74999   0.37066   0.00000  Uiso   1.00
O381   O     0.16667   0.68572   0.29072   0.00000  Uiso   1.00
O382   O     0.13013   0.97600   0.17022   0.00000  Uiso   1.00
O383   O     0.21565   0.61822   0.17772   0.00000  Uiso   1.00
O384   O     0.22404   0.88224   0.33052   0.00000  Uiso   1.00
O385   O     0.22184   0.52808   0.17840   0.00000  Uiso   1.00
O386   O     0.22886   0.97259   0.33196   0.00000  Uiso   1.00
O387   O     0.25866   0.75414   0.04008   0.00000  Uiso   1.00
O388   O     0.11684   0.68080   0.46345   0.00000  Uiso   1.00
O389   O     0.25271   0.77952   0.13468   0.00000  Uiso   1.00
O390   O     0.10957   0.68873   0.36094   0.00000  Uiso   1.00
O391   O     0.07277   0.74065   0.01932   0.00000  Uiso   1.00
O392   O     0.16666   0.81427   0.20929   0.00000  Uiso   1.00
O393   O     0.21568   0.81753   0.47694   0.00000  Uiso   1.00
O394   O     0.16667   0.68573   0.20928   0.00000  Uiso   1.00
O395   O     0.16666   0.81427   0.29072   0.00000  Uiso   1.00
O396   O     0.09161   0.74999   0.28132   0.00000  Uiso   1.00
O397   O     0.24172   0.75000   0.21868   0.00000  Uiso   1.00
O398   O     0.09161   0.75000   0.19989   0.00000  Uiso   1.00
O399   O     0.24172   0.75000   0.30012   0.00000  Uiso   1.00
O400   O     0.13754   0.52338   0.32480   0.00000  Uiso   1.00
C401   C     0.50143   0.66497   0.25013   0.00000  Uiso   1.00
C402   C     0.52415   0.78362   0.44941   0.00000  Uiso   1.00
C403   C     0.49918   0.74857   0.02690   0.00000  Uiso   1.00
C404   C     0.49921   0.74924   0.47233   0.00000  Uiso   1.00
C405   C     0.40131   0.74961   0.23766   0.00000  Uiso   1.00
C406   C     0.59871   0.74992   0.26236   0.00000  Uiso   1.00
C407   C     0.34613   0.74867   0.23088   0.00000  Uiso   1.00
C408   C     0.65394   0.75012   0.26925   0.00000  Uiso   1.00
C409   C     0.48939   0.54643   0.28759   0.00000  Uiso   1.00
C410   C     0.48569   0.95330   0.21078   0.00000  Uiso   1.00
C411   C     0.48755   0.59244   0.28735   0.00000  Uiso   1.00
C412   C     0.50144   0.83502   0.25018   0.00000  Uiso   1.00
C413   C     0.48377   0.90726   0.21063   0.00000  Uiso   1.00
C414   C     0.50650   0.61678   0.25059   0.00000  Uiso   1.00
C415   C     0.50642   0.88325   0.25072   0.00000  Uiso   1.00
C416   C     0.53095   0.59493   0.21508   0.00000  Uiso   1.00
C417   C     0.53461   0.90542   0.29050   0.00000  Uiso   1.00
C418   C     0.53439   0.54873   0.21576   0.00000  Uiso   1.00
C419   C     0.53785   0.95170   0.29068   0.00000  Uiso   1.00
C420   C     0.51277   0.52434   0.25172   0.00000  Uiso   1.00
C421   C     0.51264   0.97578   0.25091   0.00000  Uiso   1.00
C422   C     0.41760   0.51543   0.31215   0.00000  Uiso   1.00
C423   C     0.54545   0.75315   0.05860   0.00000  Uiso   1.00
C424   C     0.41147   0.98443   0.17499   0.00000  Uiso   1.00
C425   C     0.59968   0.63332   0.19340   0.00000  Uiso   1.00
C426   C     0.60673   0.86849   0.32178   0.00000  Uiso   1.00
C427   C     0.60407   0.51070   0.19577   0.00000  Uiso   1.00
C428   C     0.60954   0.99148   0.32272   0.00000  Uiso   1.00
C429   C     0.62008   0.71593   0.05587   0.00000  Uiso   1.00
C430   C     0.48569   0.64598   0.47194   0.00000  Uiso   1.00
C431   C     0.38507   0.78336   0.01308   0.00000  Uiso   1.00
C432   C     0.52316   0.85761   0.46507   0.00000  Uiso   1.00
C433   C     0.47407   0.71559   0.44260   0.00000  Uiso   1.00
C434   C     0.54388   0.75964   0.10869   0.00000  Uiso   1.00
C435   C     0.47231   0.71808   0.39122   0.00000  Uiso   1.00
C436   C     0.45519   0.74182   0.09919   0.00000  Uiso   1.00
C437   C     0.52594   0.78192   0.39881   0.00000  Uiso   1.00
C438   C     0.45315   0.74410   0.04812   0.00000  Uiso   1.00
Cu439  Cu    0.50000   0.74999   0.29822   0.00000  Uiso   1.00
Cu440  Cu    0.50000   0.75000   0.20179   0.00000  Uiso   1.00
H441   H     0.65983   0.74662   0.19405   0.00000  Uiso   1.00
H442   H     0.40872   0.51118   0.20182   0.00000  Uiso   1.00
H443   H     0.39039   0.95419   0.18479   0.00000  Uiso   1.00
H444   H     0.39191   0.99626   0.13956   0.00000  Uiso   1.00
H445   H     0.60258   0.65202   0.22813   0.00000  Uiso   1.00
H446   H     0.61154   0.65622   0.16558   0.00000  Uiso   1.00
H447   H     0.62713   0.60539   0.19702   0.00000  Uiso   1.00
H448   H     0.60513   0.84851   0.28802   0.00000  Uiso   1.00
H449   H     0.62332   0.84724   0.35238   0.00000  Uiso   1.00
H450   H     0.63322   0.89723   0.32021   0.00000  Uiso   1.00
H451   H     0.60005   0.97634   0.20891   0.00000  Uiso   1.00
H452   H     0.34036   0.75177   0.30615   0.00000  Uiso   1.00
H453   H     0.62641   0.53128   0.22461   0.00000  Uiso   1.00
H454   H     0.62711   0.50923   0.16509   0.00000  Uiso   1.00
H455   H     0.62951   0.97185   0.29704   0.00000  Uiso   1.00
H456   H     0.63573   0.99323   0.35745   0.00000  Uiso   1.00
H457   H     0.60380   0.52588   0.30929   0.00000  Uiso   1.00
H458   H     0.59544   0.68553   0.05506   0.00000  Uiso   1.00
H459   H     0.64113   0.72105   0.09285   0.00000  Uiso   1.00
H460   H     0.64888   0.70975   0.03093   0.00000  Uiso   1.00
H461   H     0.52004   0.65614   0.49764   0.00000  Uiso   1.00
H462   H     0.49778   0.63373   0.43746   0.00000  Uiso   1.00
H463   H     0.46983   0.60902   0.31536   0.00000  Uiso   1.00
H464   H     0.46669   0.61803   0.48874   0.00000  Uiso   1.00
H465   H     0.57248   0.80197   0.15548   0.00000  Uiso   1.00
H466   H     0.42191   0.66978   0.37999   0.00000  Uiso   1.00
H467   H     0.41093   0.80619   0.49582   0.00000  Uiso   1.00
H468   H     0.37655   0.79720   0.04821   0.00000  Uiso   1.00
H469   H     0.34811   0.78102   0.48851   0.00000  Uiso   1.00
H470   H     0.48113   0.85463   0.46764   0.00000  Uiso   1.00
H471   H     0.52951   0.86935   0.42841   0.00000  Uiso   1.00
H472   H     0.53927   0.88322   0.49151   0.00000  Uiso   1.00
H473   H     0.46318   0.89034   0.17948   0.00000  Uiso   1.00
H474   H     0.41984   0.73539   0.11417   0.00000  Uiso   1.00
H475   H     0.54756   0.80675   0.38188   0.00000  Uiso   1.00
H476   H     0.41076   0.98956   0.28364   0.00000  Uiso   1.00
H477   H     0.39614   0.54610   0.30043   0.00000  Uiso   1.00
H478   H     0.40174   0.50261   0.34458   0.00000  Uiso   1.00
N479   N     0.50000   0.75001   0.12935   0.00000  Uiso   1.00
N480   N     0.50000   0.74999   0.37066   0.00000  Uiso   1.00
O481   O     0.50000   0.68572   0.29072   0.00000  Uiso   1.00
O482   O     0.46347   0.97600   0.17022   0.00000  Uiso   1.00
O483   O     0.54899   0.61822   0.17772   0.00000  Uiso   1.00
O484   O     0.55737   0.88224   0.33052   0.00000  Uiso   1.00
O485   O     0.55517   0.52808   0.17840   0.00000  Uiso   1.00
O486   O     0.56219   0.97259   0.33196   0.00000  Uiso   1.00
O487   O     0.59200   0.75414   0.04008   0.00000  Uiso   1.00
O488   O     0.45018   0.68080   0.46345   0.00000  Uiso   1.00
O489   O     0.58604   0.77952   0.13468   0.00000  Uiso   1.00
O490   O     0.44290   0.68873   0.36094   0.00000  Uiso   1.00
O491   O     0.40611   0.74065   0.01932   0.00000  Uiso   1.00
O492   O     0.50000   0.81427   0.20929   0.00000  Uiso   1.00
O493   O     0.54901   0.81753   0.47694   0.00000  Uiso   1.00
O494   O     0.50000   0.68573   0.20928   0.00000  Uiso   1.00
O495   O     0.50000   0.81427   0.29072   0.00000  Uiso   1.00
O496   O     0.42495   0.74999   0.28132   0.00000  Uiso   1.00
O497   O     0.57505   0.75000   0.21868   0.00000  Uiso   1.00
O498   O     0.42495   0.75000   0.19989   0.00000  Uiso   1.00
O499   O     0.57505   0.75000   0.30012   0.00000  Uiso   1.00
O500   O     0.47087   0.52338   0.32480   0.00000  Uiso   1.00
C501   C     0.83476   0.66497   0.25013   0.00000  Uiso   1.00
C502   C     0.85749   0.78362   0.44941   0.00000  Uiso   1.00
C503   C     0.83251   0.74857   0.02690   0.00000  Uiso   1.00
C504   C     0.83255   0.74924   0.47233   0.00000  Uiso   1.00
C505   C     0.73465   0.74961   0.23766   0.00000  Uiso   1.00
C506   C     0.93204   0.74992   0.26236   0.00000  Uiso   1.00
C507   C     0.67946   0.74867   0.23088   0.00000  Uiso   1.00
C508   C     0.98727   0.75012   0.26925   0.00000  Uiso   1.00
C509   C     0.82272   0.54643   0.28759   0.00000  Uiso   1.00
C510   C     0.81902   0.95330   0.21078   0.00000  Uiso   1.00
C511   C     0.82088   0.59244   0.28735   0.00000  Uiso   1.00
C512   C     0.83477   0.83502   0.25018   0.00000  Uiso   1.00
C513   C     0.81710   0.90726   0.21063   0.00000  Uiso   1.00
C514   C     0.83983   0.61678   0.25059   0.00000  Uiso   1.00
C515   C     0.83976   0.88325   0.25072   0.00000  Uiso   1.00
C516   C     0.86428   0.59493   0.21508   0.00000  Uiso   1.00
C517   C     0.86795   0.90542   0.29050   0.00000  Uiso   1.00
C518   C     0.86773   0.54873   0.21576   0.00000  Uiso   1.00
C519   C     0.87118   0.95170   0.29068   0.00000  Uiso   1.00
C520   C     0.84610   0.52434   0.25172   0.00000  Uiso   1.00
C521   C     0.84598   0.97578   0.25091   0.00000  Uiso   1.00
C522   C     0.75093   0.51543   0.31215   0.00000  Uiso   1.00
C523   C     0.87878   0.75315   0.05860   0.00000  Uiso   1.00
C524   C     0.74481   0.98443   0.17499   0.00000  Uiso   1.00
C525   C     0.93301   0.63332   0.19340   0.00000  Uiso   1.00
C526   C     0.94006   0.86849   0.32178   0.00000  Uiso   1.00
C527   C     0.93740   0.51070   0.19577   0.00000  Uiso   1.00
C528   C     0.94287   0.99148   0.32272   0.00000  Uiso   1.00
C529   C     0.95342   0.71593   0.05587   0.00000  Uiso   1.00
C530   C     0.81902   0.64598   0.47194   0.00000  Uiso   1.00
C531   C     0.71840   0.78336   0.01308   0.00000  Uiso   1.00
C532   C     0.85649   0.85761   0.46507   0.00000  Uiso   1.00
C533   C     0.80740   0.71559   0.44260   0.00000  Uiso   1.00
C534   C     0.87721   0.75964   0.10869   0.00000  Uiso   1.00
C535   C     0.80564   0.71808   0.39122   0.00000  Uiso   1.00
C536   C     0.78853   0.74182   0.09919   0.00000  Uiso   1.00
C537   C     0.85927   0.78192   0.39881   0.00000  Uiso   1.00
C538   C     0.78648   0.74410   0.04812   0.00000  Uiso   1.00
Cu539  Cu    0.83333   0.74999   0.29822   0.00000  Uiso   1.00
Cu540  Cu    0.83333   0.75000   0.20179   0.00000  Uiso   1.00
H541   H     0.99316   0.74662   0.19405   0.00000  Uiso   1.00
H542   H     0.74205   0.51118   0.20182   0.00000  Uiso   1.00
H543   H     0.72373   0.95419   0.18479   0.00000  Uiso   1.00
H544   H     0.72524   0.99626   0.13956   0.00000  Uiso   1.00
H545   H     0.93592   0.65202   0.22813   0.00000  Uiso   1.00
H546   H     0.94488   0.65622   0.16558   0.00000  Uiso   1.00
H547   H     0.96047   0.60539   0.19702   0.00000  Uiso   1.00
H548   H     0.93846   0.84851   0.28802   0.00000  Uiso   1.00
H549   H     0.95665   0.84724   0.35238   0.00000  Uiso   1.00
H550   H     0.96655   0.89723   0.32021   0.00000  Uiso   1.00
H551   H     0.93339   0.97634   0.20891   0.00000  Uiso   1.00
H552   H     0.67370   0.75177   0.30615   0.00000  Uiso   1.00
H553   H     0.95974   0.53128   0.22461   0.00000  Uiso   1.00
H554   H     0.96045   0.50923   0.16509   0.00000  Uiso   1.00
H555   H     0.96284   0.97185   0.29704   0.00000  Uiso   1.00
H556   H     0.96907   0.99323   0.35745   0.00000  Uiso   1.00
H557   H     0.93714   0.52588   0.30929   0.00000  Uiso   1.00
H558   H     0.92878   0.68553   0.05506   0.00000  Uiso   1.00
H559   H     0.97447   0.72105   0.09285   0.00000  Uiso   1.00
H560   H     0.98222   0.70975   0.03093   0.00000  Uiso   1.00
H561   H     0.85337   0.65614   0.49764   0.00000  Uiso   1.00
H562   H     0.83112   0.63373   0.43746   0.00000  Uiso   1.00
H563   H     0.80317   0.60902   0.31536   0.00000  Uiso   1.00
H564   H     0.80003   0.61803   0.48874   0.00000  Uiso   1.00
H565   H     0.90581   0.80197   0.15548   0.00000  Uiso   1.00
H566   H     0.75525   0.66978   0.37999   0.00000  Uiso   1.00
H567   H     0.74426   0.80619   0.49582   0.00000  Uiso   1.00
H568   H     0.70988   0.79720   0.04821   0.00000  Uiso   1.00
H569   H     0.68145   0.78102   0.48851   0.00000  Uiso   1.00
H570   H     0.81446   0.85463   0.46764   0.00000  Uiso   1.00
H571   H     0.86284   0.86935   0.42841   0.00000  Uiso   1.00
H572   H     0.87260   0.88322   0.49151   0.00000  Uiso   1.00
H573   H     0.79651   0.89034   0.17948   0.00000  Uiso   1.00
H574   H     0.75317   0.73539   0.11417   0.00000  Uiso   1.00
H575   H     0.88089   0.80675   0.38188   0.00000  Uiso   1.00
H576   H     0.74409   0.98956   0.28364   0.00000  Uiso   1.00
H577   H     0.72947   0.54610   0.30043   0.00000  Uiso   1.00
H578   H     0.73508   0.50261   0.34458   0.00000  Uiso   1.00
N579   N     0.83333   0.75001   0.12935   0.00000  Uiso   1.00
N580   N     0.83333   0.74999   0.37066   0.00000  Uiso   1.00
O581   O     0.83334   0.68572   0.29072   0.00000  Uiso   1.00
O582   O     0.79680   0.97600   0.17022   0.00000  Uiso   1.00
O583   O     0.88232   0.61822   0.17772   0.00000  Uiso   1.00
O584   O     0.89070   0.88224   0.33052   0.00000  Uiso   1.00
O585   O     0.88851   0.52808   0.17840   0.00000  Uiso   1.00
O586   O     0.89553   0.97259   0.33196   0.00000  Uiso   1.00
O587   O     0.92533   0.75414   0.04008   0.00000  Uiso   1.00
O588   O     0.78351   0.68080   0.46345   0.00000  Uiso   1.00
O589   O     0.91937   0.77952   0.13468   0.00000  Uiso   1.00
O590   O     0.77624   0.68873   0.36094   0.00000  Uiso   1.00
O591   O     0.73944   0.74065   0.01932   0.00000  Uiso   1.00
O592   O     0.83333   0.81427   0.20929   0.00000  Uiso   1.00
O593   O     0.88234   0.81753   0.47694   0.00000  Uiso   1.00
O594   O     0.83334   0.68573   0.20928   0.00000  Uiso   1.00
O595   O     0.83333   0.81427   0.29072   0.00000  Uiso   1.00
O596   O     0.75828   0.74999   0.28132   0.00000  Uiso   1.00
O597   O     0.90839   0.75000   0.21868   0.00000  Uiso   1.00
O598   O     0.75828   0.75000   0.19989   0.00000  Uiso   1.00
O599   O     0.90839   0.75000   0.30012   0.00000  Uiso   1.00
O600   O     0.80421   0.52338   0.32480   0.00000  Uiso   1.00
C601   C     0.16810   0.16497   0.75013   0.00000  Uiso   1.00
C602   C     0.19082   0.28362   0.94941   0.00000  Uiso   1.00
C603   C     0.16585   0.24857   0.52690   0.00000  Uiso   1.00
C604   C     0.16588   0.24924   0.97233   0.00000  Uiso   1.00
C605   C     0.06798   0.24961   0.73766   0.00000  Uiso   1.00
C606   C     0.26538   0.24992   0.76236   0.00000  Uiso   1.00
C607   C     0.01279   0.24867   0.73088   0.00000  Uiso   1.00
C608   C     0.32061   0.25012   0.76925   0.00000  Uiso   1.00
C609   C     0.15606   0.04643   0.78759   0.00000  Uiso   1.00
C610   C     0.15236   0.45330   0.71078   0.00000  Uiso   1.00
C611   C     0.15422   0.09244   0.78735   0.00000  Uiso   1.00
C612   C     0.16810   0.33502   0.75018   0.00000  Uiso   1.00
C613   C     0.15044   0.40726   0.71063   0.00000  Uiso   1.00
C614   C     0.17316   0.11678   0.75059   0.00000  Uiso   1.00
C615   C     0.17309   0.38325   0.75072   0.00000  Uiso   1.00
C616   C     0.19762   0.09493   0.71508   0.00000  Uiso   1.00
C617   C     0.20128   0.40542   0.79050   0.00000  Uiso   1.00
C618   C     0.20106   0.04873   0.71576   0.00000  Uiso   1.00
C619   C     0.20451   0.45170   0.79068   0.00000  Uiso   1.00
C620   C     0.17944   0.02434   0.75172   0.00000  Uiso   1.00
C621   C     0.17931   0.47578   0.75091   0.00000  Uiso   1.00
C622   C     0.08426   0.01543   0.81215   0.00000  Uiso   1.00
C623   C     0.21211   0.25315   0.55860   0.00000  Uiso   1.00
C624   C     0.07814   0.48443   0.67499   0.00000  Uiso   1.00
C625   C     0.26635   0.13332   0.69340   0.00000  Uiso   1.00
C626   C     0.27339   0.36849   0.82178   0.00000  Uiso   1.00
C627   C     0.27074   0.01070   0.69577   0.00000  Uiso   1.00
C628   C     0.27621   0.49148   0.82272   0.00000  Uiso   1.00
C629   C     0.28675   0.21593   0.55587   0.00000  Uiso   1.00
C630   C     0.15236   0.14598   0.97194   0.00000  Uiso   1.00
C631   C     0.05174   0.28336   0.51308   0.00000  Uiso   1.00
C632   C     0.18983   0.35761   0.96507   0.00000  Uiso   1.00
C633   C     0.14073   0.21559   0.94260   0.00000  Uiso   1.00
C634   C     0.21055   0.25964   0.60869   0.00000  Uiso   1.00
C635   C     0.13897   0.21808   0.89122   0.00000  Uiso   1.00
C636   C     0.12186   0.24182   0.59919   0.00000  Uiso   1.00
C637   C     0.19261   0.28192   0.89881   0.00000  Uiso   1.00
C638   C     0.11982   0.24410   0.54812   0.00000  Uiso   1.00
Cu639  Cu    0.16667   0.24999   0.79822   0.00000  Uiso   1.00
Cu640  Cu    0.16667   0.25000   0.70179   0.00000  Uiso   1.00
H641   H     0.32650   0.24662   0.69405   0.00000  Uiso   1.00
H642   H     0.07539   0.01118   0.70182   0.00000  Uiso   1.00
H643   H     0.05706   0.45419   0.68479   0.00000  Uiso   1.00
H644   H     0.05858   0.49626   0.63956   0.00000  Uiso   1.00
H645   H     0.26925   0.15202   0.72813   0.00000  Uiso   1.00
H646   H     0.27821   0.15622   0.66558   0.00000  Uiso   1.00
H647   H     0.29380   0.10539   0.69702   0.00000  Uiso   1.00
H648   H     0.27180   0.34851   0.78802   0.00000  Uiso   1.00
H649   H     0.28999   0.34724   0.85238   0.00000  Uiso   1.00
H650   H     0.29989   0.39723   0.82021   0.00000  Uiso   1.00
H651   H     0.26672   0.47634   0.70891   0.00000  Uiso   1.00
H652   H     0.00703   0.25177   0.80615   0.00000  Uiso   1.00
H653   H     0.29308   0.03128   0.72461   0.00000  Uiso   1.00
H654   H     0.29378   0.00923   0.66509   0.00000  Uiso   1.00
H655   H     0.29617   0.47185   0.79704   0.00000  Uiso   1.00
H656   H     0.30240   0.49323   0.85745   0.00000  Uiso   1.00
H657   H     0.27047   0.02588   0.80929   0.00000  Uiso   1.00
H658   H     0.26211   0.18553   0.55506   0.00000  Uiso   1.00
H659   H     0.30780   0.22105   0.59285   0.00000  Uiso   1.00
H660   H     0.31555   0.20975   0.53093   0.00000  Uiso   1.00
H661   H     0.18670   0.15614   0.99764   0.00000  Uiso   1.00
H662   H     0.16445   0.13373   0.93746   0.00000  Uiso   1.00
H663   H     0.13650   0.10902   0.81536   0.00000  Uiso   1.00
H664   H     0.13336   0.11803   0.98874   0.00000  Uiso   1.00
H665   H     0.23914   0.30197   0.65548   0.00000  Uiso   1.00
H666   H     0.08858   0.16978   0.87999   0.00000  Uiso   1.00
H667   H     0.07760   0.30619   0.99582   0.00000  Uiso   1.00
H668   H     0.04322   0.29720   0.54821   0.00000  Uiso   1.00
H669   H     0.01478   0.28102   0.98851   0.00000  Uiso   1.00
H670   H     0.14779   0.35463   0.96764   0.00000  Uiso   1.00
H671   H     0.19618   0.36935   0.92841   0.00000  Uiso   1.00
H672   H     0.20593   0.38322   0.99151   0.00000  Uiso   1.00
H673   H     0.12984   0.39034   0.67948   0.00000  Uiso   1.00
H674   H     0.08650   0.23539   0.61417   0.00000  Uiso   1.00
H675   H     0.21422   0.30675   0.88188   0.00000  Uiso   1.00
H676   H     0.07742   0.48956   0.78364   0.00000  Uiso   1.00
H677   H     0.06281   0.04610   0.80043   0.00000  Uiso   1.00
H678   H     0.06841   0.00261   0.84458   0.00000  Uiso   1.00
N679   N     0.16667   0.25001   0.62935   0.00000  Uiso   1.00
N680   N     0.16667   0.24999   0.87066   0.00000  Uiso   1.00
O681   O     0.16667   0.18572   0.79072   0.00000  Uiso   1.00
O682   O     0.13013   0.47600   0.67022   0.00000  Uiso   1.00
O683   O     0.21565   0.11822   0.67772   0.00000  Uiso   1.00
O684   O     0.22404   0.38224   0.83052   0.00000  Uiso   1.00
O685   O     0.22184   0.02808   0.67840   0.00000  Uiso   1.00
O686   O     0.22886   0.47259   0.83196   0.00000  Uiso   1.00
O687   O     0.25866   0.25414   0.54008   0.00000  Uiso   1.00
O688   O     0.11684   0.18080   0.96345   0.00000  Uiso   1.00
O689   O     0.25271   0.27952   0.63468   0.00000  Uiso   1.00
O690   O     0.10957   0.18873   0.86094   0.00000  Uiso   1.00
O691   O     0.07277   0.24065   0.51932   0.00000  Uiso   1.00
O692   O     0.16666   0.31427   0.70929   0.00000  Uiso   1.00
O693   O     0.21568   0.31753   0.97694   0.00000  Uiso   1.00
O694   O     0.16667   0.18573   0.70928   0.00000  Uiso   1.00
O695   O     0.16666   0.31427   0.79072   0.00000  Uiso   1.00
O696   O     0.09161   0.24999   0.78132   0.00000  Uiso   1.00
O697   O     0.24172   0.25000   0.71868   0.00000  Uiso   1.00
O698   O     0.09161   0.25000   0.69989   0.00000  Uiso   1.00
O699   O     0.24172   0.25000   0.80012   0.00000  Uiso   1.00
O700   O     0.13754   0.02338   0.82480   0.00000  Uiso   1.00
C701   C     0.50143   0.16497   0.75013   0.00000  Uiso   1.00
C702   C     0.52415   0.28362   0.94941   0.00000  Uiso   1.00
C703   C     0.49918   0.24857   0.52690   0.00000  Uiso   1.00
C704   C     0.49921   0.24924   0.97233   0.00000  Uiso   1.00
C705   C     0.40131   0.24961   0.73766   0.00000  Uiso   1.00
C706   C     0.59871   0.24992   0.76236   0.00000  Uiso   1.00
C707   C     0.34613   0.24867   0.73088   0.00000  Uiso   1.00
C708   C     0.65394   0.25012   0.76925   0.00000  Uiso   1.00
C709   C     0.48939   0.04643   0.78759   0.00000  Uiso   1.00
C710   C     0.48569   0.45330   0.71078   0.00000  Uiso   1.00
C711   C     0.48755   0.09244   0.78735   0.00000  Uiso   1.00
C712   C     0.50144   0.33502   0.75018   0.00000  Uiso   1.00
C713   C     0.48377   0.40726   0.71063   0.00000  Uiso   1.00
C714   C     0.50650   0.11678   0.75059   0.00000  Uiso   1.00
C715   C     0.50642   0.38325   0.75072   0.00000  Uiso   1.00
C716   C     0.53095   0.09493   0.71508   0.00000  Uiso   1.00
C717   C     0.53461   0.40542   0.79050   0.00000  Uiso   1.00
C718   C     0.53439   0.04873   0.71576   0.00000  Uiso   1.00
C719   C     0.53785   0.45170   0.79068   0.00000  Uiso   1.00
C720   C     0.51277   0.02434   0.75172   0.00000  Uiso   1.00
C721   C     0.51264   0.47578   0.75091   0.00000  Uiso   1.00
C722   C     0.41760   0.01543   0.81215   0.00000  Uiso   1.00
C723   C     0.54545   0.25315   0.55860   0.00000  Uiso   1.00
C724   C     0.41147   0.48443   0.67499   0.00000  Uiso   1.00
C725   C     0.59968   0.13332   0.69340   0.00000  Uiso   1.00
C726   C     0.60673   0.36849   0.82178   0.00000  Uiso   1.00
C727   C     0.60407   0.01070   0.69577   0.00000  Uiso   1.00
C728   C     0.60954   0.49148   0.82272   0.00000  Uiso   1.00
C729   C     0.62008   0.21593   0.55587   0.00000  Uiso   1.00
C730   C     0.48569   0.14598   0.97194   0.00000  Uiso   1.00
C731   C     0.38507   0.28336   0.51308   0.00000  Uiso   1.00
C732   C     0.52316   0.35761   0.96507   0.00000  Uiso   1.00
C733   C     0.47407   0.21559   0.94260   0.00000  Uiso   1.00
C734   C     0.54388   0.25964   0.60869   0.00000  Uiso   1.00
C735   C     0.47231   0.21808   0.89122   0.00000  Uiso   1.00
C736   C     0.45519   0.24182   0.59919   0.00000  Uiso   1.00
C737   C     0.52594   0.28192   0.89881   0.00000  Uiso   1.00
C738   C     0.45315   0.24410   0.54812   0.00000  Uiso   1.00
Cu739  Cu    0.50000   0.24999   0.79822   0.00000  Uiso   1.00
Cu740  Cu    0.50000   0.25000   0.70179   0.00000  Uiso   1.00
H741   H     0.65983   0.24662   0.69405   0.00000  Uiso   1.00
H742   H     0.40872   0.01118   0.70182   0.00000  Uiso   1.00
H743   H     0.39039   0.45419   0.68479   0.00000  Uiso   1.00
H744   H     0.39191   0.49626   0.63956   0.00000  Uiso   1.00
H745   H     0.60258   0.15202   0.72813   0.00000  Uiso   1.00
H746   H     0.61154   0.15622   0.66558   0.00000  Uiso   1.00
H747   H     0.62713   0.10539   0.69702   0.00000  Uiso   1.00
H748   H     0.60513   0.34851   0.78802   0.00000  Uiso   1.00
H749   H     0.62332   0.34724   0.85238   0.00000  Uiso   1.00
H750   H     0.63322   0.39723   0.82021   0.00000  Uiso   1.00
H751   H     0.60005   0.47634   0.70891   0.00000  Uiso   1.00
H752   H     0.34036   0.25177   0.80615   0.00000  Uiso   1.00
H753   H     0.62641   0.03128   0.72461   0.00000  Uiso   1.00
H754   H     0.62711   0.00923   0.66509   0.00000  Uiso   1.00
H755   H     0.62951   0.47185   0.79704   0.00000  Uiso   1.00
H756   H     0.63573   0.49323   0.85745   0.00000  Uiso   1.00
H757   H     0.60380   0.02588   0.80929   0.00000  Uiso   1.00
H758   H     0.59544   0.18553   0.55506   0.00000  Uiso   1.00
H759   H     0.64113   0.22105   0.59285   0.00000  Uiso   1.00
H760   H     0.64888   0.20975   0.53093   0.00000  Uiso   1.00
H761   H     0.52004   0.15614   0.99764   0.00000  Uiso   1.00
H762   H     0.49778   0.13373   0.93746   0.00000  Uiso   1.00
H763   H     0.46983   0.10902   0.81536   0.00000  Uiso   1.00
H764   H     0.46669   0.11803   0.98874   0.00000  Uiso   1.00
H765   H     0.57248   0.30197   0.65548   0.00000  Uiso   1.00
H766   H     0.42191   0.16978   0.87999   0.00000  Uiso   1.00
H767   H     0.41093   0.30619   0.99582   0.00000  Uiso   1.00
H768   H     0.37655   0.29720   0.54821   0.00000  Uiso   1.00
H769   H     0.34811   0.28102   0.98851   0.00000  Uiso   1.00
H770   H     0.48113   0.35463   0.96764   0.00000  Uiso   1.00
H771   H     0.52951   0.36935   0.92841   0.00000  Uiso   1.00
H772   H     0.53927   0.38322   0.99151   0.00000  Uiso   1.00
H773   H     0.46318   0.39034   0.67948   0.00000  Uiso   1.00
H774   H     0.41984   0.23539   0.61417   0.00000  Uiso   1.00
H775   H     0.54756   0.30675   0.88188   0.00000  Uiso   1.00
H776   H     0.41076   0.48956   0.78364   0.00000  Uiso   1.00
H777   H     0.39614   0.04610   0.80043   0.00000  Uiso   1.00
H778   H     0.40174   0.00261   0.84458   0.00000  Uiso   1.00
N779   N     0.50000   0.25001   0.62935   0.00000  Uiso   1.00
N780   N     0.50000   0.24999   0.87066   0.00000  Uiso   1.00
O781   O     0.50000   0.18572   0.79072   0.00000  Uiso   1.00
O782   O     0.46347   0.47600   0.67022   0.00000  Uiso   1.00
O783   O     0.54899   0.11822   0.67772   0.00000  Uiso   1.00
O784   O     0.55737   0.38224   0.83052   0.00000  Uiso   1.00
O785   O     0.55517   0.02808   0.67840   0.00000  Uiso   1.00
O786   O     0.56219   0.47259   0.83196   0.00000  Uiso   1.00
O787   O     0.59200   0.25414   0.54008   0.00000  Uiso   1.00
O788   O     0.45018   0.18080   0.96345   0.00000  Uiso   1.00
O789   O     0.58604   0.27952   0.63468   0.00000  Uiso   1.00
O790   O     0.44290   0.18873   0.86094   0.00000  Uiso   1.00
O791   O     0.40611   0.24065   0.51932   0.00000  Uiso   1.00
O792   O     0.50000   0.31427   0.70929   0.00000  Uiso   1.00
O793   O     0.54901   0.31753   0.97694   0.00000  Uiso   1.00
O794   O     0.50000   0.18573   0.70928   0.00000  Uiso   1.00
O795   O     0.50000   0.31427   0.79072   0.00000  Uiso   1.00
O796   O     0.42495   0.24999   0.78132   0.00000  Uiso   1.00
O797   O     0.57505   0.25000   0.71868   0.00000  Uiso   1.00
O798   O     0.42495   0.25000   0.69989   0.00000  Uiso   1.00
O799   O     0.57505   0.25000   0.80012   0.00000  Uiso   1.00
O800   O     0.47087   0.02338   0.82480   0.00000  Uiso   1.00
C801   C     0.83476   0.16497   0.75013   0.00000  Uiso   1.00
C802   C     0.85749   0.28362   0.94941   0.00000  Uiso   1.00
C803   C     0.83251   0.24857   0.52690   0.00000  Uiso   1.00
C804   C     0.83255   0.24924   0.97233   0.00000  Uiso   1.00
C805   C     0.73465   0.24961   0.73766   0.00000  Uiso   1.00
C806   C     0.93204   0.24992   0.76236   0.00000  Uiso   1.00
C807   C     0.67946   0.24867   0.73088   0.00000  Uiso   1.00
C808   C     0.98727   0.25012   0.76925   0.00000  Uiso   1.00
C809   C     0.82272   0.04643   0.78759   0.00000  Uiso   1.00
C810   C     0.81902   0.45330   0.71078   0.00000  Uiso   1.00
C811   C     0.82088   0.09244   0.78735   0.00000  Uiso   1.00
C812   C     0.83477   0.33502   0.75018   0.00000  Uiso   1.00
C813   C     0.81710   0.40726   0.71063   0.00000  Uiso   1.00
C814   C     0.83983   0.11678   0.75059   0.00000  Uiso   1.00
C815   C     0.83976   0.38325   0.75072   0.00000  Uiso   1.00
C816   C     0.86428   0.09493   0.71508   0.00000  Uiso   1.00
C817   C     0.86795   0.40542   0.79050   0.00000  Uiso   1.00
C818   C     0.86773   0.04873   0.71576   0.00000  Uiso   1.00
C819   C     0.87118   0.45170   0.79068   0.00000  Uiso   1.00
C820   C     0.84610   0.02434   0.75172   0.00000  Uiso   1.00
C821   C     0.84598   0.47578   0.75091   0.00000  Uiso   1.00
C822   C     0.75093   0.01543   0.81215   0.00000  Uiso   1.00
C823   C     0.87878   0.25315   0.55860   0.00000  Uiso   1.00
C824   C     0.74481   0.48443   0.67499   0.00000  Uiso   1.00
C825   C     0.93301   0.13332   0.69340   0.00000  Uiso   1.00
C826   C     0.94006   0.36849   0.82178   0.00000  Uiso   1.00
C827   C     0.93740   0.01070   0.69577   0.00000  Uiso   1.00
C828   C     0.94287   0.49148   0.82272   0.00000  Uiso   1.00
C829   C     0.95342   0.21593   0.55587   0.00000  Uiso   1.00
C830   C     0.81902   0.14598   0.97194   0.00000  Uiso   1.00
C831   C     0.71840   0.28336   0.51308   0.00000  Uiso   1.00
C832   C     0.85649   0.35761   0.96507   0.00000  Uiso   1.00
C833   C     0.80740   0.21559   0.94260   0.00000  Uiso   1.00
C834   C     0.87721   0.25964   0.60869   0.00000  Uiso   1.00
C835   C     0.80564   0.21808   0.89122   0.00000  Uiso   1.00
C836   C     0.78853   0.24182   0.59919   0.00000  Uiso   1.00
C837   C     0.85927   0.28192   0.89881   0.00000  Uiso   1.00
C838   C     0.78648   0.24410   0.54812   0.00000  Uiso   1.00
Cu839  Cu    0.83333   0.24999   0.79822   0.00000  Uiso   1.00
Cu840  Cu    0.83333   0.25000   0.70179   0.00000  Uiso   1.00
H841   H     0.99316   0.24662   0.69405   0.00000  Uiso   1.00
H842   H     0.74205   0.01118   0.70182   0.00000  Uiso   1.00
H843   H     0.72373   0.45419   0.68479   0.00000  Uiso   1.00
H844   H     0.72524   0.49626   0.63956   0.00000  Uiso   1.00
H845   H     0.93592   0.15202   0.72813   0.00000  Uiso   1.00
H846   H     0.94488   0.15622   0.66558   0.00000  Uiso   1.00
H847   H     0.96047   0.10539   0.69702   0.00000  Uiso   1.00
H848   H     0.93846   0.34851   0.78802   0.00000  Uiso   1.00
H849   H     0.95665   0.34724   0.85238   0.00000  Uiso   1.00
H850   H     0.96655   0.39723   0.82021   0.00000  Uiso   1.00
H851   H     0.93339   0.47634   0.70891   0.00000  Uiso   1.00
H852   H     0.67370   0.25177   0.80615   0.00000  Uiso   1.00
H853   H     0.95974   0.03128   0.72461   0.00000  Uiso   1.00
H854   H     0.96045   0.00923   0.66509   0.00000  Uiso   1.00
H855   H     0.96284   0.47185   0.79704   0.00000  Uiso   1.00
H856   H     0.96907   0.49323   0.85745   0.00000  Uiso   1.00
H857   H     0.93714   0.02588   0.80929   0.00000  Uiso   1.00
H858   H     0.92878   0.18553   0.55506   0.00000  Uiso   1.00
H859   H     0.97447   0.22105   0.59285   0.00000  Uiso   1.00
H860   H     0.98222   0.20975   0.53093   0.00000  Uiso   1.00
H861   H     0.85337   0.15614   0.99764   0.00000  Uiso   1.00
H862   H     0.83112   0.13373   0.93746   0.00000  Uiso   1.00
H863   H     0.80317   0.10902   0.81536   0.00000  Uiso   1.00
H864   H     0.80003   0.11803   0.98874   0.00000  Uiso   1.00
H865   H     0.90581   0.30197   0.65548   0.00000  Uiso   1.00
H866   H     0.75525   0.16978   0.87999   0.00000  Uiso   1.00
H867   H     0.74426   0.30619   0.99582   0.00000  Uiso   1.00
H868   H     0.70988   0.29720   0.54821   0.00000  Uiso   1.00
H869   H     0.68145   0.28102   0.98851   0.00000  Uiso   1.00
H870   H     0.81446   0.35463   0.96764   0.00000  Uiso   1.00
H871   H     0.86284   0.36935   0.92841   0.00000  Uiso   1.00
H872   H     0.87260   0.38322   0.99151   0.00000  Uiso   1.00
H873   H     0.79651   0.39034   0.67948   0.00000  Uiso   1.00
H874   H     0.75317   0.23539   0.61417   0.00000  Uiso   1.00
H875   H     0.88089   0.30675   0.88188   0.00000  Uiso   1.00
H876   H     0.74409   0.48956   0.78364   0.00000  Uiso   1.00
H877   H     0.72947   0.04610   0.80043   0.00000  Uiso   1.00
H878   H     0.73508   0.00261   0.84458   0.00000  Uiso   1.00
N879   N     0.83333   0.25001   0.62935   0.00000  Uiso   1.00
N880   N     0.83333   0.24999   0.87066   0.00000  Uiso   1.00
O881   O     0.83334   0.18572   0.79072   0.00000  Uiso   1.00
O882   O     0.79680   0.47600   0.67022   0.00000  Uiso   1.00
O883   O     0.88232   0.11822   0.67772   0.00000  Uiso   1.00
O884   O     0.89070   0.38224   0.83052   0.00000  Uiso   1.00
O885   O     0.88851   0.02808   0.67840   0.00000  Uiso   1.00
O886   O     0.89553   0.47259   0.83196   0.00000  Uiso   1.00
O887   O     0.92533   0.25414   0.54008   0.00000  Uiso   1.00
O888   O     0.78351   0.18080   0.96345   0.00000  Uiso   1.00
O889   O     0.91937   0.27952   0.63468   0.00000  Uiso   1.00
O890   O     0.77624   0.18873   0.86094   0.00000  Uiso   1.00
O891   O     0.73944   0.24065   0.51932   0.00000  Uiso   1.00
O892   O     0.83333   0.31427   0.70929   0.00000  Uiso   1.00
O893   O     0.88234   0.31753   0.97694   0.00000  Uiso   1.00
O894   O     0.83334   0.18573   0.70928   0.00000  Uiso   1.00
O895   O     0.83333   0.31427   0.79072   0.00000  Uiso   1.00
O896   O     0.75828   0.24999   0.78132   0.00000  Uiso   1.00
O897   O     0.90839   0.25000   0.71868   0.00000  Uiso   1.00
O898   O     0.75828   0.25000   0.69989   0.00000  Uiso   1.00
O899   O     0.90839   0.25000   0.80012   0.00000  Uiso   1.00
O900   O     0.80421   0.02338   0.82480   0.00000  Uiso   1.00
C901   C     0.16810   0.66497   0.75013   0.00000  Uiso   1.00
C902   C     0.19082   0.78362   0.94941   0.00000  Uiso   1.00
C903   C     0.16585   0.74857   0.52690   0.00000  Uiso   1.00
C904   C     0.16588   0.74924   0.97233   0.00000  Uiso   1.00
C905   C     0.06798   0.74961   0.73766   0.00000  Uiso   1.00
C906   C     0.26538   0.74992   0.76236   0.00000  Uiso   1.00
C907   C     0.01279   0.74867   0.73088   0.00000  Uiso   1.00
C908   C     0.32061   0.75012   0.76925   0.00000  Uiso   1.00
C909   C     0.15606   0.54643   0.78759   0.00000  Uiso   1.00
C910   C     0.15236   0.95330   0.71078   0.00000  Uiso   1.00
C911   C     0.15422   0.59244   0.78735   0.00000  Uiso   1.00
C912   C     0.16810   0.83502   0.75018   0.00000  Uiso   1.00
C913   C     0.15044   0.90726   0.71063   0.00000  Uiso   1.00
C914   C     0.17316   0.61678   0.75059   0.00000  Uiso   1.00
C915   C     0.17309   0.88325   0.75072   0.00000  Uiso   1.00
C916   C     0.19762   0.59493   0.71508   0.00000  Uiso   1.00
C917   C     0.20128   0.90542   0.79050   0.00000  Uiso   1.00
C918   C     0.20106   0.54873   0.71576   0.00000  Uiso   1.00
C919   C     0.20451   0.95170   0.79068   0.00000  Uiso   1.00
C920   C     0.17944   0.52434   0.75172   0.00000  Uiso   1.00
C921   C     0.17931   0.97578   0.75091   0.00000  Uiso   1.00
C922   C     0.08426   0.51543   0.81215   0.00000  Uiso   1.00
C923   C     0.21211   0.75315   0.55860   0.00000  Uiso   1.00
C924   C     0.07814   0.98443   0.67499   0.00000  Uiso   1.00
C925   C     0.26635   0.63332   0.69340   0.00000  Uiso   1.00
C926   C     0.27339   0.86849   0.82178   0.00000  Uiso   1.00
C927   C     0.27074   0.51070   0.69577   0.00000  Uiso   1.00
C928   C     0.27621   0.99148   0.82272   0.00000  Uiso   1.00
C929   C     0.28675   0.71593   0.55587   0.00000  Uiso   1.00
C930   C     0.15236   0.64598   0.97194   0.00000  Uiso   1.00
C931   C     0.05174   0.78336   0.51308   0.00000  Uiso   1.00
C932   C     0.18983   0.85761   0.96507   0.00000  Uiso   1.00
C933   C     0.14073   0.71559   0.94260   0.00000  Uiso   1.00
C934   C     0.21055   0.75964   0.60869   0.00000  Uiso   1.00
C935   C     0.13897   0.71808   0.89122   0.00000  Uiso   1.00
C936   C     0.12186   0.74182   0.59919   0.00000  Uiso   1.00
C937   C     0.19261   0.78192   0.89881   0.00000  Uiso   1.00
C938   C     0.11982   0.74410   0.54812   0.00000  Uiso   1.00
Cu939  Cu    0.16667   0.74999   0.79822   0.00000  Uiso   1.00
Cu940  Cu    0.16667   0.75000   0.70179   0.00000  Uiso   1.00
H941   H     0.32650   0.74662   0.69405   0.00000  Uiso   1.00
H942   H     0.07539   0.51118   0.70182   0.00000  Uiso   1.00
H943   H     0.05706   0.95419   0.68479   0.00000  Uiso   1.00
H944   H     0.05858   0.99626   0.63956   0.00000  Uiso   1.00
H945   H     0.26925   0.65202   0.72813   0.00000  Uiso   1.00
H946   H     0.27821   0.65622   0.66558   0.00000  Uiso   1.00
H947   H     0.29380   0.60539   0.69702   0.00000  Uiso   1.00
H948   H     0.27180   0.84851   0.78802   0.00000  Uiso   1.00
H949   H     0.28999   0.84724   0.85238   0.00000  Uiso   1.00
H950   H     0.29989   0.89723   0.82021   0.00000  Uiso   1.00
H951   H     0.26672   0.97634   0.70891   0.00000  Uiso   1.00
H952   H     0.00703   0.75177   0.80615   0.00000  Uiso   1.00
H953   H     0.29308   0.53128   0.72461   0.00000  Uiso   1.00
H954   H     0.29378   0.50923   0.66509   0.00000  Uiso   1.00
H955   H     0.29617   0.97185   0.79704   0.00000  Uiso   1.00
H956   H     0.30240   0.99323   0.85745   0.00000  Uiso   1.00
H957   H     0.27047   0.52588   0.80929   0.00000  Uiso   1.00
H958   H     0.26211   0.68553   0.55506   0.00000  Uiso   1.00
H959   H     0.30780   0.72105   0.59285   0.00000  Uiso   1.00
H960   H     0.31555   0.70975   0.53093   0.00000  Uiso   1.00
H961   H     0.18670   0.65614   0.99764   0.00000  Uiso   1.00
H962   H     0.16445   0.63373   0.93746   0.00000  Uiso   1.00
H963   H     0.13650   0.60902   0.81536   0.00000  Uiso   1.00
H964   H     0.13336   0.61803   0.98874   0.00000  Uiso   1.00
H965   H     0.23914   0.80197   0.65548   0.00000  Uiso   1.00
H966   H     0.08858   0.66978   0.87999   0.00000  Uiso   1.00
H967   H     0.07760   0.80619   0.99582   0.00000  Uiso   1.00
H968   H     0.04322   0.79720   0.54821   0.00000  Uiso   1.00
H969   H     0.01478   0.78102   0.98851   0.00000  Uiso   1.00
H970   H     0.14779   0.85463   0.96764   0.00000  Uiso   1.00
H971   H     0.19618   0.86935   0.92841   0.00000  Uiso   1.00
H972   H     0.20593   0.88322   0.99151   0.00000  Uiso   1.00
H973   H     0.12984   0.89034   0.67948   0.00000  Uiso   1.00
H974   H     0.08650   0.73539   0.61417   0.00000  Uiso   1.00
H975   H     0.21422   0.80675   0.88188   0.00000  Uiso   1.00
H976   H     0.07742   0.98956   0.78364   0.00000  Uiso   1.00
H977   H     0.06281   0.54610   0.80043   0.00000  Uiso   1.00
H978   H     0.06841   0.50261   0.84458   0.00000  Uiso   1.00
N979   N     0.16667   0.75001   0.62935   0.00000  Uiso   1.00
N980   N     0.16667   0.74999   0.87066   0.00000  Uiso   1.00
O981   O     0.16667   0.68572   0.79072   0.00000  Uiso   1.00
O982   O     0.13013   0.97600   0.67022   0.00000  Uiso   1.00
O983   O     0.21565   0.61822   0.67772   0.00000  Uiso   1.00
O984   O     0.22404   0.88224   0.83052   0.00000  Uiso   1.00
O985   O     0.22184   0.52808   0.67840   0.00000  Uiso   1.00
O986   O     0.22886   0.97259   0.83196   0.00000  Uiso   1.00
O987   O     0.25866   0.75414   0.54008   0.00000  Uiso   1.00
O988   O     0.11684   0.68080   0.96345   0.00000  Uiso   1.00
O989   O     0.25271   0.77952   0.63468   0.00000  Uiso   1.00
O990   O     0.10957   0.68873   0.86094   0.00000  Uiso   1.00
O991   O     0.07277   0.74065   0.51932   0.00000  Uiso   1.00
O992   O     0.16666   0.81427   0.70929   0.00000  Uiso   1.00
O993   O     0.21568   0.81753   0.97694   0.00000  Uiso   1.00
O994   O     0.16667   0.68573   0.70928   0.00000  Uiso   1.00
O995   O     0.16666   0.81427   0.79072   0.00000  Uiso   1.00
O996   O     0.09161   0.74999   0.78132   0.00000  Uiso   1.00
O997   O     0.24172   0.75000   0.71868   0.00000  Uiso   1.00
O998   O     0.09161   0.75000   0.69989   0.00000  Uiso   1.00
O999   O     0.24172   0.75000   0.80012   0.00000  Uiso   1.00
O1000  O     0.13754   0.52338   0.82480   0.00000  Uiso   1.00
C1001  C     0.50143   0.66497   0.75013   0.00000  Uiso   1.00
C1002  C     0.52415   0.78362   0.94941   0.00000  Uiso   1.00
C1003  C     0.49918   0.74857   0.52690   0.00000  Uiso   1.00
C1004  C     0.49921   0.74924   0.97233   0.00000  Uiso   1.00
C1005  C     0.40131   0.74961   0.73766   0.00000  Uiso   1.00
C1006  C     0.59871   0.74992   0.76236   0.00000  Uiso   1.00
C1007  C     0.34613   0.74867   0.73088   0.00000  Uiso   1.00
C1008  C     0.65394   0.75012   0.76925   0.00000  Uiso   1.00
C1009  C     0.48939   0.54643   0.78759   0.00000  Uiso   1.00
C1010  C     0.48569   0.95330   0.71078   0.00000  Uiso   1.00
C1011  C     0.48755   0.59244   0.78735   0.00000  Uiso   1.00
C1012  C     0.50144   0.83502   0.75018   0.00000  Uiso   1.00
C1013  C     0.48377   0.90726   0.71063   0.00000  Uiso   1.00
C1014  C     0.50650   0.61678   0.75059   0.00000  Uiso   1.00
C1015  C     0.50642   0.88325   0.75072   0.00000  Uiso   1.00
C1016  C     0.53095   0.59493   0.71508   0.00000  Uiso   1.00
C1017  C     0.53461   0.90542   0.79050   0.00000  Uiso   1.00
C1018  C     0.53439   0.54873   0.71576   0.00000  Uiso   1.00
C1019  C     0.53785   0.95170   0.79068   0.00000  Uiso   1.00
C1020  C     0.51277   0.52434   0.75172   0.00000  Uiso   1.00
C1021  C     0.51264   0.97578   0.75091   0.00000  Uiso   1.00
C1022  C     0.41760   0.51543   0.81215   0.00000  Uiso   1.00
C1023  C     0.54545   0.75315   0.55860   0.00000  Uiso   1.00
C1024  C     0.41147   0.98443   0.67499   0.00000  Uiso   1.00
C1025  C     0.59968   0.63332   0.69340   0.00000  Uiso   1.00
C1026  C     0.60673   0.86849   0.82178   0.00000  Uiso   1.00
C1027  C     0.60407   0.51070   0.69577   0.00000  Uiso   1.00
C1028  C     0.60954   0.99148   0.82272   0.00000  Uiso   1.00
C1029  C     0.62008   0.71593   0.55587   0.00000  Uiso   1.00
C1030  C     0.48569   0.64598   0.97194   0.00000  Uiso   1.00
C1031  C     0.38507   0.78336   0.51308   0.00000  Uiso   1.00
C1032  C     0.52316   0.85761   0.96507   0.00000  Uiso   1.00
C1033  C     0.47407   0.71559   0.94260   0.00000  Uiso   1.00
C1034  C     0.54388   0.75964   0.60869   0.00000  Uiso   1.00
C1035  C     0.47231   0.71808   0.89122   0.00000  Uiso   1.00
C1036  C     0.45519   0.74182   0.59919   0.00000  Uiso   1.00
C1037  C     0.52594   0.78192   0.89881   0.00000  Uiso   1.00
C1038  C     0.45315   0.74410   0.54812   0.00000  Uiso   1.00
Cu1039 Cu    0.50000   0.74999   0.79822   0.00000  Uiso   1.00
Cu1040 Cu    0.50000   0.75000   0.70179   0.00000  Uiso   1.00
H1041  H     0.65983   0.74662   0.69405   0.00000  Uiso   1.00
H1042  H     0.40872   0.51118   0.70182   0.00000  Uiso   1.00
H1043  H     0.39039   0.95419   0.68479   0.00000  Uiso   1.00
H1044  H     0.39191   0.99626   0.63956   0.00000  Uiso   1.00
H1045  H     0.60258   0.65202   0.72813   0.00000  Uiso   1.00
H1046  H     0.61154   0.65622   0.66558   0.00000  Uiso   1.00
H1047  H     0.62713   0.60539   0.69702   0.00000  Uiso   1.00
H1048  H     0.60513   0.84851   0.78802   0.00000  Uiso   1.00
H1049  H     0.62332   0.84724   0.85238   0.00000  Uiso   1.00
H1050  H     0.63322   0.89723   0.82021   0.00000  Uiso   1.00
H1051  H     0.60005   0.97634   0.70891   0.00000  Uiso   1.00
H1052  H     0.34036   0.75177   0.80615   0.00000  Uiso   1.00
H1053  H     0.62641   0.53128   0.72461   0.00000  Uiso   1.00
H1054  H     0.62711   0.50923   0.66509   0.00000  Uiso   1.00
H1055  H     0.62951   0.97185   0.79704   0.00000  Uiso   1.00
H1056  H     0.63573   0.99323   0.85745   0.00000  Uiso   1.00
H1057  H     0.60380   0.52588   0.80929   0.00000  Uiso   1.00
H1058  H     0.59544   0.68553   0.55506   0.00000  Uiso   1.00
H1059  H     0.64113   0.72105   0.59285   0.00000  Uiso   1.00
H1060  H     0.64888   0.70975   0.53093   0.00000  Uiso   1.00
H1061  H     0.52004   0.65614   0.99764   0.00000  Uiso   1.00
H1062  H     0.49778   0.63373   0.93746   0.00000  Uiso   1.00
H1063  H     0.46983   0.60902   0.81536   0.00000  Uiso   1.00
H1064  H     0.46669   0.61803   0.98874   0.00000  Uiso   1.00
H1065  H     0.57248   0.80197   0.65548   0.00000  Uiso   1.00
H1066  H     0.42191   0.66978   0.87999   0.00000  Uiso   1.00
H1067  H     0.41093   0.80619   0.99582   0.00000  Uiso   1.00
H1068  H     0.37655   0.79720   0.54821   0.00000  Uiso   1.00
H1069  H     0.34811   0.78102   0.98851   0.00000  Uiso   1.00
H1070  H     0.48113   0.85463   0.96764   0.00000  Uiso   1.00
H1071  H     0.52951   0.86935   0.92841   0.00000  Uiso   1.00
H1072  H     0.53927   0.88322   0.99151   0.00000  Uiso   1.00
H1073  H     0.46318   0.89034   0.67948   0.00000  Uiso   1.00
H1074  H     0.41984   0.73539   0.61417   0.00000  Uiso   1.00
H1075  H     0.54756   0.80675   0.88188   0.00000  Uiso   1.00
H1076  H     0.41076   0.98956   0.78364   0.00000  Uiso   1.00
H1077  H     0.39614   0.54610   0.80043   0.00000  Uiso   1.00
H1078  H     0.40174   0.50261   0.84458   0.00000  Uiso   1.00
N1079  N     0.50000   0.75001   0.62935   0.00000  Uiso   1.00
N1080  N     0.50000   0.74999   0.87066   0.00000  Uiso   1.00
O1081  O     0.50000   0.68572   0.79072   0.00000  Uiso   1.00
O1082  O     0.46347   0.97600   0.67022   0.00000  Uiso   1.00
O1083  O     0.54899   0.61822   0.67772   0.00000  Uiso   1.00
O1084  O     0.55737   0.88224   0.83052   0.00000  Uiso   1.00
O1085  O     0.55517   0.52808   0.67840   0.00000  Uiso   1.00
O1086  O     0.56219   0.97259   0.83196   0.00000  Uiso   1.00
O1087  O     0.59200   0.75414   0.54008   0.00000  Uiso   1.00
O1088  O     0.45018   0.68080   0.96345   0.00000  Uiso   1.00
O1089  O     0.58604   0.77952   0.63468   0.00000  Uiso   1.00
O1090  O     0.44290   0.68873   0.86094   0.00000  Uiso   1.00
O1091  O     0.40611   0.74065   0.51932   0.00000  Uiso   1.00
O1092  O     0.50000   0.81427   0.70929   0.00000  Uiso   1.00
O1093  O     0.54901   0.81753   0.97694   0.00000  Uiso   1.00
O1094  O     0.50000   0.68573   0.70928   0.00000  Uiso   1.00
O1095  O     0.50000   0.81427   0.79072   0.00000  Uiso   1.00
O1096  O     0.42495   0.74999   0.78132   0.00000  Uiso   1.00
O1097  O     0.57505   0.75000   0.71868   0.00000  Uiso   1.00
O1098  O     0.42495   0.75000   0.69989   0.00000  Uiso   1.00
O1099  O     0.57505   0.75000   0.80012   0.00000  Uiso   1.00
O1100  O     0.47087   0.52338   0.82480   0.00000  Uiso   1.00
C1101  C     0.83476   0.66497   0.75013   0.00000  Uiso   1.00
C1102  C     0.85749   0.78362   0.94941   0.00000  Uiso   1.00
C1103  C     0.83251   0.74857   0.52690   0.00000  Uiso   1.00
C1104  C     0.83255   0.74924   0.97233   0.00000  Uiso   1.00
C1105  C     0.73465   0.74961   0.73766   0.00000  Uiso   1.00
C1106  C     0.93204   0.74992   0.76236   0.00000  Uiso   1.00
C1107  C     0.67946   0.74867   0.73088   0.00000  Uiso   1.00
C1108  C     0.98727   0.75012   0.76925   0.00000  Uiso   1.00
C1109  C     0.82272   0.54643   0.78759   0.00000  Uiso   1.00
C1110  C     0.81902   0.95330   0.71078   0.00000  Uiso   1.00
C1111  C     0.82088   0.59244   0.78735   0.00000  Uiso   1.00
C1112  C     0.83477   0.83502   0.75018   0.00000  Uiso   1.00
C1113  C     0.81710   0.90726   0.71063   0.00000  Uiso   1.00
C1114  C     0.83983   0.61678   0.75059   0.00000  Uiso   1.00
C1115  C     0.83976   0.88325   0.75072   0.00000  Uiso   1.00
C1116  C     0.86428   0.59493   0.71508   0.00000  Uiso   1.00
C1117  C     0.86795   0.90542   0.79050   0.00000  Uiso   1.00
C1118  C     0.86773   0.54873   0.71576   0.00000  Uiso   1.00
C1119  C     0.87118   0.95170   0.79068   0.00000  Uiso   1.00
C1120  C     0.84610   0.52434   0.75172   0.00000  Uiso   1.00
C1121  C     0.84598   0.97578   0.75091   0.00000  Uiso   1.00
C1122  C     0.75093   0.51543   0.81215   0.00000  Uiso   1.00
C1123  C     0.87878   0.75315   0.55860   0.00000  Uiso   1.00
C1124  C     0.74481   0.98443   0.67499   0.00000  Uiso   1.00
C1125  C     0.93301   0.63332   0.69340   0.00000  Uiso   1.00
C1126  C     0.94006   0.86849   0.82178   0.00000  Uiso   1.00
C1127  C     0.93740   0.51070   0.69577   0.00000  Uiso   1.00
C1128  C     0.94287   0.99148   0.82272   0.00000  Uiso   1.00
C1129  C     0.95342   0.71593   0.55587   0.00000  Uiso   1.00
C1130  C     0.81902   0.64598   0.97194   0.00000  Uiso   1.00
C1131  C     0.71840   0.78336   0.51308   0.00000  Uiso   1.00
C1132  C     0.85649   0.85761   0.96507   0.00000  Uiso   1.00
C1133  C     0.80740   0.71559   0.94260   0.00000  Uiso   1.00
C1134  C     0.87721   0.75964   0.60869   0.00000  Uiso   1.00
C1135  C     0.80564   0.71808   0.89122   0.00000  Uiso   1.00
C1136  C     0.78853   0.74182   0.59919   0.00000  Uiso   1.00
C1137  C     0.85927   0.78192   0.89881   0.00000  Uiso   1.00
C1138  C     0.78648   0.74410   0.54812   0.00000  Uiso   1.00
Cu1139 Cu    0.83333   0.74999   0.79822   0.00000  Uiso   1.00
Cu1140 Cu    0.83333   0.75000   0.70179   0.00000  Uiso   1.00
H1141  H     0.99316   0.74662   0.69405   0.00000  Uiso   1.00
H1142  H     0.74205   0.51118   0.70182   0.00000  Uiso   1.00
H1143  H     0.72373   0.95419   0.68479   0.00000  Uiso   1.00
H1144  H     0.72524   0.99626   0.63956   0.00000  Uiso   1.00
H1145  H     0.93592   0.65202   0.72813   0.00000  Uiso   1.00
H1146  H     0.94488   0.65622   0.66558   0.00000  Uiso   1.00
H1147  H     0.96047   0.60539   0.69702   0.00000  Uiso   1.00
H1148  H     0.93846   0.84851   0.78802   0.00000  Uiso   1.00
H1149  H     0.95665   0.84724   0.85238   0.00000  Uiso   1.00
H1150  H     0.96655   0.89723   0.82021   0.00000  Uiso   1.00
H1151  H     0.93339   0.97634   0.70891   0.00000  Uiso   1.00
H1152  H     0.67370   0.75177   0.80615   0.00000  Uiso   1.00
H1153  H     0.95974   0.53128   0.72461   0.00000  Uiso   1.00
H1154  H     0.96045   0.50923   0.66509   0.00000  Uiso   1.00
H1155  H     0.96284   0.97185   0.79704   0.00000  Uiso   1.00
H1156  H     0.96907   0.99323   0.85745   0.00000  Uiso   1.00
H1157  H     0.93714   0.52588   0.80929   0.00000  Uiso   1.00
H1158  H     0.92878   0.68553   0.55506   0.00000  Uiso   1.00
H1159  H     0.97447   0.72105   0.59285   0.00000  Uiso   1.00
H1160  H     0.98222   0.70975   0.53093   0.00000  Uiso   1.00
H1161  H     0.85337   0.65614   0.99764   0.00000  Uiso   1.00
H1162  H     0.83112   0.63373   0.93746   0.00000  Uiso   1.00
H1163  H     0.80317   0.60902   0.81536   0.00000  Uiso   1.00
H1164  H     0.80003   0.61803   0.98874   0.00000  Uiso   1.00
H1165  H     0.90581   0.80197   0.65548   0.00000  Uiso   1.00
H1166  H     0.75525   0.66978   0.87999   0.00000  Uiso   1.00
H1167  H     0.74426   0.80619   0.99582   0.00000  Uiso   1.00
H1168  H     0.70988   0.79720   0.54821   0.00000  Uiso   1.00
H1169  H     0.68145   0.78102   0.98851   0.00000  Uiso   1.00
H1170  H     0.81446   0.85463   0.96764   0.00000  Uiso   1.00
H1171  H     0.86284   0.86935   0.92841   0.00000  Uiso   1.00
H1172  H     0.87260   0.88322   0.99151   0.00000  Uiso   1.00
H1173  H     0.79651   0.89034   0.67948   0.00000  Uiso   1.00
H1174  H     0.75317   0.73539   0.61417   0.00000  Uiso   1.00
H1175  H     0.88089   0.80675   0.88188   0.00000  Uiso   1.00
H1176  H     0.74409   0.98956   0.78364   0.00000  Uiso   1.00
H1177  H     0.72947   0.54610   0.80043   0.00000  Uiso   1.00
H1178  H     0.73508   0.50261   0.84458   0.00000  Uiso   1.00
N1179  N     0.83333   0.75001   0.62935   0.00000  Uiso   1.00
N1180  N     0.83333   0.74999   0.87066   0.00000  Uiso   1.00
O1181  O     0.83334   0.68572   0.79072   0.00000  Uiso   1.00
O1182  O     0.79680   0.97600   0.67022   0.00000  Uiso   1.00
O1183  O     0.88232   0.61822   0.67772   0.00000  Uiso   1.00
O1184  O     0.89070   0.88224   0.83052   0.00000  Uiso   1.00
O1185  O     0.88851   0.52808   0.67840   0.00000  Uiso   1.00
O1186  O     0.89553   0.97259   0.83196   0.00000  Uiso   1.00
O1187  O     0.92533   0.75414   0.54008   0.00000  Uiso   1.00
O1188  O     0.78351   0.68080   0.96345   0.00000  Uiso   1.00
O1189  O     0.91937   0.77952   0.63468   0.00000  Uiso   1.00
O1190  O     0.77624   0.68873   0.86094   0.00000  Uiso   1.00
O1191  O     0.73944   0.74065   0.51932   0.00000  Uiso   1.00
O1192  O     0.83333   0.81427   0.70929   0.00000  Uiso   1.00
O1193  O     0.88234   0.81753   0.97694   0.00000  Uiso   1.00
O1194  O     0.83334   0.68573   0.70928   0.00000  Uiso   1.00
O1195  O     0.83333   0.81427   0.79072   0.00000  Uiso   1.00
O1196  O     0.75828   0.74999   0.78132   0.00000  Uiso   1.00
O1197  O     0.90839   0.75000   0.71868   0.00000  Uiso   1.00
O1198  O     0.75828   0.75000   0.69989   0.00000  Uiso   1.00
O1199  O     0.90839   0.75000   0.80012   0.00000  Uiso   1.00
O1200  O     0.80421   0.52338   0.82480   0.00000  Uiso   1.00
loop_
_geom_bond_atom_site_label_1
_geom_bond_atom_site_label_2
_geom_bond_distance
_geom_bond_site_symmetry_2
_ccdc_geom_bond_type
C1     O81     1.297   .     A
C1     O94     1.293   .     A
C1     C14     1.464   .     S
C2     C4      1.416   .     A
C2     O93     1.384   .     S
C2     C37     1.415   .     A
C3     C23     1.406   .     A
C3     C38     1.414   .     A
C3     C604    1.518   1_554 S
C4     C33     1.413   .     A
C4     C603    1.518   .     S
C5     O98     1.287   .     A
C5     C7      1.431   .     S
C5     O96     1.288   .     A
C6     O97     1.289   .     A
C6     C8      1.432   .     S
C6     O99     1.287   .     A
C7     C208    1.332   1_455 S
C7     H241    1.085   1_455 S
C8     C107    1.332   .     S
C8     H152    1.087   .     S
C9     C20     1.409   .     A
C9     C11     1.392   .     A
C9     O100    1.383   .     S
C10    C13     1.392   .     A
C10    C21     1.410   .     A
C10    O82     1.383   .     S
C11    H63     1.084   .     S
C11    C14     1.398   .     A
C12    C15     1.462   .     S
C12    O95     1.294   .     A
C12    O92     1.295   .     A
C13    H73     1.084   .     S
C13    C15     1.397   .     A
C14    C16     1.413   .     A
C15    C17     1.412   .     A
C16    O83     1.385   .     S
C16    C18     1.400   .     A
C17    O84     1.384   .     S
C17    C19     1.400   .     A
C18    O85     1.386   .     S
C18    C20     1.415   .     A
C19    O86     1.387   .     S
C19    C21     1.415   .     A
C20    C321    1.468   1_545 S
C21    C320    1.468   .     S
C22    O100    1.410   .     S
C22    H78     1.109   .     S
C22    H77     1.114   .     S
C22    H376    1.110   1_545 S
C23    O87     1.383   .     S
C23    C34     1.413   .     A
C24    O82     1.410   .     S
C24    H44     1.109   .     S
C24    H43     1.114   .     S
C24    H342    1.110   .     S
C25    H47     1.110   .     S
C25    H45     1.113   .     S
C25    O83     1.412   .     S
C25    H46     1.110   .     S
C26    H50     1.110   .     S
C26    H48     1.113   .     S
C26    H49     1.110   .     S
C26    O84     1.412   .     S
C27    H54     1.109   .     S
C27    O85     1.412   .     S
C27    H53     1.114   .     S
C27    H351    1.109   1_545 S
C28    H56     1.109   .     S
C28    H55     1.114   .     S
C28    O86     1.412   .     S
C28    H357    1.109   .     S
C29    H59     1.111   .     S
C29    H60     1.107   .     S
C29    O87     1.413   .     S
C29    H58     1.115   .     S
C30    H64     1.109   .     S
C30    H62     1.113   .     S
C30    O88     1.410   .     S
C30    H61     1.113   .     S
C31    H68     1.113   .     S
C31    O91     1.410   .     S
C31    H667    1.113   1_554 S
C31    H669    1.109   1_554 S
C32    H72     1.109   .     S
C32    O93     1.411   .     S
C32    H71     1.112   .     S
C32    H70     1.114   .     S
C33    O88     1.383   .     S
C33    C35     1.426   .     A
C34    N79     1.378   .     A
C34    O89     1.370   .     S
C35    N80     1.369   .     A
C35    O90     1.380   .     S
C36    H74     1.079   .     S
C36    N79     1.369   .     A
C36    C38     1.416   .     A
C37    H75     1.079   .     S
C37    N80     1.361   .     A
C38    O91     1.380   .     S
Cu39   O99     1.957   .     S
Cu39   O95     1.953   .     S
Cu39   Cu40    2.682   .     S
Cu39   N80     2.015   .     S
Cu39   O81     1.954   .     S
Cu39   O96     1.958   .     S
Cu40   O98     1.957   .     S
Cu40   O97     1.958   .     S
Cu40   O92     1.954   .     S
Cu40   N79     2.015   .     S
Cu40   O94     1.953   .     S
H41    C107    1.085   .     S
H42    C324    1.110   1_545 S
H51    C327    1.109   .     S
H52    C208    1.087   1_455 S
H57    C328    1.109   1_545 S
H65    O89     0.990   .     S
H66    O90     0.990   .     S
H67    C631    1.113   .     S
H69    C631    1.109   .     S
H76    C322    1.110   .     S
C101   O181    1.297   .     A
C101   O194    1.293   .     A
C101   C114    1.464   .     S
C102   C104    1.416   .     A
C102   O193    1.384   .     S
C102   C137    1.415   .     A
C103   C123    1.406   .     A
C103   C138    1.414   .     A
C103   C704    1.518   1_554 S
C104   C133    1.413   .     A
C104   C703    1.518   .     S
C105   O198    1.287   .     A
C105   C107    1.431   .     S
C105   O196    1.288   .     A
C106   O197    1.289   .     A
C106   C108    1.432   .     S
C106   O199    1.287   .     A
C108   C207    1.332   .     S
C108   H252    1.087   .     S
C109   C120    1.409   .     A
C109   C111    1.392   .     A
C109   O200    1.383   .     S
C110   C113    1.392   .     A
C110   C121    1.410   .     A
C110   O182    1.383   .     S
C111   H163    1.084   .     S
C111   C114    1.398   .     A
C112   C115    1.462   .     S
C112   O195    1.294   .     A
C112   O192    1.295   .     A
C113   H173    1.084   .     S
C113   C115    1.397   .     A
C114   C116    1.413   .     A
C115   C117    1.412   .     A
C116   O183    1.385   .     S
C116   C118    1.400   .     A
C117   O184    1.384   .     S
C117   C119    1.400   .     A
C118   O185    1.386   .     S
C118   C120    1.415   .     A
C119   O186    1.387   .     S
C119   C121    1.415   .     A
C120   C421    1.468   1_545 S
C121   C420    1.468   .     S
C122   O200    1.410   .     S
C122   H178    1.109   .     S
C122   H177    1.114   .     S
C122   H476    1.110   1_545 S
C123   O187    1.383   .     S
C123   C134    1.413   .     A
C124   O182    1.410   .     S
C124   H144    1.109   .     S
C124   H143    1.114   .     S
C124   H442    1.110   .     S
C125   H147    1.110   .     S
C125   H145    1.113   .     S
C125   O183    1.412   .     S
C125   H146    1.110   .     S
C126   H150    1.110   .     S
C126   H148    1.113   .     S
C126   H149    1.110   .     S
C126   O184    1.412   .     S
C127   H154    1.109   .     S
C127   O185    1.412   .     S
C127   H153    1.114   .     S
C127   H451    1.109   1_545 S
C128   H156    1.109   .     S
C128   H155    1.114   .     S
C128   O186    1.412   .     S
C128   H457    1.109   .     S
C129   H159    1.111   .     S
C129   H160    1.107   .     S
C129   O187    1.413   .     S
C129   H158    1.115   .     S
C130   H164    1.109   .     S
C130   H162    1.113   .     S
C130   O188    1.410   .     S
C130   H161    1.113   .     S
C131   H168    1.113   .     S
C131   O191    1.410   .     S
C131   H767    1.113   1_554 S
C131   H769    1.109   1_554 S
C132   H172    1.109   .     S
C132   O193    1.411   .     S
C132   H171    1.112   .     S
C132   H170    1.114   .     S
C133   O188    1.383   .     S
C133   C135    1.426   .     A
C134   N179    1.378   .     A
C134   O189    1.370   .     S
C135   N180    1.369   .     A
C135   O190    1.380   .     S
C136   H174    1.079   .     S
C136   N179    1.369   .     A
C136   C138    1.416   .     A
C137   H175    1.079   .     S
C137   N180    1.361   .     A
C138   O191    1.380   .     S
Cu139  O199    1.957   .     S
Cu139  O195    1.953   .     S
Cu139  Cu140   2.682   .     S
Cu139  N180    2.015   .     S
Cu139  O181    1.954   .     S
Cu139  O196    1.958   .     S
Cu140  O198    1.957   .     S
Cu140  O197    1.958   .     S
Cu140  O192    1.954   .     S
Cu140  N179    2.015   .     S
Cu140  O194    1.953   .     S
H141   C207    1.085   .     S
H142   C424    1.110   1_545 S
H151   C427    1.109   .     S
H157   C428    1.109   1_545 S
H165   O189    0.990   .     S
H166   O190    0.990   .     S
H167   C731    1.113   .     S
H169   C731    1.109   .     S
H176   C422    1.110   .     S
C201   O281    1.297   .     A
C201   O294    1.293   .     A
C201   C214    1.464   .     S
C202   C204    1.416   .     A
C202   O293    1.384   .     S
C202   C237    1.415   .     A
C203   C223    1.406   .     A
C203   C238    1.414   .     A
C203   C804    1.518   1_554 S
C204   C233    1.413   .     A
C204   C803    1.518   .     S
C205   O298    1.287   .     A
C205   C207    1.431   .     S
C205   O296    1.288   .     A
C206   O297    1.289   .     A
C206   C208    1.432   .     S
C206   O299    1.287   .     A
C208   C7      1.332   1_655 S
C208   H52     1.087   1_655 S
C209   C220    1.409   .     A
C209   C211    1.392   .     A
C209   O300    1.383   .     S
C210   C213    1.392   .     A
C210   C221    1.410   .     A
C210   O282    1.383   .     S
C211   H263    1.084   .     S
C211   C214    1.398   .     A
C212   C215    1.462   .     S
C212   O295    1.294   .     A
C212   O292    1.295   .     A
C213   H273    1.084   .     S
C213   C215    1.397   .     A
C214   C216    1.413   .     A
C215   C217    1.412   .     A
C216   O283    1.385   .     S
C216   C218    1.400   .     A
C217   O284    1.384   .     S
C217   C219    1.400   .     A
C218   O285    1.386   .     S
C218   C220    1.415   .     A
C219   O286    1.387   .     S
C219   C221    1.415   .     A
C220   C521    1.468   1_545 S
C221   C520    1.468   .     S
C222   O300    1.410   .     S
C222   H278    1.109   .     S
C222   H277    1.114   .     S
C222   H576    1.110   1_545 S
C223   O287    1.383   .     S
C223   C234    1.413   .     A
C224   O282    1.410   .     S
C224   H244    1.109   .     S
C224   H243    1.114   .     S
C224   H542    1.110   .     S
C225   H247    1.110   .     S
C225   H245    1.113   .     S
C225   O283    1.412   .     S
C225   H246    1.110   .     S
C226   H250    1.110   .     S
C226   H248    1.113   .     S
C226   H249    1.110   .     S
C226   O284    1.412   .     S
C227   H254    1.109   .     S
C227   O285    1.412   .     S
C227   H253    1.114   .     S
C227   H551    1.109   1_545 S
C228   H256    1.109   .     S
C228   H255    1.114   .     S
C228   O286    1.412   .     S
C228   H557    1.109   .     S
C229   H259    1.111   .     S
C229   H260    1.107   .     S
C229   O287    1.413   .     S
C229   H258    1.115   .     S
C230   H264    1.109   .     S
C230   H262    1.113   .     S
C230   O288    1.410   .     S
C230   H261    1.113   .     S
C231   H268    1.113   .     S
C231   O291    1.410   .     S
C231   H867    1.113   1_554 S
C231   H869    1.109   1_554 S
C232   H272    1.109   .     S
C232   O293    1.411   .     S
C232   H271    1.112   .     S
C232   H270    1.114   .     S
C233   O288    1.383   .     S
C233   C235    1.426   .     A
C234   N279    1.378   .     A
C234   O289    1.370   .     S
C235   N280    1.369   .     A
C235   O290    1.380   .     S
C236   H274    1.079   .     S
C236   N279    1.369   .     A
C236   C238    1.416   .     A
C237   H275    1.079   .     S
C237   N280    1.361   .     A
C238   O291    1.380   .     S
Cu239  O299    1.957   .     S
Cu239  O295    1.953   .     S
Cu239  Cu240   2.682   .     S
Cu239  N280    2.015   .     S
Cu239  O281    1.954   .     S
Cu239  O296    1.958   .     S
Cu240  O298    1.957   .     S
Cu240  O297    1.958   .     S
Cu240  O292    1.954   .     S
Cu240  N279    2.015   .     S
Cu240  O294    1.953   .     S
H241   C7      1.085   1_655 S
H242   C524    1.110   1_545 S
H251   C527    1.109   .     S
H257   C528    1.109   1_545 S
H265   O289    0.990   .     S
H266   O290    0.990   .     S
H267   C831    1.113   .     S
H269   C831    1.109   .     S
H276   C522    1.110   .     S
C301   O381    1.297   .     A
C301   O394    1.293   .     A
C301   C314    1.464   .     S
C302   C304    1.416   .     A
C302   O393    1.384   .     S
C302   C337    1.415   .     A
C303   C323    1.406   .     A
C303   C338    1.414   .     A
C303   C904    1.518   1_554 S
C304   C333    1.413   .     A
C304   C903    1.518   .     S
C305   O398    1.287   .     A
C305   C307    1.431   .     S
C305   O396    1.288   .     A
C306   O397    1.289   .     A
C306   C308    1.432   .     S
C306   O399    1.287   .     A
C307   C508    1.332   1_455 S
C307   H541    1.085   1_455 S
C308   C407    1.332   .     S
C308   H452    1.087   .     S
C309   C320    1.409   .     A
C309   C311    1.392   .     A
C309   O400    1.383   .     S
C310   C313    1.392   .     A
C310   C321    1.410   .     A
C310   O382    1.383   .     S
C311   H363    1.084   .     S
C311   C314    1.398   .     A
C312   C315    1.462   .     S
C312   O395    1.294   .     A
C312   O392    1.295   .     A
C313   H373    1.084   .     S
C313   C315    1.397   .     A
C314   C316    1.413   .     A
C315   C317    1.412   .     A
C316   O383    1.385   .     S
C316   C318    1.400   .     A
C317   O384    1.384   .     S
C317   C319    1.400   .     A
C318   O385    1.386   .     S
C318   C320    1.415   .     A
C319   O386    1.387   .     S
C319   C321    1.415   .     A
C321   C20     1.468   1_565 S
C322   O400    1.410   .     S
C322   H378    1.109   .     S
C322   H377    1.114   .     S
C323   O387    1.383   .     S
C323   C334    1.413   .     A
C324   O382    1.410   .     S
C324   H344    1.109   .     S
C324   H343    1.114   .     S
C324   H42     1.110   1_565 S
C325   H347    1.110   .     S
C325   H345    1.113   .     S
C325   O383    1.412   .     S
C325   H346    1.110   .     S
C326   H350    1.110   .     S
C326   H348    1.113   .     S
C326   H349    1.110   .     S
C326   O384    1.412   .     S
C327   H354    1.109   .     S
C327   O385    1.412   .     S
C327   H353    1.114   .     S
C328   H356    1.109   .     S
C328   H355    1.114   .     S
C328   O386    1.412   .     S
C328   H57     1.109   1_565 S
C329   H359    1.111   .     S
C329   H360    1.107   .     S
C329   O387    1.413   .     S
C329   H358    1.115   .     S
C330   H364    1.109   .     S
C330   H362    1.113   .     S
C330   O388    1.410   .     S
C330   H361    1.113   .     S
C331   H368    1.113   .     S
C331   O391    1.410   .     S
C331   H967    1.113   1_554 S
C331   H969    1.109   1_554 S
C332   H372    1.109   .     S
C332   O393    1.411   .     S
C332   H371    1.112   .     S
C332   H370    1.114   .     S
C333   O388    1.383   .     S
C333   C335    1.426   .     A
C334   N379    1.378   .     A
C334   O389    1.370   .     S
C335   N380    1.369   .     A
C335   O390    1.380   .     S
C336   H374    1.079   .     S
C336   N379    1.369   .     A
C336   C338    1.416   .     A
C337   H375    1.079   .     S
C337   N380    1.361   .     A
C338   O391    1.380   .     S
Cu339  O399    1.957   .     S
Cu339  O395    1.953   .     S
Cu339  Cu340   2.682   .     S
Cu339  N380    2.015   .     S
Cu339  O381    1.954   .     S
Cu339  O396    1.958   .     S
Cu340  O398    1.957   .     S
Cu340  O397    1.958   .     S
Cu340  O392    1.954   .     S
Cu340  N379    2.015   .     S
Cu340  O394    1.953   .     S
H341   C407    1.085   .     S
H351   C27     1.109   1_565 S
H352   C508    1.087   1_455 S
H365   O389    0.990   .     S
H366   O390    0.990   .     S
H367   C931    1.113   .     S
H369   C931    1.109   .     S
H376   C22     1.110   1_565 S
C401   O481    1.297   .     A
C401   O494    1.293   .     A
C401   C414    1.464   .     S
C402   C404    1.416   .     A
C402   O493    1.384   .     S
C402   C437    1.415   .     A
C403   C423    1.406   .     A
C403   C438    1.414   .     A
C403   C1004   1.518   1_554 S
C404   C433    1.413   .     A
C404   C1003   1.518   .     S
C405   O498    1.287   .     A
C405   C407    1.431   .     S
C405   O496    1.288   .     A
C406   O497    1.289   .     A
C406   C408    1.432   .     S
C406   O499    1.287   .     A
C408   C507    1.332   .     S
C408   H552    1.087   .     S
C409   C420    1.409   .     A
C409   C411    1.392   .     A
C409   O500    1.383   .     S
C410   C413    1.392   .     A
C410   C421    1.410   .     A
C410   O482    1.383   .     S
C411   H463    1.084   .     S
C411   C414    1.398   .     A
C412   C415    1.462   .     S
C412   O495    1.294   .     A
C412   O492    1.295   .     A
C413   H473    1.084   .     S
C413   C415    1.397   .     A
C414   C416    1.413   .     A
C415   C417    1.412   .     A
C416   O483    1.385   .     S
C416   C418    1.400   .     A
C417   O484    1.384   .     S
C417   C419    1.400   .     A
C418   O485    1.386   .     S
C418   C420    1.415   .     A
C419   O486    1.387   .     S
C419   C421    1.415   .     A
C421   C120    1.468   1_565 S
C422   O500    1.410   .     S
C422   H478    1.109   .     S
C422   H477    1.114   .     S
C423   O487    1.383   .     S
C423   C434    1.413   .     A
C424   O482    1.410   .     S
C424   H444    1.109   .     S
C424   H443    1.114   .     S
C424   H142    1.110   1_565 S
C425   H447    1.110   .     S
C425   H445    1.113   .     S
C425   O483    1.412   .     S
C425   H446    1.110   .     S
C426   H450    1.110   .     S
C426   H448    1.113   .     S
C426   H449    1.110   .     S
C426   O484    1.412   .     S
C427   H454    1.109   .     S
C427   O485    1.412   .     S
C427   H453    1.114   .     S
C428   H456    1.109   .     S
C428   H455    1.114   .     S
C428   O486    1.412   .     S
C428   H157    1.109   1_565 S
C429   H459    1.111   .     S
C429   H460    1.107   .     S
C429   O487    1.413   .     S
C429   H458    1.115   .     S
C430   H464    1.109   .     S
C430   H462    1.113   .     S
C430   O488    1.410   .     S
C430   H461    1.113   .     S
C431   H468    1.113   .     S
C431   O491    1.410   .     S
C431   H1067   1.113   1_554 S
C431   H1069   1.109   1_554 S
C432   H472    1.109   .     S
C432   O493    1.411   .     S
C432   H471    1.112   .     S
C432   H470    1.114   .     S
C433   O488    1.383   .     S
C433   C435    1.426   .     A
C434   N479    1.378   .     A
C434   O489    1.370   .     S
C435   N480    1.369   .     A
C435   O490    1.380   .     S
C436   H474    1.079   .     S
C436   N479    1.369   .     A
C436   C438    1.416   .     A
C437   H475    1.079   .     S
C437   N480    1.361   .     A
C438   O491    1.380   .     S
Cu439  O499    1.957   .     S
Cu439  O495    1.953   .     S
Cu439  Cu440   2.682   .     S
Cu439  N480    2.015   .     S
Cu439  O481    1.954   .     S
Cu439  O496    1.958   .     S
Cu440  O498    1.957   .     S
Cu440  O497    1.958   .     S
Cu440  O492    1.954   .     S
Cu440  N479    2.015   .     S
Cu440  O494    1.953   .     S
H441   C507    1.085   .     S
H451   C127    1.109   1_565 S
H465   O489    0.990   .     S
H466   O490    0.990   .     S
H467   C1031   1.113   .     S
H469   C1031   1.109   .     S
H476   C122    1.110   1_565 S
C501   O581    1.297   .     A
C501   O594    1.293   .     A
C501   C514    1.464   .     S
C502   C504    1.416   .     A
C502   O593    1.384   .     S
C502   C537    1.415   .     A
C503   C523    1.406   .     A
C503   C538    1.414   .     A
C503   C1104   1.518   1_554 S
C504   C533    1.413   .     A
C504   C1103   1.518   .     S
C505   O598    1.287   .     A
C505   C507    1.431   .     S
C505   O596    1.288   .     A
C506   O597    1.289   .     A
C506   C508    1.432   .     S
C506   O599    1.287   .     A
C508   C307    1.332   1_655 S
C508   H352    1.087   1_655 S
C509   C520    1.409   .     A
C509   C511    1.392   .     A
C509   O600    1.383   .     S
C510   C513    1.392   .     A
C510   C521    1.410   .     A
C510   O582    1.383   .     S
C511   H563    1.084   .     S
C511   C514    1.398   .     A
C512   C515    1.462   .     S
C512   O595    1.294   .     A
C512   O592    1.295   .     A
C513   H573    1.084   .     S
C513   C515    1.397   .     A
C514   C516    1.413   .     A
C515   C517    1.412   .     A
C516   O583    1.385   .     S
C516   C518    1.400   .     A
C517   O584    1.384   .     S
C517   C519    1.400   .     A
C518   O585    1.386   .     S
C518   C520    1.415   .     A
C519   O586    1.387   .     S
C519   C521    1.415   .     A
C521   C220    1.468   1_565 S
C522   O600    1.410   .     S
C522   H578    1.109   .     S
C522   H577    1.114   .     S
C523   O587    1.383   .     S
C523   C534    1.413   .     A
C524   O582    1.410   .     S
C524   H544    1.109   .     S
C524   H543    1.114   .     S
C524   H242    1.110   1_565 S
C525   H547    1.110   .     S
C525   H545    1.113   .     S
C525   O583    1.412   .     S
C525   H546    1.110   .     S
C526   H550    1.110   .     S
C526   H548    1.113   .     S
C526   H549    1.110   .     S
C526   O584    1.412   .     S
C527   H554    1.109   .     S
C527   O585    1.412   .     S
C527   H553    1.114   .     S
C528   H556    1.109   .     S
C528   H555    1.114   .     S
C528   O586    1.412   .     S
C528   H257    1.109   1_565 S
C529   H559    1.111   .     S
C529   H560    1.107   .     S
C529   O587    1.413   .     S
C529   H558    1.115   .     S
C530   H564    1.109   .     S
C530   H562    1.113   .     S
C530   O588    1.410   .     S
C530   H561    1.113   .     S
C531   H568    1.113   .     S
C531   O591    1.410   .     S
C531   H1167   1.113   1_554 S
C531   H1169   1.109   1_554 S
C532   H572    1.109   .     S
C532   O593    1.411   .     S
C532   H571    1.112   .     S
C532   H570    1.114   .     S
C533   O588    1.383   .     S
C533   C535    1.426   .     A
C534   N579    1.378   .     A
C534   O589    1.370   .     S
C535   N580    1.369   .     A
C535   O590    1.380   .     S
C536   H574    1.079   .     S
C536   N579    1.369   .     A
C536   C538    1.416   .     A
C537   H575    1.079   .     S
C537   N580    1.361   .     A
C538   O591    1.380   .     S
Cu539  O599    1.957   .     S
Cu539  O595    1.953   .     S
Cu539  Cu540   2.682   .     S
Cu539  N580    2.015   .     S
Cu539  O581    1.954   .     S
Cu539  O596    1.958   .     S
Cu540  O598    1.957   .     S
Cu540  O597    1.958   .     S
Cu540  O592    1.954   .     S
Cu540  N579    2.015   .     S
Cu540  O594    1.953   .     S
H541   C307    1.085   1_655 S
H551   C227    1.109   1_565 S
H565   O589    0.990   .     S
H566   O590    0.990   .     S
H567   C1131   1.113   .     S
H569   C1131   1.109   .     S
H576   C222    1.110   1_565 S
C601   O681    1.297   .     A
C601   O694    1.293   .     A
C601   C614    1.464   .     S
C602   C604    1.416   .     A
C602   O693    1.384   .     S
C602   C637    1.415   .     A
C603   C623    1.406   .     A
C603   C638    1.414   .     A
C604   C633    1.413   .     A
C604   C3      1.518   1_556 S
C605   O698    1.287   .     A
C605   C607    1.431   .     S
C605   O696    1.288   .     A
C606   O697    1.289   .     A
C606   C608    1.432   .     S
C606   O699    1.287   .     A
C607   C808    1.332   1_455 S
C607   H841    1.085   1_455 S
C608   C707    1.332   .     S
C608   H752    1.087   .     S
C609   C620    1.409   .     A
C609   C611    1.392   .     A
C609   O700    1.383   .     S
C610   C613    1.392   .     A
C610   C621    1.410   .     A
C610   O682    1.383   .     S
C611   H663    1.084   .     S
C611   C614    1.398   .     A
C612   C615    1.462   .     S
C612   O695    1.294   .     A
C612   O692    1.295   .     A
C613   H673    1.084   .     S
C613   C615    1.397   .     A
C614   C616    1.413   .     A
C615   C617    1.412   .     A
C616   O683    1.385   .     S
C616   C618    1.400   .     A
C617   O684    1.384   .     S
C617   C619    1.400   .     A
C618   O685    1.386   .     S
C618   C620    1.415   .     A
C619   O686    1.387   .     S
C619   C621    1.415   .     A
C620   C921    1.468   1_545 S
C621   C920    1.468   .     S
C622   O700    1.410   .     S
C622   H678    1.109   .     S
C622   H677    1.114   .     S
C622   H976    1.110   1_545 S
C623   O687    1.383   .     S
C623   C634    1.413   .     A
C624   O682    1.410   .     S
C624   H644    1.109   .     S
C624   H643    1.114   .     S
C624   H942    1.110   .     S
C625   H647    1.110   .     S
C625   H645    1.113   .     S
C625   O683    1.412   .     S
C625   H646    1.110   .     S
C626   H650    1.110   .     S
C626   H648    1.113   .     S
C626   H649    1.110   .     S
C626   O684    1.412   .     S
C627   H654    1.109   .     S
C627   O685    1.412   .     S
C627   H653    1.114   .     S
C627   H951    1.109   1_545 S
C628   H656    1.109   .     S
C628   H655    1.114   .     S
C628   O686    1.412   .     S
C628   H957    1.109   .     S
C629   H659    1.111   .     S
C629   H660    1.107   .     S
C629   O687    1.413   .     S
C629   H658    1.115   .     S
C630   H664    1.109   .     S
C630   H662    1.113   .     S
C630   O688    1.410   .     S
C630   H661    1.113   .     S
C631   H668    1.113   .     S
C631   O691    1.410   .     S
C632   H672    1.109   .     S
C632   O693    1.411   .     S
C632   H671    1.112   .     S
C632   H670    1.114   .     S
C633   O688    1.383   .     S
C633   C635    1.426   .     A
C634   N679    1.378   .     A
C634   O689    1.370   .     S
C635   N680    1.369   .     A
C635   O690    1.380   .     S
C636   H674    1.079   .     S
C636   N679    1.369   .     A
C636   C638    1.416   .     A
C637   H675    1.079   .     S
C637   N680    1.361   .     A
C638   O691    1.380   .     S
Cu639  O699    1.957   .     S
Cu639  O695    1.953   .     S
Cu639  Cu640   2.682   .     S
Cu639  N680    2.015   .     S
Cu639  O681    1.954   .     S
Cu639  O696    1.958   .     S
Cu640  O698    1.957   .     S
Cu640  O697    1.958   .     S
Cu640  O692    1.954   .     S
Cu640  N679    2.015   .     S
Cu640  O694    1.953   .     S
H641   C707    1.085   .     S
H642   C924    1.110   1_545 S
H651   C927    1.109   .     S
H652   C808    1.087   1_455 S
H657   C928    1.109   1_545 S
H665   O689    0.990   .     S
H666   O690    0.990   .     S
H667   C31     1.113   1_556 S
H669   C31     1.109   1_556 S
H676   C922    1.110   .     S
C701   O781    1.297   .     A
C701   O794    1.293   .     A
C701   C714    1.464   .     S
C702   C704    1.416   .     A
C702   O793    1.384   .     S
C702   C737    1.415   .     A
C703   C723    1.406   .     A
C703   C738    1.414   .     A
C704   C733    1.413   .     A
C704   C103    1.518   1_556 S
C705   O798    1.287   .     A
C705   C707    1.431   .     S
C705   O796    1.288   .     A
C706   O797    1.289   .     A
C706   C708    1.432   .     S
C706   O799    1.287   .     A
C708   C807    1.332   .     S
C708   H852    1.087   .     S
C709   C720    1.409   .     A
C709   C711    1.392   .     A
C709   O800    1.383   .     S
C710   C713    1.392   .     A
C710   C721    1.410   .     A
C710   O782    1.383   .     S
C711   H763    1.084   .     S
C711   C714    1.398   .     A
C712   C715    1.462   .     S
C712   O795    1.294   .     A
C712   O792    1.295   .     A
C713   H773    1.084   .     S
C713   C715    1.397   .     A
C714   C716    1.413   .     A
C715   C717    1.412   .     A
C716   O783    1.385   .     S
C716   C718    1.400   .     A
C717   O784    1.384   .     S
C717   C719    1.400   .     A
C718   O785    1.386   .     S
C718   C720    1.415   .     A
C719   O786    1.387   .     S
C719   C721    1.415   .     A
C720   C1021   1.468   1_545 S
C721   C1020   1.468   .     S
C722   O800    1.410   .     S
C722   H778    1.109   .     S
C722   H777    1.114   .     S
C722   H1076   1.110   1_545 S
C723   O787    1.383   .     S
C723   C734    1.413   .     A
C724   O782    1.410   .     S
C724   H744    1.109   .     S
C724   H743    1.114   .     S
C724   H1042   1.110   .     S
C725   H747    1.110   .     S
C725   H745    1.113   .     S
C725   O783    1.412   .     S
C725   H746    1.110   .     S
C726   H750    1.110   .     S
C726   H748    1.113   .     S
C726   H749    1.110   .     S
C726   O784    1.412   .     S
C727   H754    1.109   .     S
C727   O785    1.412   .     S
C727   H753    1.114   .     S
C727   H1051   1.109   1_545 S
C728   H756    1.109   .     S
C728   H755    1.114   .     S
C728   O786    1.412   .     S
C728   H1057   1.109   .     S
C729   H759    1.111   .     S
C729   H760    1.107   .     S
C729   O787    1.413   .     S
C729   H758    1.115   .     S
C730   H764    1.109   .     S
C730   H762    1.113   .     S
C730   O788    1.410   .     S
C730   H761    1.113   .     S
C731   H768    1.113   .     S
C731   O791    1.410   .     S
C732   H772    1.109   .     S
C732   O793    1.411   .     S
C732   H771    1.112   .     S
C732   H770    1.114   .     S
C733   O788    1.383   .     S
C733   C735    1.426   .     A
C734   N779    1.378   .     A
C734   O789    1.370   .     S
C735   N780    1.369   .     A
C735   O790    1.380   .     S
C736   H774    1.079   .     S
C736   N779    1.369   .     A
C736   C738    1.416   .     A
C737   H775    1.079   .     S
C737   N780    1.361   .     A
C738   O791    1.380   .     S
Cu739  O799    1.957   .     S
Cu739  O795    1.953   .     S
Cu739  Cu740   2.682   .     S
Cu739  N780    2.015   .     S
Cu739  O781    1.954   .     S
Cu739  O796    1.958   .     S
Cu740  O798    1.957   .     S
Cu740  O797    1.958   .     S
Cu740  O792    1.954   .     S
Cu740  N779    2.015   .     S
Cu740  O794    1.953   .     S
H741   C807    1.085   .     S
H742   C1024   1.110   1_545 S
H751   C1027   1.109   .     S
H757   C1028   1.109   1_545 S
H765   O789    0.990   .     S
H766   O790    0.990   .     S
H767   C131    1.113   1_556 S
H769   C131    1.109   1_556 S
H776   C1022   1.110   .     S
C801   O881    1.297   .     A
C801   O894    1.293   .     A
C801   C814    1.464   .     S
C802   C804    1.416   .     A
C802   O893    1.384   .     S
C802   C837    1.415   .     A
C803   C823    1.406   .     A
C803   C838    1.414   .     A
C804   C833    1.413   .     A
C804   C203    1.518   1_556 S
C805   O898    1.287   .     A
C805   C807    1.431   .     S
C805   O896    1.288   .     A
C806   O897    1.289   .     A
C806   C808    1.432   .     S
C806   O899    1.287   .     A
C808   C607    1.332   1_655 S
C808   H652    1.087   1_655 S
C809   C820    1.409   .     A
C809   C811    1.392   .     A
C809   O900    1.383   .     S
C810   C813    1.392   .     A
C810   C821    1.410   .     A
C810   O882    1.383   .     S
C811   H863    1.084   .     S
C811   C814    1.398   .     A
C812   C815    1.462   .     S
C812   O895    1.294   .     A
C812   O892    1.295   .     A
C813   H873    1.084   .     S
C813   C815    1.397   .     A
C814   C816    1.413   .     A
C815   C817    1.412   .     A
C816   O883    1.385   .     S
C816   C818    1.400   .     A
C817   O884    1.384   .     S
C817   C819    1.400   .     A
C818   O885    1.386   .     S
C818   C820    1.415   .     A
C819   O886    1.387   .     S
C819   C821    1.415   .     A
C820   C1121   1.468   1_545 S
C821   C1120   1.468   .     S
C822   O900    1.410   .     S
C822   H878    1.109   .     S
C822   H877    1.114   .     S
C822   H1176   1.110   1_545 S
C823   O887    1.383   .     S
C823   C834    1.413   .     A
C824   O882    1.410   .     S
C824   H844    1.109   .     S
C824   H843    1.114   .     S
C824   H1142   1.110   .     S
C825   H847    1.110   .     S
C825   H845    1.113   .     S
C825   O883    1.412   .     S
C825   H846    1.110   .     S
C826   H850    1.110   .     S
C826   H848    1.113   .     S
C826   H849    1.110   .     S
C826   O884    1.412   .     S
C827   H854    1.109   .     S
C827   O885    1.412   .     S
C827   H853    1.114   .     S
C827   H1151   1.109   1_545 S
C828   H856    1.109   .     S
C828   H855    1.114   .     S
C828   O886    1.412   .     S
C828   H1157   1.109   .     S
C829   H859    1.111   .     S
C829   H860    1.107   .     S
C829   O887    1.413   .     S
C829   H858    1.115   .     S
C830   H864    1.109   .     S
C830   H862    1.113   .     S
C830   O888    1.410   .     S
C830   H861    1.113   .     S
C831   H868    1.113   .     S
C831   O891    1.410   .     S
C832   H872    1.109   .     S
C832   O893    1.411   .     S
C832   H871    1.112   .     S
C832   H870    1.114   .     S
C833   O888    1.383   .     S
C833   C835    1.426   .     A
C834   N879    1.378   .     A
C834   O889    1.370   .     S
C835   N880    1.369   .     A
C835   O890    1.380   .     S
C836   H874    1.079   .     S
C836   N879    1.369   .     A
C836   C838    1.416   .     A
C837   H875    1.079   .     S
C837   N880    1.361   .     A
C838   O891    1.380   .     S
Cu839  O899    1.957   .     S
Cu839  O895    1.953   .     S
Cu839  Cu840   2.682   .     S
Cu839  N880    2.015   .     S
Cu839  O881    1.954   .     S
Cu839  O896    1.958   .     S
Cu840  O898    1.957   .     S
Cu840  O897    1.958   .     S
Cu840  O892    1.954   .     S
Cu840  N879    2.015   .     S
Cu840  O894    1.953   .     S
H841   C607    1.085   1_655 S
H842   C1124   1.110   1_545 S
H851   C1127   1.109   .     S
H857   C1128   1.109   1_545 S
H865   O889    0.990   .     S
H866   O890    0.990   .     S
H867   C231    1.113   1_556 S
H869   C231    1.109   1_556 S
H876   C1122   1.110   .     S
C901   O981    1.297   .     A
C901   O994    1.293   .     A
C901   C914    1.464   .     S
C902   C904    1.416   .     A
C902   O993    1.384   .     S
C902   C937    1.415   .     A
C903   C923    1.406   .     A
C903   C938    1.414   .     A
C904   C933    1.413   .     A
C904   C303    1.518   1_556 S
C905   O998    1.287   .     A
C905   C907    1.431   .     S
C905   O996    1.288   .     A
C906   O997    1.289   .     A
C906   C908    1.432   .     S
C906   O999    1.287   .     A
C907   C1108   1.332   1_455 S
C907   H1141   1.085   1_455 S
C908   C1007   1.332   .     S
C908   H1052   1.087   .     S
C909   C920    1.409   .     A
C909   C911    1.392   .     A
C909   O1000   1.383   .     S
C910   C913    1.392   .     A
C910   C921    1.410   .     A
C910   O982    1.383   .     S
C911   H963    1.084   .     S
C911   C914    1.398   .     A
C912   C915    1.462   .     S
C912   O995    1.294   .     A
C912   O992    1.295   .     A
C913   H973    1.084   .     S
C913   C915    1.397   .     A
C914   C916    1.413   .     A
C915   C917    1.412   .     A
C916   O983    1.385   .     S
C916   C918    1.400   .     A
C917   O984    1.384   .     S
C917   C919    1.400   .     A
C918   O985    1.386   .     S
C918   C920    1.415   .     A
C919   O986    1.387   .     S
C919   C921    1.415   .     A
C921   C620    1.468   1_565 S
C922   O1000   1.410   .     S
C922   H978    1.109   .     S
C922   H977    1.114   .     S
C923   O987    1.383   .     S
C923   C934    1.413   .     A
C924   O982    1.410   .     S
C924   H944    1.109   .     S
C924   H943    1.114   .     S
C924   H642    1.110   1_565 S
C925   H947    1.110   .     S
C925   H945    1.113   .     S
C925   O983    1.412   .     S
C925   H946    1.110   .     S
C926   H950    1.110   .     S
C926   H948    1.113   .     S
C926   H949    1.110   .     S
C926   O984    1.412   .     S
C927   H954    1.109   .     S
C927   O985    1.412   .     S
C927   H953    1.114   .     S
C928   H956    1.109   .     S
C928   H955    1.114   .     S
C928   O986    1.412   .     S
C928   H657    1.109   1_565 S
C929   H959    1.111   .     S
C929   H960    1.107   .     S
C929   O987    1.413   .     S
C929   H958    1.115   .     S
C930   H964    1.109   .     S
C930   H962    1.113   .     S
C930   O988    1.410   .     S
C930   H961    1.113   .     S
C931   H968    1.113   .     S
C931   O991    1.410   .     S
C932   H972    1.109   .     S
C932   O993    1.411   .     S
C932   H971    1.112   .     S
C932   H970    1.114   .     S
C933   O988    1.383   .     S
C933   C935    1.426   .     A
C934   N979    1.378   .     A
C934   O989    1.370   .     S
C935   N980    1.369   .     A
C935   O990    1.380   .     S
C936   H974    1.079   .     S
C936   N979    1.369   .     A
C936   C938    1.416   .     A
C937   H975    1.079   .     S
C937   N980    1.361   .     A
C938   O991    1.380   .     S
Cu939  O999    1.957   .     S
Cu939  O995    1.953   .     S
Cu939  Cu940   2.682   .     S
Cu939  N980    2.015   .     S
Cu939  O981    1.954   .     S
Cu939  O996    1.958   .     S
Cu940  O998    1.957   .     S
Cu940  O997    1.958   .     S
Cu940  O992    1.954   .     S
Cu940  N979    2.015   .     S
Cu940  O994    1.953   .     S
H941   C1007   1.085   .     S
H951   C627    1.109   1_565 S
H952   C1108   1.087   1_455 S
H965   O989    0.990   .     S
H966   O990    0.990   .     S
H967   C331    1.113   1_556 S
H969   C331    1.109   1_556 S
H976   C622    1.110   1_565 S
C1001  O1081   1.297   .     A
C1001  O1094   1.293   .     A
C1001  C1014   1.464   .     S
C1002  C1004   1.416   .     A
C1002  O1093   1.384   .     S
C1002  C1037   1.415   .     A
C1003  C1023   1.406   .     A
C1003  C1038   1.414   .     A
C1004  C1033   1.413   .     A
C1004  C403    1.518   1_556 S
C1005  O1098   1.287   .     A
C1005  C1007   1.431   .     S
C1005  O1096   1.288   .     A
C1006  O1097   1.289   .     A
C1006  C1008   1.432   .     S
C1006  O1099   1.287   .     A
C1008  C1107   1.332   .     S
C1008  H1152   1.087   .     S
C1009  C1020   1.409   .     A
C1009  C1011   1.392   .     A
C1009  O1100   1.383   .     S
C1010  C1013   1.392   .     A
C1010  C1021   1.410   .     A
C1010  O1082   1.383   .     S
C1011  H1063   1.084   .     S
C1011  C1014   1.398   .     A
C1012  C1015   1.462   .     S
C1012  O1095   1.294   .     A
C1012  O1092   1.295   .     A
C1013  H1073   1.084   .     S
C1013  C1015   1.397   .     A
C1014  C1016   1.413   .     A
C1015  C1017   1.412   .     A
C1016  O1083   1.385   .     S
C1016  C1018   1.400   .     A
C1017  O1084   1.384   .     S
C1017  C1019   1.400   .     A
C1018  O1085   1.386   .     S
C1018  C1020   1.415   .     A
C1019  O1086   1.387   .     S
C1019  C1021   1.415   .     A
C1021  C720    1.468   1_565 S
C1022  O1100   1.410   .     S
C1022  H1078   1.109   .     S
C1022  H1077   1.114   .     S
C1023  O1087   1.383   .     S
C1023  C1034   1.413   .     A
C1024  O1082   1.410   .     S
C1024  H1044   1.109   .     S
C1024  H1043   1.114   .     S
C1024  H742    1.110   1_565 S
C1025  H1047   1.110   .     S
C1025  H1045   1.113   .     S
C1025  O1083   1.412   .     S
C1025  H1046   1.110   .     S
C1026  H1050   1.110   .     S
C1026  H1048   1.113   .     S
C1026  H1049   1.110   .     S
C1026  O1084   1.412   .     S
C1027  H1054   1.109   .     S
C1027  O1085   1.412   .     S
C1027  H1053   1.114   .     S
C1028  H1056   1.109   .     S
C1028  H1055   1.114   .     S
C1028  O1086   1.412   .     S
C1028  H757    1.109   1_565 S
C1029  H1059   1.111   .     S
C1029  H1060   1.107   .     S
C1029  O1087   1.413   .     S
C1029  H1058   1.115   .     S
C1030  H1064   1.109   .     S
C1030  H1062   1.113   .     S
C1030  O1088   1.410   .     S
C1030  H1061   1.113   .     S
C1031  H1068   1.113   .     S
C1031  O1091   1.410   .     S
C1032  H1072   1.109   .     S
C1032  O1093   1.411   .     S
C1032  H1071   1.112   .     S
C1032  H1070   1.114   .     S
C1033  O1088   1.383   .     S
C1033  C1035   1.426   .     A
C1034  N1079   1.378   .     A
C1034  O1089   1.370   .     S
C1035  N1080   1.369   .     A
C1035  O1090   1.380   .     S
C1036  H1074   1.079   .     S
C1036  N1079   1.369   .     A
C1036  C1038   1.416   .     A
C1037  H1075   1.079   .     S
C1037  N1080   1.361   .     A
C1038  O1091   1.380   .     S
Cu1039 O1099   1.957   .     S
Cu1039 O1095   1.953   .     S
Cu1039 Cu1040  2.682   .     S
Cu1039 N1080   2.015   .     S
Cu1039 O1081   1.954   .     S
Cu1039 O1096   1.958   .     S
Cu1040 O1098   1.957   .     S
Cu1040 O1097   1.958   .     S
Cu1040 O1092   1.954   .     S
Cu1040 N1079   2.015   .     S
Cu1040 O1094   1.953   .     S
H1041  C1107   1.085   .     S
H1051  C727    1.109   1_565 S
H1065  O1089   0.990   .     S
H1066  O1090   0.990   .     S
H1067  C431    1.113   1_556 S
H1069  C431    1.109   1_556 S
H1076  C722    1.110   1_565 S
C1101  O1181   1.297   .     A
C1101  O1194   1.293   .     A
C1101  C1114   1.464   .     S
C1102  C1104   1.416   .     A
C1102  O1193   1.384   .     S
C1102  C1137   1.415   .     A
C1103  C1123   1.406   .     A
C1103  C1138   1.414   .     A
C1104  C1133   1.413   .     A
C1104  C503    1.518   1_556 S
C1105  O1198   1.287   .     A
C1105  C1107   1.431   .     S
C1105  O1196   1.288   .     A
C1106  O1197   1.289   .     A
C1106  C1108   1.432   .     S
C1106  O1199   1.287   .     A
C1108  C907    1.332   1_655 S
C1108  H952    1.087   1_655 S
C1109  C1120   1.409   .     A
C1109  C1111   1.392   .     A
C1109  O1200   1.383   .     S
C1110  C1113   1.392   .     A
C1110  C1121   1.410   .     A
C1110  O1182   1.383   .     S
C1111  H1163   1.084   .     S
C1111  C1114   1.398   .     A
C1112  C1115   1.462   .     S
C1112  O1195   1.294   .     A
C1112  O1192   1.295   .     A
C1113  H1173   1.084   .     S
C1113  C1115   1.397   .     A
C1114  C1116   1.413   .     A
C1115  C1117   1.412   .     A
C1116  O1183   1.385   .     S
C1116  C1118   1.400   .     A
C1117  O1184   1.384   .     S
C1117  C1119   1.400   .     A
C1118  O1185   1.386   .     S
C1118  C1120   1.415   .     A
C1119  O1186   1.387   .     S
C1119  C1121   1.415   .     A
C1121  C820    1.468   1_565 S
C1122  O1200   1.410   .     S
C1122  H1178   1.109   .     S
C1122  H1177   1.114   .     S
C1123  O1187   1.383   .     S
C1123  C1134   1.413   .     A
C1124  O1182   1.410   .     S
C1124  H1144   1.109   .     S
C1124  H1143   1.114   .     S
C1124  H842    1.110   1_565 S
C1125  H1147   1.110   .     S
C1125  H1145   1.113   .     S
C1125  O1183   1.412   .     S
C1125  H1146   1.110   .     S
C1126  H1150   1.110   .     S
C1126  H1148   1.113   .     S
C1126  H1149   1.110   .     S
C1126  O1184   1.412   .     S
C1127  H1154   1.109   .     S
C1127  O1185   1.412   .     S
C1127  H1153   1.114   .     S
C1128  H1156   1.109   .     S
C1128  H1155   1.114   .     S
C1128  O1186   1.412   .     S
C1128  H857    1.109   1_565 S
C1129  H1159   1.111   .     S
C1129  H1160   1.107   .     S
C1129  O1187   1.413   .     S
C1129  H1158   1.115   .     S
C1130  H1164   1.109   .     S
C1130  H1162   1.113   .     S
C1130  O1188   1.410   .     S
C1130  H1161   1.113   .     S
C1131  H1168   1.113   .     S
C1131  O1191   1.410   .     S
C1132  H1172   1.109   .     S
C1132  O1193   1.411   .     S
C1132  H1171   1.112   .     S
C1132  H1170   1.114   .     S
C1133  O1188   1.383   .     S
C1133  C1135   1.426   .     A
C1134  N1179   1.378   .     A
C1134  O1189   1.370   .     S
C1135  N1180   1.369   .     A
C1135  O1190   1.380   .     S
C1136  H1174   1.079   .     S
C1136  N1179   1.369   .     A
C1136  C1138   1.416   .     A
C1137  H1175   1.079   .     S
C1137  N1180   1.361   .     A
C1138  O1191   1.380   .     S
Cu1139 O1199   1.957   .     S
Cu1139 O1195   1.953   .     S
Cu1139 Cu1140  2.682   .     S
Cu1139 N1180   2.015   .     S
Cu1139 O1181   1.954   .     S
Cu1139 O1196   1.958   .     S
Cu1140 O1198   1.957   .     S
Cu1140 O1197   1.958   .     S
Cu1140 O1192   1.954   .     S
Cu1140 N1179   2.015   .     S
Cu1140 O1194   1.953   .     S
H1141  C907    1.085   1_655 S
H1151  C827    1.109   1_565 S
H1165  O1189   0.990   .     S
H1166  O1190   0.990   .     S
H1167  C531    1.113   1_556 S
H1169  C531    1.109   1_556 S
H1176  C822    1.110   1_565 S
