data_str_m2_o1_o16_pcu_sym.23
_audit_creation_date              2020-01-03
_audit_creation_method            'Materials Studio'
_symmetry_space_group_name_H-M    'P1'
_symmetry_Int_Tables_number       1
_symmetry_cell_setting            triclinic
loop_
_symmetry_equiv_pos_as_xyz
  x,y,z
_cell_length_a                    28.6209
_cell_length_b                    32.4556
_cell_length_c                    26.8827
_cell_angle_alpha                 90.7568
_cell_angle_beta                  72.4729
_cell_angle_gamma                 90.3827
loop_
_atom_site_label
_atom_site_type_symbol
_atom_site_fract_x
_atom_site_fract_y
_atom_site_fract_z
_atom_site_U_iso_or_equiv
_atom_site_adp_type
_atom_site_occupancy
C1     C     0.16687   0.24593   0.24984   0.00000  Uiso   1.00
C2     C     0.12453   0.16785   0.40758   0.00000  Uiso   1.00
C3     C     0.21163   0.31208   0.23034   0.00000  Uiso   1.00
C4     C     0.14035   0.16572   0.35012   0.00000  Uiso   1.00
C5     C     0.21152   0.02138   0.23006   0.00000  Uiso   1.00
C6     C     0.16707   0.04278   0.24911   0.00000  Uiso   1.00
C7     C     0.12289   0.02124   0.26822   0.00000  Uiso   1.00
C8     C     0.12296   0.31193   0.26820   0.00000  Uiso   1.00
C9     C     0.16728   0.29054   0.24947   0.00000  Uiso   1.00
C10    C     0.30017   0.19369   0.28091   0.00000  Uiso   1.00
C11    C     0.01642   0.19373   0.28075   0.00000  Uiso   1.00
C12    C     0.14966   0.17336   0.48675   0.00000  Uiso   1.00
C13    C     0.03248   0.13920   0.21941   0.00000  Uiso   1.00
C14    C     0.31644   0.13966   0.21941   0.00000  Uiso   1.00
C15    C     0.16673   0.08740   0.24956   0.00000  Uiso   1.00
C16    C     0.19298   0.16681   0.14992   0.00000  Uiso   1.00
C17    C     0.26708   0.14419   0.01120   0.00000  Uiso   1.00
C18    C     0.20856   0.16491   0.09278   0.00000  Uiso   1.00
C19    C     0.08131   0.18953   0.43266   0.00000  Uiso   1.00
C20    C     0.07377   0.20517   0.48254   0.00000  Uiso   1.00
C21    C     0.10879   0.19985   0.00805   0.00000  Uiso   1.00
C22    C     0.06388   0.10750   0.18658   0.00000  Uiso   1.00
C23    C     0.15653   0.15580   0.43643   0.00000  Uiso   1.00
C24    C     0.27943   0.10213   0.41090   0.00000  Uiso   1.00
C25    C     0.19140   0.09425   0.37806   0.00000  Uiso   1.00
C26    C     0.18450   0.16470   0.01318   0.00000  Uiso   1.00
C27    C     0.22996   0.14595   0.48613   0.00000  Uiso   1.00
C28    C     0.23531   0.12684   0.43711   0.00000  Uiso   1.00
C29    C     0.19563   0.12741   0.41594   0.00000  Uiso   1.00
C30    C     0.17393   0.17178   0.06693   0.00000  Uiso   1.00
C31    C     0.25615   0.15370   0.06416   0.00000  Uiso   1.00
Cu32   Cu    0.11978   0.16666   0.25000   0.00000  Uiso   1.00
Cu33   Cu    0.21355   0.16667   0.25000   0.00000  Uiso   1.00
F34    F     0.25476   0.04152   0.21008   0.00000  Uiso   1.00
F35    F     0.26848   0.22075   0.31230   0.00000  Uiso   1.00
F36    F     0.31357   0.13224   0.48565   0.00000  Uiso   1.00
F37    F     0.04865   0.19959   0.40718   0.00000  Uiso   1.00
F38    F     0.10398   0.22403   0.05083   0.00000  Uiso   1.00
F39    F     0.25492   0.29201   0.21069   0.00000  Uiso   1.00
H40    H     0.28416   0.14982   0.08327   0.00000  Uiso   1.00
H41    H     0.12003   0.08226   0.41596   0.00000  Uiso   1.00
H42    H     0.08843   0.03733   0.28382   0.00000  Uiso   1.00
H43    H     0.08848   0.29571   0.28345   0.00000  Uiso   1.00
H44    H     0.02833   0.21534   0.30546   0.00000  Uiso   1.00
H45    H     0.30388   0.11812   0.19505   0.00000  Uiso   1.00
H46    H     0.13738   0.17944   0.09033   0.00000  Uiso   1.00
H47    H     0.04225   0.22453   0.49996   0.00000  Uiso   1.00
H48    H     0.10827   0.09126   0.11553   0.00000  Uiso   1.00
H49    H     0.00757   0.09665   0.35002   0.00000  Uiso   1.00
N50    N     0.04931   0.16666   0.24998   0.00000  Uiso   1.00
N51    N     0.28402   0.16669   0.24999   0.00000  Uiso   1.00
O52    O     0.12708   0.22678   0.25000   0.00000  Uiso   1.00
O53    O     0.08905   0.11586   0.13459   0.00000  Uiso   1.00
O54    O     0.28676   0.06966   0.42986   0.00000  Uiso   1.00
O55    O     0.31222   0.11603   0.36434   0.00000  Uiso   1.00
O56    O     0.22711   0.08402   0.34213   0.00000  Uiso   1.00
O57    O     0.14681   0.07419   0.38309   0.00000  Uiso   1.00
O58    O     0.20627   0.22679   0.25000   0.00000  Uiso   1.00
O59    O     0.10775   0.16665   0.32549   0.00000  Uiso   1.00
O60    O     0.18694   0.16666   0.32549   0.00000  Uiso   1.00
O61    O     0.12706   0.10654   0.24999   0.00000  Uiso   1.00
O62    O     0.20625   0.10655   0.24999   0.00000  Uiso   1.00
O63    O     0.14640   0.16667   0.17451   0.00000  Uiso   1.00
O64    O     0.22559   0.16668   0.17451   0.00000  Uiso   1.00
O65    O     0.06383   0.07269   0.20338   0.00000  Uiso   1.00
C66    C     0.50021   0.24593   0.24984   0.00000  Uiso   1.00
C67    C     0.45786   0.16785   0.40758   0.00000  Uiso   1.00
C68    C     0.54496   0.31208   0.23034   0.00000  Uiso   1.00
C69    C     0.47369   0.16572   0.35012   0.00000  Uiso   1.00
C70    C     0.54486   0.02138   0.23006   0.00000  Uiso   1.00
C71    C     0.50040   0.04278   0.24911   0.00000  Uiso   1.00
C72    C     0.45623   0.02124   0.26822   0.00000  Uiso   1.00
C73    C     0.45629   0.31193   0.26820   0.00000  Uiso   1.00
C74    C     0.50061   0.29054   0.24947   0.00000  Uiso   1.00
C75    C     0.63350   0.19369   0.28091   0.00000  Uiso   1.00
C76    C     0.34976   0.19373   0.28075   0.00000  Uiso   1.00
C77    C     0.48299   0.17336   0.48675   0.00000  Uiso   1.00
C78    C     0.36581   0.13920   0.21941   0.00000  Uiso   1.00
C79    C     0.64977   0.13966   0.21941   0.00000  Uiso   1.00
C80    C     0.50007   0.08740   0.24956   0.00000  Uiso   1.00
C81    C     0.52631   0.16681   0.14992   0.00000  Uiso   1.00
C82    C     0.60041   0.14419   0.01120   0.00000  Uiso   1.00
C83    C     0.54189   0.16491   0.09278   0.00000  Uiso   1.00
C84    C     0.41465   0.18953   0.43266   0.00000  Uiso   1.00
C85    C     0.40710   0.20517   0.48254   0.00000  Uiso   1.00
C86    C     0.44212   0.19985   0.00805   0.00000  Uiso   1.00
C87    C     0.39721   0.10750   0.18658   0.00000  Uiso   1.00
C88    C     0.48987   0.15580   0.43643   0.00000  Uiso   1.00
C89    C     0.61276   0.10213   0.41090   0.00000  Uiso   1.00
C90    C     0.52473   0.09425   0.37806   0.00000  Uiso   1.00
C91    C     0.51783   0.16470   0.01318   0.00000  Uiso   1.00
C92    C     0.56330   0.14595   0.48613   0.00000  Uiso   1.00
C93    C     0.56864   0.12684   0.43711   0.00000  Uiso   1.00
C94    C     0.52896   0.12741   0.41594   0.00000  Uiso   1.00
C95    C     0.50726   0.17178   0.06693   0.00000  Uiso   1.00
C96    C     0.58948   0.15370   0.06416   0.00000  Uiso   1.00
Cu97   Cu    0.45311   0.16666   0.25000   0.00000  Uiso   1.00
Cu98   Cu    0.54689   0.16667   0.25000   0.00000  Uiso   1.00
F99    F     0.58809   0.04152   0.21008   0.00000  Uiso   1.00
F100   F     0.60182   0.22075   0.31230   0.00000  Uiso   1.00
F101   F     0.64691   0.13224   0.48565   0.00000  Uiso   1.00
F102   F     0.38198   0.19959   0.40718   0.00000  Uiso   1.00
F103   F     0.43731   0.22403   0.05083   0.00000  Uiso   1.00
F104   F     0.58826   0.29201   0.21069   0.00000  Uiso   1.00
H105   H     0.61749   0.14982   0.08327   0.00000  Uiso   1.00
H106   H     0.45337   0.08226   0.41596   0.00000  Uiso   1.00
H107   H     0.42176   0.03733   0.28382   0.00000  Uiso   1.00
H108   H     0.42181   0.29571   0.28345   0.00000  Uiso   1.00
H109   H     0.36166   0.21534   0.30546   0.00000  Uiso   1.00
H110   H     0.63722   0.11812   0.19505   0.00000  Uiso   1.00
H111   H     0.47071   0.17944   0.09033   0.00000  Uiso   1.00
H112   H     0.37559   0.22453   0.49996   0.00000  Uiso   1.00
H113   H     0.44160   0.09126   0.11553   0.00000  Uiso   1.00
H114   H     0.34091   0.09665   0.35002   0.00000  Uiso   1.00
N115   N     0.38265   0.16666   0.24998   0.00000  Uiso   1.00
N116   N     0.61735   0.16669   0.24999   0.00000  Uiso   1.00
O117   O     0.46042   0.22678   0.25000   0.00000  Uiso   1.00
O118   O     0.42238   0.11586   0.13459   0.00000  Uiso   1.00
O119   O     0.62009   0.06966   0.42986   0.00000  Uiso   1.00
O120   O     0.64556   0.11603   0.36434   0.00000  Uiso   1.00
O121   O     0.56045   0.08402   0.34213   0.00000  Uiso   1.00
O122   O     0.48014   0.07419   0.38309   0.00000  Uiso   1.00
O123   O     0.53961   0.22679   0.25000   0.00000  Uiso   1.00
O124   O     0.44108   0.16665   0.32549   0.00000  Uiso   1.00
O125   O     0.52027   0.16666   0.32549   0.00000  Uiso   1.00
O126   O     0.46039   0.10654   0.24999   0.00000  Uiso   1.00
O127   O     0.53958   0.10655   0.24999   0.00000  Uiso   1.00
O128   O     0.47973   0.16667   0.17451   0.00000  Uiso   1.00
O129   O     0.55892   0.16668   0.17451   0.00000  Uiso   1.00
O130   O     0.39716   0.07269   0.20338   0.00000  Uiso   1.00
C131   C     0.83354   0.24593   0.24984   0.00000  Uiso   1.00
C132   C     0.79120   0.16785   0.40758   0.00000  Uiso   1.00
C133   C     0.87830   0.31208   0.23034   0.00000  Uiso   1.00
C134   C     0.80702   0.16572   0.35012   0.00000  Uiso   1.00
C135   C     0.87819   0.02138   0.23006   0.00000  Uiso   1.00
C136   C     0.83374   0.04278   0.24911   0.00000  Uiso   1.00
C137   C     0.78956   0.02124   0.26822   0.00000  Uiso   1.00
C138   C     0.78963   0.31193   0.26820   0.00000  Uiso   1.00
C139   C     0.83394   0.29054   0.24947   0.00000  Uiso   1.00
C140   C     0.96683   0.19369   0.28091   0.00000  Uiso   1.00
C141   C     0.68309   0.19373   0.28075   0.00000  Uiso   1.00
C142   C     0.81632   0.17336   0.48675   0.00000  Uiso   1.00
C143   C     0.69915   0.13920   0.21941   0.00000  Uiso   1.00
C144   C     0.98310   0.13966   0.21941   0.00000  Uiso   1.00
C145   C     0.83340   0.08740   0.24956   0.00000  Uiso   1.00
C146   C     0.85965   0.16681   0.14992   0.00000  Uiso   1.00
C147   C     0.93375   0.14419   0.01120   0.00000  Uiso   1.00
C148   C     0.87522   0.16491   0.09278   0.00000  Uiso   1.00
C149   C     0.74798   0.18953   0.43266   0.00000  Uiso   1.00
C150   C     0.74043   0.20517   0.48254   0.00000  Uiso   1.00
C151   C     0.77546   0.19985   0.00805   0.00000  Uiso   1.00
C152   C     0.73055   0.10750   0.18658   0.00000  Uiso   1.00
C153   C     0.82320   0.15580   0.43643   0.00000  Uiso   1.00
C154   C     0.94610   0.10213   0.41090   0.00000  Uiso   1.00
C155   C     0.85807   0.09425   0.37806   0.00000  Uiso   1.00
C156   C     0.85116   0.16470   0.01318   0.00000  Uiso   1.00
C157   C     0.89663   0.14595   0.48613   0.00000  Uiso   1.00
C158   C     0.90197   0.12684   0.43711   0.00000  Uiso   1.00
C159   C     0.86229   0.12741   0.41594   0.00000  Uiso   1.00
C160   C     0.84060   0.17178   0.06693   0.00000  Uiso   1.00
C161   C     0.92281   0.15370   0.06416   0.00000  Uiso   1.00
Cu162  Cu    0.78645   0.16666   0.25000   0.00000  Uiso   1.00
Cu163  Cu    0.88022   0.16667   0.25000   0.00000  Uiso   1.00
F164   F     0.92143   0.04152   0.21008   0.00000  Uiso   1.00
F165   F     0.93515   0.22075   0.31230   0.00000  Uiso   1.00
F166   F     0.98024   0.13224   0.48565   0.00000  Uiso   1.00
F167   F     0.71532   0.19959   0.40718   0.00000  Uiso   1.00
F168   F     0.77064   0.22403   0.05083   0.00000  Uiso   1.00
F169   F     0.92159   0.29201   0.21069   0.00000  Uiso   1.00
H170   H     0.95082   0.14982   0.08327   0.00000  Uiso   1.00
H171   H     0.78670   0.08226   0.41596   0.00000  Uiso   1.00
H172   H     0.75510   0.03733   0.28382   0.00000  Uiso   1.00
H173   H     0.75515   0.29571   0.28345   0.00000  Uiso   1.00
H174   H     0.69500   0.21534   0.30546   0.00000  Uiso   1.00
H175   H     0.97055   0.11812   0.19505   0.00000  Uiso   1.00
H176   H     0.80404   0.17944   0.09033   0.00000  Uiso   1.00
H177   H     0.70892   0.22453   0.49996   0.00000  Uiso   1.00
H178   H     0.77493   0.09126   0.11553   0.00000  Uiso   1.00
H179   H     0.67424   0.09665   0.35002   0.00000  Uiso   1.00
N180   N     0.71598   0.16666   0.24998   0.00000  Uiso   1.00
N181   N     0.95069   0.16669   0.24999   0.00000  Uiso   1.00
O182   O     0.79375   0.22678   0.25000   0.00000  Uiso   1.00
O183   O     0.75571   0.11586   0.13459   0.00000  Uiso   1.00
O184   O     0.95343   0.06966   0.42986   0.00000  Uiso   1.00
O185   O     0.97889   0.11603   0.36434   0.00000  Uiso   1.00
O186   O     0.89378   0.08402   0.34213   0.00000  Uiso   1.00
O187   O     0.81348   0.07419   0.38309   0.00000  Uiso   1.00
O188   O     0.87294   0.22679   0.25000   0.00000  Uiso   1.00
O189   O     0.77441   0.16665   0.32549   0.00000  Uiso   1.00
O190   O     0.85360   0.16666   0.32549   0.00000  Uiso   1.00
O191   O     0.79373   0.10654   0.24999   0.00000  Uiso   1.00
O192   O     0.87292   0.10655   0.24999   0.00000  Uiso   1.00
O193   O     0.81306   0.16667   0.17451   0.00000  Uiso   1.00
O194   O     0.89225   0.16668   0.17451   0.00000  Uiso   1.00
O195   O     0.73050   0.07269   0.20338   0.00000  Uiso   1.00
C196   C     0.16687   0.57926   0.24984   0.00000  Uiso   1.00
C197   C     0.12453   0.50118   0.40758   0.00000  Uiso   1.00
C198   C     0.21163   0.64541   0.23034   0.00000  Uiso   1.00
C199   C     0.14035   0.49905   0.35012   0.00000  Uiso   1.00
C200   C     0.21152   0.35471   0.23006   0.00000  Uiso   1.00
C201   C     0.16707   0.37611   0.24911   0.00000  Uiso   1.00
C202   C     0.12289   0.35457   0.26822   0.00000  Uiso   1.00
C203   C     0.12296   0.64526   0.26820   0.00000  Uiso   1.00
C204   C     0.16728   0.62388   0.24947   0.00000  Uiso   1.00
C205   C     0.30017   0.52702   0.28091   0.00000  Uiso   1.00
C206   C     0.01642   0.52706   0.28075   0.00000  Uiso   1.00
C207   C     0.14966   0.50669   0.48675   0.00000  Uiso   1.00
C208   C     0.03248   0.47254   0.21941   0.00000  Uiso   1.00
C209   C     0.31644   0.47299   0.21941   0.00000  Uiso   1.00
C210   C     0.16673   0.42073   0.24956   0.00000  Uiso   1.00
C211   C     0.19298   0.50014   0.14992   0.00000  Uiso   1.00
C212   C     0.26708   0.47752   0.01120   0.00000  Uiso   1.00
C213   C     0.20856   0.49824   0.09278   0.00000  Uiso   1.00
C214   C     0.08131   0.52287   0.43266   0.00000  Uiso   1.00
C215   C     0.07377   0.53850   0.48254   0.00000  Uiso   1.00
C216   C     0.10879   0.53318   0.00805   0.00000  Uiso   1.00
C217   C     0.06388   0.44083   0.18658   0.00000  Uiso   1.00
C218   C     0.15653   0.48914   0.43643   0.00000  Uiso   1.00
C219   C     0.27943   0.43546   0.41090   0.00000  Uiso   1.00
C220   C     0.19140   0.42758   0.37806   0.00000  Uiso   1.00
C221   C     0.18450   0.49804   0.01318   0.00000  Uiso   1.00
C222   C     0.22996   0.47928   0.48613   0.00000  Uiso   1.00
C223   C     0.23531   0.46017   0.43711   0.00000  Uiso   1.00
C224   C     0.19563   0.46074   0.41594   0.00000  Uiso   1.00
C225   C     0.17393   0.50511   0.06693   0.00000  Uiso   1.00
C226   C     0.25615   0.48703   0.06416   0.00000  Uiso   1.00
Cu227  Cu    0.11978   0.49999   0.25000   0.00000  Uiso   1.00
Cu228  Cu    0.21355   0.50001   0.25000   0.00000  Uiso   1.00
F229   F     0.25476   0.37486   0.21008   0.00000  Uiso   1.00
F230   F     0.26848   0.55408   0.31230   0.00000  Uiso   1.00
F231   F     0.31357   0.46557   0.48565   0.00000  Uiso   1.00
F232   F     0.04865   0.53292   0.40718   0.00000  Uiso   1.00
F233   F     0.10398   0.55737   0.05083   0.00000  Uiso   1.00
F234   F     0.25492   0.62535   0.21069   0.00000  Uiso   1.00
H235   H     0.28416   0.48315   0.08327   0.00000  Uiso   1.00
H236   H     0.12003   0.41559   0.41596   0.00000  Uiso   1.00
H237   H     0.08843   0.37067   0.28382   0.00000  Uiso   1.00
H238   H     0.08848   0.62905   0.28345   0.00000  Uiso   1.00
H239   H     0.02833   0.54867   0.30546   0.00000  Uiso   1.00
H240   H     0.30388   0.45145   0.19505   0.00000  Uiso   1.00
H241   H     0.13738   0.51278   0.09033   0.00000  Uiso   1.00
H242   H     0.04225   0.55786   0.49996   0.00000  Uiso   1.00
H243   H     0.10827   0.42459   0.11553   0.00000  Uiso   1.00
H244   H     0.00757   0.42998   0.35002   0.00000  Uiso   1.00
N245   N     0.04931   0.49999   0.24998   0.00000  Uiso   1.00
N246   N     0.28402   0.50002   0.24999   0.00000  Uiso   1.00
O247   O     0.12708   0.56011   0.25000   0.00000  Uiso   1.00
O248   O     0.08905   0.44920   0.13459   0.00000  Uiso   1.00
O249   O     0.28676   0.40299   0.42986   0.00000  Uiso   1.00
O250   O     0.31222   0.44937   0.36434   0.00000  Uiso   1.00
O251   O     0.22711   0.41735   0.34213   0.00000  Uiso   1.00
O252   O     0.14681   0.40752   0.38309   0.00000  Uiso   1.00
O253   O     0.20627   0.56012   0.25000   0.00000  Uiso   1.00
O254   O     0.10775   0.49998   0.32549   0.00000  Uiso   1.00
O255   O     0.18694   0.49999   0.32549   0.00000  Uiso   1.00
O256   O     0.12706   0.43988   0.24999   0.00000  Uiso   1.00
O257   O     0.20625   0.43989   0.24999   0.00000  Uiso   1.00
O258   O     0.14640   0.50001   0.17451   0.00000  Uiso   1.00
O259   O     0.22559   0.50002   0.17451   0.00000  Uiso   1.00
O260   O     0.06383   0.40603   0.20338   0.00000  Uiso   1.00
C261   C     0.50021   0.57926   0.24984   0.00000  Uiso   1.00
C262   C     0.45786   0.50118   0.40758   0.00000  Uiso   1.00
C263   C     0.54496   0.64541   0.23034   0.00000  Uiso   1.00
C264   C     0.47369   0.49905   0.35012   0.00000  Uiso   1.00
C265   C     0.54486   0.35471   0.23006   0.00000  Uiso   1.00
C266   C     0.50040   0.37611   0.24911   0.00000  Uiso   1.00
C267   C     0.45623   0.35457   0.26822   0.00000  Uiso   1.00
C268   C     0.45629   0.64526   0.26820   0.00000  Uiso   1.00
C269   C     0.50061   0.62388   0.24947   0.00000  Uiso   1.00
C270   C     0.63350   0.52702   0.28091   0.00000  Uiso   1.00
C271   C     0.34976   0.52706   0.28075   0.00000  Uiso   1.00
C272   C     0.48299   0.50669   0.48675   0.00000  Uiso   1.00
C273   C     0.36581   0.47254   0.21941   0.00000  Uiso   1.00
C274   C     0.64977   0.47299   0.21941   0.00000  Uiso   1.00
C275   C     0.50007   0.42073   0.24956   0.00000  Uiso   1.00
C276   C     0.52631   0.50014   0.14992   0.00000  Uiso   1.00
C277   C     0.60041   0.47752   0.01120   0.00000  Uiso   1.00
C278   C     0.54189   0.49824   0.09278   0.00000  Uiso   1.00
C279   C     0.41465   0.52287   0.43266   0.00000  Uiso   1.00
C280   C     0.40710   0.53850   0.48254   0.00000  Uiso   1.00
C281   C     0.44212   0.53318   0.00805   0.00000  Uiso   1.00
C282   C     0.39721   0.44083   0.18658   0.00000  Uiso   1.00
C283   C     0.48987   0.48914   0.43643   0.00000  Uiso   1.00
C284   C     0.61276   0.43546   0.41090   0.00000  Uiso   1.00
C285   C     0.52473   0.42758   0.37806   0.00000  Uiso   1.00
C286   C     0.51783   0.49804   0.01318   0.00000  Uiso   1.00
C287   C     0.56330   0.47928   0.48613   0.00000  Uiso   1.00
C288   C     0.56864   0.46017   0.43711   0.00000  Uiso   1.00
C289   C     0.52896   0.46074   0.41594   0.00000  Uiso   1.00
C290   C     0.50726   0.50511   0.06693   0.00000  Uiso   1.00
C291   C     0.58948   0.48703   0.06416   0.00000  Uiso   1.00
Cu292  Cu    0.45311   0.49999   0.25000   0.00000  Uiso   1.00
Cu293  Cu    0.54689   0.50001   0.25000   0.00000  Uiso   1.00
F294   F     0.58809   0.37486   0.21008   0.00000  Uiso   1.00
F295   F     0.60182   0.55408   0.31230   0.00000  Uiso   1.00
F296   F     0.64691   0.46557   0.48565   0.00000  Uiso   1.00
F297   F     0.38198   0.53292   0.40718   0.00000  Uiso   1.00
F298   F     0.43731   0.55737   0.05083   0.00000  Uiso   1.00
F299   F     0.58826   0.62535   0.21069   0.00000  Uiso   1.00
H300   H     0.61749   0.48315   0.08327   0.00000  Uiso   1.00
H301   H     0.45337   0.41559   0.41596   0.00000  Uiso   1.00
H302   H     0.42176   0.37067   0.28382   0.00000  Uiso   1.00
H303   H     0.42181   0.62905   0.28345   0.00000  Uiso   1.00
H304   H     0.36166   0.54867   0.30546   0.00000  Uiso   1.00
H305   H     0.63722   0.45145   0.19505   0.00000  Uiso   1.00
H306   H     0.47071   0.51278   0.09033   0.00000  Uiso   1.00
H307   H     0.37559   0.55786   0.49996   0.00000  Uiso   1.00
H308   H     0.44160   0.42459   0.11553   0.00000  Uiso   1.00
H309   H     0.34091   0.42998   0.35002   0.00000  Uiso   1.00
N310   N     0.38265   0.49999   0.24998   0.00000  Uiso   1.00
N311   N     0.61735   0.50002   0.24999   0.00000  Uiso   1.00
O312   O     0.46042   0.56011   0.25000   0.00000  Uiso   1.00
O313   O     0.42238   0.44920   0.13459   0.00000  Uiso   1.00
O314   O     0.62009   0.40299   0.42986   0.00000  Uiso   1.00
O315   O     0.64556   0.44937   0.36434   0.00000  Uiso   1.00
O316   O     0.56045   0.41735   0.34213   0.00000  Uiso   1.00
O317   O     0.48014   0.40752   0.38309   0.00000  Uiso   1.00
O318   O     0.53961   0.56012   0.25000   0.00000  Uiso   1.00
O319   O     0.44108   0.49998   0.32549   0.00000  Uiso   1.00
O320   O     0.52027   0.49999   0.32549   0.00000  Uiso   1.00
O321   O     0.46039   0.43988   0.24999   0.00000  Uiso   1.00
O322   O     0.53958   0.43989   0.24999   0.00000  Uiso   1.00
O323   O     0.47973   0.50001   0.17451   0.00000  Uiso   1.00
O324   O     0.55892   0.50002   0.17451   0.00000  Uiso   1.00
O325   O     0.39716   0.40603   0.20338   0.00000  Uiso   1.00
C326   C     0.83354   0.57926   0.24984   0.00000  Uiso   1.00
C327   C     0.79120   0.50118   0.40758   0.00000  Uiso   1.00
C328   C     0.87830   0.64541   0.23034   0.00000  Uiso   1.00
C329   C     0.80702   0.49905   0.35012   0.00000  Uiso   1.00
C330   C     0.87819   0.35471   0.23006   0.00000  Uiso   1.00
C331   C     0.83374   0.37611   0.24911   0.00000  Uiso   1.00
C332   C     0.78956   0.35457   0.26822   0.00000  Uiso   1.00
C333   C     0.78963   0.64526   0.26820   0.00000  Uiso   1.00
C334   C     0.83394   0.62388   0.24947   0.00000  Uiso   1.00
C335   C     0.96683   0.52702   0.28091   0.00000  Uiso   1.00
C336   C     0.68309   0.52706   0.28075   0.00000  Uiso   1.00
C337   C     0.81632   0.50669   0.48675   0.00000  Uiso   1.00
C338   C     0.69915   0.47254   0.21941   0.00000  Uiso   1.00
C339   C     0.98310   0.47299   0.21941   0.00000  Uiso   1.00
C340   C     0.83340   0.42073   0.24956   0.00000  Uiso   1.00
C341   C     0.85965   0.50014   0.14992   0.00000  Uiso   1.00
C342   C     0.93375   0.47752   0.01120   0.00000  Uiso   1.00
C343   C     0.87522   0.49824   0.09278   0.00000  Uiso   1.00
C344   C     0.74798   0.52287   0.43266   0.00000  Uiso   1.00
C345   C     0.74043   0.53850   0.48254   0.00000  Uiso   1.00
C346   C     0.77546   0.53318   0.00805   0.00000  Uiso   1.00
C347   C     0.73055   0.44083   0.18658   0.00000  Uiso   1.00
C348   C     0.82320   0.48914   0.43643   0.00000  Uiso   1.00
C349   C     0.94610   0.43546   0.41090   0.00000  Uiso   1.00
C350   C     0.85807   0.42758   0.37806   0.00000  Uiso   1.00
C351   C     0.85116   0.49804   0.01318   0.00000  Uiso   1.00
C352   C     0.89663   0.47928   0.48613   0.00000  Uiso   1.00
C353   C     0.90197   0.46017   0.43711   0.00000  Uiso   1.00
C354   C     0.86229   0.46074   0.41594   0.00000  Uiso   1.00
C355   C     0.84060   0.50511   0.06693   0.00000  Uiso   1.00
C356   C     0.92281   0.48703   0.06416   0.00000  Uiso   1.00
Cu357  Cu    0.78645   0.49999   0.25000   0.00000  Uiso   1.00
Cu358  Cu    0.88022   0.50001   0.25000   0.00000  Uiso   1.00
F359   F     0.92143   0.37486   0.21008   0.00000  Uiso   1.00
F360   F     0.93515   0.55408   0.31230   0.00000  Uiso   1.00
F361   F     0.98024   0.46557   0.48565   0.00000  Uiso   1.00
F362   F     0.71532   0.53292   0.40718   0.00000  Uiso   1.00
F363   F     0.77064   0.55737   0.05083   0.00000  Uiso   1.00
F364   F     0.92159   0.62535   0.21069   0.00000  Uiso   1.00
H365   H     0.95082   0.48315   0.08327   0.00000  Uiso   1.00
H366   H     0.78670   0.41559   0.41596   0.00000  Uiso   1.00
H367   H     0.75510   0.37067   0.28382   0.00000  Uiso   1.00
H368   H     0.75515   0.62905   0.28345   0.00000  Uiso   1.00
H369   H     0.69500   0.54867   0.30546   0.00000  Uiso   1.00
H370   H     0.97055   0.45145   0.19505   0.00000  Uiso   1.00
H371   H     0.80404   0.51278   0.09033   0.00000  Uiso   1.00
H372   H     0.70892   0.55786   0.49996   0.00000  Uiso   1.00
H373   H     0.77493   0.42459   0.11553   0.00000  Uiso   1.00
H374   H     0.67424   0.42998   0.35002   0.00000  Uiso   1.00
N375   N     0.71598   0.49999   0.24998   0.00000  Uiso   1.00
N376   N     0.95069   0.50002   0.24999   0.00000  Uiso   1.00
O377   O     0.79375   0.56011   0.25000   0.00000  Uiso   1.00
O378   O     0.75571   0.44920   0.13459   0.00000  Uiso   1.00
O379   O     0.95343   0.40299   0.42986   0.00000  Uiso   1.00
O380   O     0.97889   0.44937   0.36434   0.00000  Uiso   1.00
O381   O     0.89378   0.41735   0.34213   0.00000  Uiso   1.00
O382   O     0.81348   0.40752   0.38309   0.00000  Uiso   1.00
O383   O     0.87294   0.56012   0.25000   0.00000  Uiso   1.00
O384   O     0.77441   0.49998   0.32549   0.00000  Uiso   1.00
O385   O     0.85360   0.49999   0.32549   0.00000  Uiso   1.00
O386   O     0.79373   0.43988   0.24999   0.00000  Uiso   1.00
O387   O     0.87292   0.43989   0.24999   0.00000  Uiso   1.00
O388   O     0.81306   0.50001   0.17451   0.00000  Uiso   1.00
O389   O     0.89225   0.50002   0.17451   0.00000  Uiso   1.00
O390   O     0.73050   0.40603   0.20338   0.00000  Uiso   1.00
C391   C     0.16687   0.91260   0.24984   0.00000  Uiso   1.00
C392   C     0.12453   0.83452   0.40758   0.00000  Uiso   1.00
C393   C     0.21163   0.97874   0.23034   0.00000  Uiso   1.00
C394   C     0.14035   0.83238   0.35012   0.00000  Uiso   1.00
C395   C     0.21152   0.68804   0.23006   0.00000  Uiso   1.00
C396   C     0.16707   0.70945   0.24911   0.00000  Uiso   1.00
C397   C     0.12289   0.68791   0.26822   0.00000  Uiso   1.00
C398   C     0.12296   0.97860   0.26820   0.00000  Uiso   1.00
C399   C     0.16728   0.95721   0.24947   0.00000  Uiso   1.00
C400   C     0.30017   0.86035   0.28091   0.00000  Uiso   1.00
C401   C     0.01642   0.86039   0.28075   0.00000  Uiso   1.00
C402   C     0.14966   0.84002   0.48675   0.00000  Uiso   1.00
C403   C     0.03248   0.80587   0.21941   0.00000  Uiso   1.00
C404   C     0.31644   0.80633   0.21941   0.00000  Uiso   1.00
C405   C     0.16673   0.75407   0.24956   0.00000  Uiso   1.00
C406   C     0.19298   0.83347   0.14992   0.00000  Uiso   1.00
C407   C     0.26708   0.81085   0.01120   0.00000  Uiso   1.00
C408   C     0.20856   0.83157   0.09278   0.00000  Uiso   1.00
C409   C     0.08131   0.85620   0.43266   0.00000  Uiso   1.00
C410   C     0.07377   0.87183   0.48254   0.00000  Uiso   1.00
C411   C     0.10879   0.86652   0.00805   0.00000  Uiso   1.00
C412   C     0.06388   0.77417   0.18658   0.00000  Uiso   1.00
C413   C     0.15653   0.82247   0.43643   0.00000  Uiso   1.00
C414   C     0.27943   0.76879   0.41090   0.00000  Uiso   1.00
C415   C     0.19140   0.76092   0.37806   0.00000  Uiso   1.00
C416   C     0.18450   0.83137   0.01318   0.00000  Uiso   1.00
C417   C     0.22996   0.81262   0.48613   0.00000  Uiso   1.00
C418   C     0.23531   0.79351   0.43711   0.00000  Uiso   1.00
C419   C     0.19563   0.79408   0.41594   0.00000  Uiso   1.00
C420   C     0.17393   0.83844   0.06693   0.00000  Uiso   1.00
C421   C     0.25615   0.82036   0.06416   0.00000  Uiso   1.00
Cu422  Cu    0.11978   0.83333   0.25000   0.00000  Uiso   1.00
Cu423  Cu    0.21355   0.83334   0.25000   0.00000  Uiso   1.00
F424   F     0.25476   0.70819   0.21008   0.00000  Uiso   1.00
F425   F     0.26848   0.88742   0.31230   0.00000  Uiso   1.00
F426   F     0.31357   0.79890   0.48565   0.00000  Uiso   1.00
F427   F     0.04865   0.86625   0.40718   0.00000  Uiso   1.00
F428   F     0.10398   0.89070   0.05083   0.00000  Uiso   1.00
F429   F     0.25492   0.95868   0.21069   0.00000  Uiso   1.00
H430   H     0.28416   0.81648   0.08327   0.00000  Uiso   1.00
H431   H     0.12003   0.74893   0.41596   0.00000  Uiso   1.00
H432   H     0.08843   0.70400   0.28382   0.00000  Uiso   1.00
H433   H     0.08848   0.96238   0.28345   0.00000  Uiso   1.00
H434   H     0.02833   0.88201   0.30546   0.00000  Uiso   1.00
H435   H     0.30388   0.78479   0.19505   0.00000  Uiso   1.00
H436   H     0.13738   0.84611   0.09033   0.00000  Uiso   1.00
H437   H     0.04225   0.89120   0.49996   0.00000  Uiso   1.00
H438   H     0.10827   0.75793   0.11553   0.00000  Uiso   1.00
H439   H     0.00757   0.76332   0.35002   0.00000  Uiso   1.00
N440   N     0.04931   0.83332   0.24998   0.00000  Uiso   1.00
N441   N     0.28402   0.83335   0.24999   0.00000  Uiso   1.00
O442   O     0.12708   0.89345   0.25000   0.00000  Uiso   1.00
O443   O     0.08905   0.78253   0.13459   0.00000  Uiso   1.00
O444   O     0.28676   0.73633   0.42986   0.00000  Uiso   1.00
O445   O     0.31222   0.78270   0.36434   0.00000  Uiso   1.00
O446   O     0.22711   0.75068   0.34213   0.00000  Uiso   1.00
O447   O     0.14681   0.74085   0.38309   0.00000  Uiso   1.00
O448   O     0.20627   0.89346   0.25000   0.00000  Uiso   1.00
O449   O     0.10775   0.83332   0.32549   0.00000  Uiso   1.00
O450   O     0.18694   0.83333   0.32549   0.00000  Uiso   1.00
O451   O     0.12706   0.77321   0.24999   0.00000  Uiso   1.00
O452   O     0.20625   0.77322   0.24999   0.00000  Uiso   1.00
O453   O     0.14640   0.83334   0.17451   0.00000  Uiso   1.00
O454   O     0.22559   0.83335   0.17451   0.00000  Uiso   1.00
O455   O     0.06383   0.73936   0.20338   0.00000  Uiso   1.00
C456   C     0.50021   0.91260   0.24984   0.00000  Uiso   1.00
C457   C     0.45786   0.83452   0.40758   0.00000  Uiso   1.00
C458   C     0.54496   0.97874   0.23034   0.00000  Uiso   1.00
C459   C     0.47369   0.83238   0.35012   0.00000  Uiso   1.00
C460   C     0.54486   0.68804   0.23006   0.00000  Uiso   1.00
C461   C     0.50040   0.70945   0.24911   0.00000  Uiso   1.00
C462   C     0.45623   0.68791   0.26822   0.00000  Uiso   1.00
C463   C     0.45629   0.97860   0.26820   0.00000  Uiso   1.00
C464   C     0.50061   0.95721   0.24947   0.00000  Uiso   1.00
C465   C     0.63350   0.86035   0.28091   0.00000  Uiso   1.00
C466   C     0.34976   0.86039   0.28075   0.00000  Uiso   1.00
C467   C     0.48299   0.84002   0.48675   0.00000  Uiso   1.00
C468   C     0.36581   0.80587   0.21941   0.00000  Uiso   1.00
C469   C     0.64977   0.80633   0.21941   0.00000  Uiso   1.00
C470   C     0.50007   0.75407   0.24956   0.00000  Uiso   1.00
C471   C     0.52631   0.83347   0.14992   0.00000  Uiso   1.00
C472   C     0.60041   0.81085   0.01120   0.00000  Uiso   1.00
C473   C     0.54189   0.83157   0.09278   0.00000  Uiso   1.00
C474   C     0.41465   0.85620   0.43266   0.00000  Uiso   1.00
C475   C     0.40710   0.87183   0.48254   0.00000  Uiso   1.00
C476   C     0.44212   0.86652   0.00805   0.00000  Uiso   1.00
C477   C     0.39721   0.77417   0.18658   0.00000  Uiso   1.00
C478   C     0.48987   0.82247   0.43643   0.00000  Uiso   1.00
C479   C     0.61276   0.76879   0.41090   0.00000  Uiso   1.00
C480   C     0.52473   0.76092   0.37806   0.00000  Uiso   1.00
C481   C     0.51783   0.83137   0.01318   0.00000  Uiso   1.00
C482   C     0.56330   0.81262   0.48613   0.00000  Uiso   1.00
C483   C     0.56864   0.79351   0.43711   0.00000  Uiso   1.00
C484   C     0.52896   0.79408   0.41594   0.00000  Uiso   1.00
C485   C     0.50726   0.83844   0.06693   0.00000  Uiso   1.00
C486   C     0.58948   0.82036   0.06416   0.00000  Uiso   1.00
Cu487  Cu    0.45311   0.83333   0.25000   0.00000  Uiso   1.00
Cu488  Cu    0.54689   0.83334   0.25000   0.00000  Uiso   1.00
F489   F     0.58809   0.70819   0.21008   0.00000  Uiso   1.00
F490   F     0.60182   0.88742   0.31230   0.00000  Uiso   1.00
F491   F     0.64691   0.79890   0.48565   0.00000  Uiso   1.00
F492   F     0.38198   0.86625   0.40718   0.00000  Uiso   1.00
F493   F     0.43731   0.89070   0.05083   0.00000  Uiso   1.00
F494   F     0.58826   0.95868   0.21069   0.00000  Uiso   1.00
H495   H     0.61749   0.81648   0.08327   0.00000  Uiso   1.00
H496   H     0.45337   0.74893   0.41596   0.00000  Uiso   1.00
H497   H     0.42176   0.70400   0.28382   0.00000  Uiso   1.00
H498   H     0.42181   0.96238   0.28345   0.00000  Uiso   1.00
H499   H     0.36166   0.88201   0.30546   0.00000  Uiso   1.00
H500   H     0.63722   0.78479   0.19505   0.00000  Uiso   1.00
H501   H     0.47071   0.84611   0.09033   0.00000  Uiso   1.00
H502   H     0.37559   0.89120   0.49996   0.00000  Uiso   1.00
H503   H     0.44160   0.75793   0.11553   0.00000  Uiso   1.00
H504   H     0.34091   0.76332   0.35002   0.00000  Uiso   1.00
N505   N     0.38265   0.83332   0.24998   0.00000  Uiso   1.00
N506   N     0.61735   0.83335   0.24999   0.00000  Uiso   1.00
O507   O     0.46042   0.89345   0.25000   0.00000  Uiso   1.00
O508   O     0.42238   0.78253   0.13459   0.00000  Uiso   1.00
O509   O     0.62009   0.73633   0.42986   0.00000  Uiso   1.00
O510   O     0.64556   0.78270   0.36434   0.00000  Uiso   1.00
O511   O     0.56045   0.75068   0.34213   0.00000  Uiso   1.00
O512   O     0.48014   0.74085   0.38309   0.00000  Uiso   1.00
O513   O     0.53961   0.89346   0.25000   0.00000  Uiso   1.00
O514   O     0.44108   0.83332   0.32549   0.00000  Uiso   1.00
O515   O     0.52027   0.83333   0.32549   0.00000  Uiso   1.00
O516   O     0.46039   0.77321   0.24999   0.00000  Uiso   1.00
O517   O     0.53958   0.77322   0.24999   0.00000  Uiso   1.00
O518   O     0.47973   0.83334   0.17451   0.00000  Uiso   1.00
O519   O     0.55892   0.83335   0.17451   0.00000  Uiso   1.00
O520   O     0.39716   0.73936   0.20338   0.00000  Uiso   1.00
C521   C     0.83354   0.91260   0.24984   0.00000  Uiso   1.00
C522   C     0.79120   0.83452   0.40758   0.00000  Uiso   1.00
C523   C     0.87830   0.97874   0.23034   0.00000  Uiso   1.00
C524   C     0.80702   0.83238   0.35012   0.00000  Uiso   1.00
C525   C     0.87819   0.68804   0.23006   0.00000  Uiso   1.00
C526   C     0.83374   0.70945   0.24911   0.00000  Uiso   1.00
C527   C     0.78956   0.68791   0.26822   0.00000  Uiso   1.00
C528   C     0.78963   0.97860   0.26820   0.00000  Uiso   1.00
C529   C     0.83394   0.95721   0.24947   0.00000  Uiso   1.00
C530   C     0.96683   0.86035   0.28091   0.00000  Uiso   1.00
C531   C     0.68309   0.86039   0.28075   0.00000  Uiso   1.00
C532   C     0.81632   0.84002   0.48675   0.00000  Uiso   1.00
C533   C     0.69915   0.80587   0.21941   0.00000  Uiso   1.00
C534   C     0.98310   0.80633   0.21941   0.00000  Uiso   1.00
C535   C     0.83340   0.75407   0.24956   0.00000  Uiso   1.00
C536   C     0.85965   0.83347   0.14992   0.00000  Uiso   1.00
C537   C     0.93375   0.81085   0.01120   0.00000  Uiso   1.00
C538   C     0.87522   0.83157   0.09278   0.00000  Uiso   1.00
C539   C     0.74798   0.85620   0.43266   0.00000  Uiso   1.00
C540   C     0.74043   0.87183   0.48254   0.00000  Uiso   1.00
C541   C     0.77546   0.86652   0.00805   0.00000  Uiso   1.00
C542   C     0.73055   0.77417   0.18658   0.00000  Uiso   1.00
C543   C     0.82320   0.82247   0.43643   0.00000  Uiso   1.00
C544   C     0.94610   0.76879   0.41090   0.00000  Uiso   1.00
C545   C     0.85807   0.76092   0.37806   0.00000  Uiso   1.00
C546   C     0.85116   0.83137   0.01318   0.00000  Uiso   1.00
C547   C     0.89663   0.81262   0.48613   0.00000  Uiso   1.00
C548   C     0.90197   0.79351   0.43711   0.00000  Uiso   1.00
C549   C     0.86229   0.79408   0.41594   0.00000  Uiso   1.00
C550   C     0.84060   0.83844   0.06693   0.00000  Uiso   1.00
C551   C     0.92281   0.82036   0.06416   0.00000  Uiso   1.00
Cu552  Cu    0.78645   0.83333   0.25000   0.00000  Uiso   1.00
Cu553  Cu    0.88022   0.83334   0.25000   0.00000  Uiso   1.00
F554   F     0.92143   0.70819   0.21008   0.00000  Uiso   1.00
F555   F     0.93515   0.88742   0.31230   0.00000  Uiso   1.00
F556   F     0.98024   0.79890   0.48565   0.00000  Uiso   1.00
F557   F     0.71532   0.86625   0.40718   0.00000  Uiso   1.00
F558   F     0.77064   0.89070   0.05083   0.00000  Uiso   1.00
F559   F     0.92159   0.95868   0.21069   0.00000  Uiso   1.00
H560   H     0.95082   0.81648   0.08327   0.00000  Uiso   1.00
H561   H     0.78670   0.74893   0.41596   0.00000  Uiso   1.00
H562   H     0.75510   0.70400   0.28382   0.00000  Uiso   1.00
H563   H     0.75515   0.96238   0.28345   0.00000  Uiso   1.00
H564   H     0.69500   0.88201   0.30546   0.00000  Uiso   1.00
H565   H     0.97055   0.78479   0.19505   0.00000  Uiso   1.00
H566   H     0.80404   0.84611   0.09033   0.00000  Uiso   1.00
H567   H     0.70892   0.89120   0.49996   0.00000  Uiso   1.00
H568   H     0.77493   0.75793   0.11553   0.00000  Uiso   1.00
H569   H     0.67424   0.76332   0.35002   0.00000  Uiso   1.00
N570   N     0.71598   0.83332   0.24998   0.00000  Uiso   1.00
N571   N     0.95069   0.83335   0.24999   0.00000  Uiso   1.00
O572   O     0.79375   0.89345   0.25000   0.00000  Uiso   1.00
O573   O     0.75571   0.78253   0.13459   0.00000  Uiso   1.00
O574   O     0.95343   0.73633   0.42986   0.00000  Uiso   1.00
O575   O     0.97889   0.78270   0.36434   0.00000  Uiso   1.00
O576   O     0.89378   0.75068   0.34213   0.00000  Uiso   1.00
O577   O     0.81348   0.74085   0.38309   0.00000  Uiso   1.00
O578   O     0.87294   0.89346   0.25000   0.00000  Uiso   1.00
O579   O     0.77441   0.83332   0.32549   0.00000  Uiso   1.00
O580   O     0.85360   0.83333   0.32549   0.00000  Uiso   1.00
O581   O     0.79373   0.77321   0.24999   0.00000  Uiso   1.00
O582   O     0.87292   0.77322   0.24999   0.00000  Uiso   1.00
O583   O     0.81306   0.83334   0.17451   0.00000  Uiso   1.00
O584   O     0.89225   0.83335   0.17451   0.00000  Uiso   1.00
O585   O     0.73050   0.73936   0.20338   0.00000  Uiso   1.00
C586   C     0.16687   0.24593   0.74984   0.00000  Uiso   1.00
C587   C     0.12453   0.16785   0.90758   0.00000  Uiso   1.00
C588   C     0.21163   0.31208   0.73034   0.00000  Uiso   1.00
C589   C     0.14035   0.16572   0.85012   0.00000  Uiso   1.00
C590   C     0.21152   0.02138   0.73006   0.00000  Uiso   1.00
C591   C     0.16707   0.04278   0.74911   0.00000  Uiso   1.00
C592   C     0.12289   0.02124   0.76822   0.00000  Uiso   1.00
C593   C     0.12296   0.31193   0.76820   0.00000  Uiso   1.00
C594   C     0.16728   0.29054   0.74947   0.00000  Uiso   1.00
C595   C     0.30017   0.19369   0.78091   0.00000  Uiso   1.00
C596   C     0.01642   0.19373   0.78075   0.00000  Uiso   1.00
C597   C     0.14966   0.17336   0.98675   0.00000  Uiso   1.00
C598   C     0.03248   0.13920   0.71941   0.00000  Uiso   1.00
C599   C     0.31644   0.13966   0.71941   0.00000  Uiso   1.00
C600   C     0.16673   0.08740   0.74956   0.00000  Uiso   1.00
C601   C     0.19298   0.16681   0.64992   0.00000  Uiso   1.00
C602   C     0.26708   0.14419   0.51120   0.00000  Uiso   1.00
C603   C     0.20856   0.16491   0.59278   0.00000  Uiso   1.00
C604   C     0.08131   0.18953   0.93266   0.00000  Uiso   1.00
C605   C     0.07377   0.20517   0.98254   0.00000  Uiso   1.00
C606   C     0.10879   0.19985   0.50805   0.00000  Uiso   1.00
C607   C     0.06388   0.10750   0.68658   0.00000  Uiso   1.00
C608   C     0.15653   0.15580   0.93643   0.00000  Uiso   1.00
C609   C     0.27943   0.10213   0.91090   0.00000  Uiso   1.00
C610   C     0.19140   0.09425   0.87806   0.00000  Uiso   1.00
C611   C     0.18450   0.16470   0.51318   0.00000  Uiso   1.00
C612   C     0.22996   0.14595   0.98613   0.00000  Uiso   1.00
C613   C     0.23531   0.12684   0.93711   0.00000  Uiso   1.00
C614   C     0.19563   0.12741   0.91594   0.00000  Uiso   1.00
C615   C     0.17393   0.17178   0.56693   0.00000  Uiso   1.00
C616   C     0.25615   0.15370   0.56416   0.00000  Uiso   1.00
Cu617  Cu    0.11978   0.16666   0.75000   0.00000  Uiso   1.00
Cu618  Cu    0.21355   0.16667   0.75000   0.00000  Uiso   1.00
F619   F     0.25476   0.04152   0.71008   0.00000  Uiso   1.00
F620   F     0.26848   0.22075   0.81230   0.00000  Uiso   1.00
F621   F     0.31357   0.13224   0.98565   0.00000  Uiso   1.00
F622   F     0.04865   0.19959   0.90718   0.00000  Uiso   1.00
F623   F     0.10398   0.22403   0.55083   0.00000  Uiso   1.00
F624   F     0.25492   0.29201   0.71069   0.00000  Uiso   1.00
H625   H     0.28416   0.14982   0.58327   0.00000  Uiso   1.00
H626   H     0.12003   0.08226   0.91596   0.00000  Uiso   1.00
H627   H     0.08843   0.03733   0.78382   0.00000  Uiso   1.00
H628   H     0.08848   0.29571   0.78345   0.00000  Uiso   1.00
H629   H     0.02833   0.21534   0.80546   0.00000  Uiso   1.00
H630   H     0.30388   0.11812   0.69505   0.00000  Uiso   1.00
H631   H     0.13738   0.17944   0.59033   0.00000  Uiso   1.00
H632   H     0.04225   0.22453   0.99996   0.00000  Uiso   1.00
H633   H     0.10827   0.09126   0.61553   0.00000  Uiso   1.00
H634   H     0.00757   0.09665   0.85002   0.00000  Uiso   1.00
N635   N     0.04931   0.16666   0.74998   0.00000  Uiso   1.00
N636   N     0.28402   0.16669   0.74999   0.00000  Uiso   1.00
O637   O     0.12708   0.22678   0.75000   0.00000  Uiso   1.00
O638   O     0.08905   0.11586   0.63459   0.00000  Uiso   1.00
O639   O     0.28676   0.06966   0.92986   0.00000  Uiso   1.00
O640   O     0.31222   0.11603   0.86434   0.00000  Uiso   1.00
O641   O     0.22711   0.08402   0.84213   0.00000  Uiso   1.00
O642   O     0.14681   0.07419   0.88309   0.00000  Uiso   1.00
O643   O     0.20627   0.22679   0.75000   0.00000  Uiso   1.00
O644   O     0.10775   0.16665   0.82549   0.00000  Uiso   1.00
O645   O     0.18694   0.16666   0.82549   0.00000  Uiso   1.00
O646   O     0.12706   0.10654   0.74999   0.00000  Uiso   1.00
O647   O     0.20625   0.10655   0.74999   0.00000  Uiso   1.00
O648   O     0.14640   0.16667   0.67451   0.00000  Uiso   1.00
O649   O     0.22559   0.16668   0.67451   0.00000  Uiso   1.00
O650   O     0.06383   0.07269   0.70338   0.00000  Uiso   1.00
C651   C     0.50021   0.24593   0.74984   0.00000  Uiso   1.00
C652   C     0.45786   0.16785   0.90758   0.00000  Uiso   1.00
C653   C     0.54496   0.31208   0.73034   0.00000  Uiso   1.00
C654   C     0.47369   0.16572   0.85012   0.00000  Uiso   1.00
C655   C     0.54486   0.02138   0.73006   0.00000  Uiso   1.00
C656   C     0.50040   0.04278   0.74911   0.00000  Uiso   1.00
C657   C     0.45623   0.02124   0.76822   0.00000  Uiso   1.00
C658   C     0.45629   0.31193   0.76820   0.00000  Uiso   1.00
C659   C     0.50061   0.29054   0.74947   0.00000  Uiso   1.00
C660   C     0.63350   0.19369   0.78091   0.00000  Uiso   1.00
C661   C     0.34976   0.19373   0.78075   0.00000  Uiso   1.00
C662   C     0.48299   0.17336   0.98675   0.00000  Uiso   1.00
C663   C     0.36581   0.13920   0.71941   0.00000  Uiso   1.00
C664   C     0.64977   0.13966   0.71941   0.00000  Uiso   1.00
C665   C     0.50007   0.08740   0.74956   0.00000  Uiso   1.00
C666   C     0.52631   0.16681   0.64992   0.00000  Uiso   1.00
C667   C     0.60041   0.14419   0.51120   0.00000  Uiso   1.00
C668   C     0.54189   0.16491   0.59278   0.00000  Uiso   1.00
C669   C     0.41465   0.18953   0.93266   0.00000  Uiso   1.00
C670   C     0.40710   0.20517   0.98254   0.00000  Uiso   1.00
C671   C     0.44212   0.19985   0.50805   0.00000  Uiso   1.00
C672   C     0.39721   0.10750   0.68658   0.00000  Uiso   1.00
C673   C     0.48987   0.15580   0.93643   0.00000  Uiso   1.00
C674   C     0.61276   0.10213   0.91090   0.00000  Uiso   1.00
C675   C     0.52473   0.09425   0.87806   0.00000  Uiso   1.00
C676   C     0.51783   0.16470   0.51318   0.00000  Uiso   1.00
C677   C     0.56330   0.14595   0.98613   0.00000  Uiso   1.00
C678   C     0.56864   0.12684   0.93711   0.00000  Uiso   1.00
C679   C     0.52896   0.12741   0.91594   0.00000  Uiso   1.00
C680   C     0.50726   0.17178   0.56693   0.00000  Uiso   1.00
C681   C     0.58948   0.15370   0.56416   0.00000  Uiso   1.00
Cu682  Cu    0.45311   0.16666   0.75000   0.00000  Uiso   1.00
Cu683  Cu    0.54689   0.16667   0.75000   0.00000  Uiso   1.00
F684   F     0.58809   0.04152   0.71008   0.00000  Uiso   1.00
F685   F     0.60182   0.22075   0.81230   0.00000  Uiso   1.00
F686   F     0.64691   0.13224   0.98565   0.00000  Uiso   1.00
F687   F     0.38198   0.19959   0.90718   0.00000  Uiso   1.00
F688   F     0.43731   0.22403   0.55083   0.00000  Uiso   1.00
F689   F     0.58826   0.29201   0.71069   0.00000  Uiso   1.00
H690   H     0.61749   0.14982   0.58327   0.00000  Uiso   1.00
H691   H     0.45337   0.08226   0.91596   0.00000  Uiso   1.00
H692   H     0.42176   0.03733   0.78382   0.00000  Uiso   1.00
H693   H     0.42181   0.29571   0.78345   0.00000  Uiso   1.00
H694   H     0.36166   0.21534   0.80546   0.00000  Uiso   1.00
H695   H     0.63722   0.11812   0.69505   0.00000  Uiso   1.00
H696   H     0.47071   0.17944   0.59033   0.00000  Uiso   1.00
H697   H     0.37559   0.22453   0.99996   0.00000  Uiso   1.00
H698   H     0.44160   0.09126   0.61553   0.00000  Uiso   1.00
H699   H     0.34091   0.09665   0.85002   0.00000  Uiso   1.00
N700   N     0.38265   0.16666   0.74998   0.00000  Uiso   1.00
N701   N     0.61735   0.16669   0.74999   0.00000  Uiso   1.00
O702   O     0.46042   0.22678   0.75000   0.00000  Uiso   1.00
O703   O     0.42238   0.11586   0.63459   0.00000  Uiso   1.00
O704   O     0.62009   0.06966   0.92986   0.00000  Uiso   1.00
O705   O     0.64556   0.11603   0.86434   0.00000  Uiso   1.00
O706   O     0.56045   0.08402   0.84213   0.00000  Uiso   1.00
O707   O     0.48014   0.07419   0.88309   0.00000  Uiso   1.00
O708   O     0.53961   0.22679   0.75000   0.00000  Uiso   1.00
O709   O     0.44108   0.16665   0.82549   0.00000  Uiso   1.00
O710   O     0.52027   0.16666   0.82549   0.00000  Uiso   1.00
O711   O     0.46039   0.10654   0.74999   0.00000  Uiso   1.00
O712   O     0.53958   0.10655   0.74999   0.00000  Uiso   1.00
O713   O     0.47973   0.16667   0.67451   0.00000  Uiso   1.00
O714   O     0.55892   0.16668   0.67451   0.00000  Uiso   1.00
O715   O     0.39716   0.07269   0.70338   0.00000  Uiso   1.00
C716   C     0.83354   0.24593   0.74984   0.00000  Uiso   1.00
C717   C     0.79120   0.16785   0.90758   0.00000  Uiso   1.00
C718   C     0.87830   0.31208   0.73034   0.00000  Uiso   1.00
C719   C     0.80702   0.16572   0.85012   0.00000  Uiso   1.00
C720   C     0.87819   0.02138   0.73006   0.00000  Uiso   1.00
C721   C     0.83374   0.04278   0.74911   0.00000  Uiso   1.00
C722   C     0.78956   0.02124   0.76822   0.00000  Uiso   1.00
C723   C     0.78963   0.31193   0.76820   0.00000  Uiso   1.00
C724   C     0.83394   0.29054   0.74947   0.00000  Uiso   1.00
C725   C     0.96683   0.19369   0.78091   0.00000  Uiso   1.00
C726   C     0.68309   0.19373   0.78075   0.00000  Uiso   1.00
C727   C     0.81632   0.17336   0.98675   0.00000  Uiso   1.00
C728   C     0.69915   0.13920   0.71941   0.00000  Uiso   1.00
C729   C     0.98310   0.13966   0.71941   0.00000  Uiso   1.00
C730   C     0.83340   0.08740   0.74956   0.00000  Uiso   1.00
C731   C     0.85965   0.16681   0.64992   0.00000  Uiso   1.00
C732   C     0.93375   0.14419   0.51120   0.00000  Uiso   1.00
C733   C     0.87522   0.16491   0.59278   0.00000  Uiso   1.00
C734   C     0.74798   0.18953   0.93266   0.00000  Uiso   1.00
C735   C     0.74043   0.20517   0.98254   0.00000  Uiso   1.00
C736   C     0.77546   0.19985   0.50805   0.00000  Uiso   1.00
C737   C     0.73055   0.10750   0.68658   0.00000  Uiso   1.00
C738   C     0.82320   0.15580   0.93643   0.00000  Uiso   1.00
C739   C     0.94610   0.10213   0.91090   0.00000  Uiso   1.00
C740   C     0.85807   0.09425   0.87806   0.00000  Uiso   1.00
C741   C     0.85116   0.16470   0.51318   0.00000  Uiso   1.00
C742   C     0.89663   0.14595   0.98613   0.00000  Uiso   1.00
C743   C     0.90197   0.12684   0.93711   0.00000  Uiso   1.00
C744   C     0.86229   0.12741   0.91594   0.00000  Uiso   1.00
C745   C     0.84060   0.17178   0.56693   0.00000  Uiso   1.00
C746   C     0.92281   0.15370   0.56416   0.00000  Uiso   1.00
Cu747  Cu    0.78645   0.16666   0.75000   0.00000  Uiso   1.00
Cu748  Cu    0.88022   0.16667   0.75000   0.00000  Uiso   1.00
F749   F     0.92143   0.04152   0.71008   0.00000  Uiso   1.00
F750   F     0.93515   0.22075   0.81230   0.00000  Uiso   1.00
F751   F     0.98024   0.13224   0.98565   0.00000  Uiso   1.00
F752   F     0.71532   0.19959   0.90718   0.00000  Uiso   1.00
F753   F     0.77064   0.22403   0.55083   0.00000  Uiso   1.00
F754   F     0.92159   0.29201   0.71069   0.00000  Uiso   1.00
H755   H     0.95082   0.14982   0.58327   0.00000  Uiso   1.00
H756   H     0.78670   0.08226   0.91596   0.00000  Uiso   1.00
H757   H     0.75510   0.03733   0.78382   0.00000  Uiso   1.00
H758   H     0.75515   0.29571   0.78345   0.00000  Uiso   1.00
H759   H     0.69500   0.21534   0.80546   0.00000  Uiso   1.00
H760   H     0.97055   0.11812   0.69505   0.00000  Uiso   1.00
H761   H     0.80404   0.17944   0.59033   0.00000  Uiso   1.00
H762   H     0.70892   0.22453   0.99996   0.00000  Uiso   1.00
H763   H     0.77493   0.09126   0.61553   0.00000  Uiso   1.00
H764   H     0.67424   0.09665   0.85002   0.00000  Uiso   1.00
N765   N     0.71598   0.16666   0.74998   0.00000  Uiso   1.00
N766   N     0.95069   0.16669   0.74999   0.00000  Uiso   1.00
O767   O     0.79375   0.22678   0.75000   0.00000  Uiso   1.00
O768   O     0.75571   0.11586   0.63459   0.00000  Uiso   1.00
O769   O     0.95343   0.06966   0.92986   0.00000  Uiso   1.00
O770   O     0.97889   0.11603   0.86434   0.00000  Uiso   1.00
O771   O     0.89378   0.08402   0.84213   0.00000  Uiso   1.00
O772   O     0.81348   0.07419   0.88309   0.00000  Uiso   1.00
O773   O     0.87294   0.22679   0.75000   0.00000  Uiso   1.00
O774   O     0.77441   0.16665   0.82549   0.00000  Uiso   1.00
O775   O     0.85360   0.16666   0.82549   0.00000  Uiso   1.00
O776   O     0.79373   0.10654   0.74999   0.00000  Uiso   1.00
O777   O     0.87292   0.10655   0.74999   0.00000  Uiso   1.00
O778   O     0.81306   0.16667   0.67451   0.00000  Uiso   1.00
O779   O     0.89225   0.16668   0.67451   0.00000  Uiso   1.00
O780   O     0.73050   0.07269   0.70338   0.00000  Uiso   1.00
C781   C     0.16687   0.57926   0.74984   0.00000  Uiso   1.00
C782   C     0.12453   0.50118   0.90758   0.00000  Uiso   1.00
C783   C     0.21163   0.64541   0.73034   0.00000  Uiso   1.00
C784   C     0.14035   0.49905   0.85012   0.00000  Uiso   1.00
C785   C     0.21152   0.35471   0.73006   0.00000  Uiso   1.00
C786   C     0.16707   0.37611   0.74911   0.00000  Uiso   1.00
C787   C     0.12289   0.35457   0.76822   0.00000  Uiso   1.00
C788   C     0.12296   0.64526   0.76820   0.00000  Uiso   1.00
C789   C     0.16728   0.62388   0.74947   0.00000  Uiso   1.00
C790   C     0.30017   0.52702   0.78091   0.00000  Uiso   1.00
C791   C     0.01642   0.52706   0.78075   0.00000  Uiso   1.00
C792   C     0.14966   0.50669   0.98675   0.00000  Uiso   1.00
C793   C     0.03248   0.47254   0.71941   0.00000  Uiso   1.00
C794   C     0.31644   0.47299   0.71941   0.00000  Uiso   1.00
C795   C     0.16673   0.42073   0.74956   0.00000  Uiso   1.00
C796   C     0.19298   0.50014   0.64992   0.00000  Uiso   1.00
C797   C     0.26708   0.47752   0.51120   0.00000  Uiso   1.00
C798   C     0.20856   0.49824   0.59278   0.00000  Uiso   1.00
C799   C     0.08131   0.52287   0.93266   0.00000  Uiso   1.00
C800   C     0.07377   0.53850   0.98254   0.00000  Uiso   1.00
C801   C     0.10879   0.53318   0.50805   0.00000  Uiso   1.00
C802   C     0.06388   0.44083   0.68658   0.00000  Uiso   1.00
C803   C     0.15653   0.48914   0.93643   0.00000  Uiso   1.00
C804   C     0.27943   0.43546   0.91090   0.00000  Uiso   1.00
C805   C     0.19140   0.42758   0.87806   0.00000  Uiso   1.00
C806   C     0.18450   0.49804   0.51318   0.00000  Uiso   1.00
C807   C     0.22996   0.47928   0.98613   0.00000  Uiso   1.00
C808   C     0.23531   0.46017   0.93711   0.00000  Uiso   1.00
C809   C     0.19563   0.46074   0.91594   0.00000  Uiso   1.00
C810   C     0.17393   0.50511   0.56693   0.00000  Uiso   1.00
C811   C     0.25615   0.48703   0.56416   0.00000  Uiso   1.00
Cu812  Cu    0.11978   0.49999   0.75000   0.00000  Uiso   1.00
Cu813  Cu    0.21355   0.50001   0.75000   0.00000  Uiso   1.00
F814   F     0.25476   0.37486   0.71008   0.00000  Uiso   1.00
F815   F     0.26848   0.55408   0.81230   0.00000  Uiso   1.00
F816   F     0.31357   0.46557   0.98565   0.00000  Uiso   1.00
F817   F     0.04865   0.53292   0.90718   0.00000  Uiso   1.00
F818   F     0.10398   0.55737   0.55083   0.00000  Uiso   1.00
F819   F     0.25492   0.62535   0.71069   0.00000  Uiso   1.00
H820   H     0.28416   0.48315   0.58327   0.00000  Uiso   1.00
H821   H     0.12003   0.41559   0.91596   0.00000  Uiso   1.00
H822   H     0.08843   0.37067   0.78382   0.00000  Uiso   1.00
H823   H     0.08848   0.62905   0.78345   0.00000  Uiso   1.00
H824   H     0.02833   0.54867   0.80546   0.00000  Uiso   1.00
H825   H     0.30388   0.45145   0.69505   0.00000  Uiso   1.00
H826   H     0.13738   0.51278   0.59033   0.00000  Uiso   1.00
H827   H     0.04225   0.55786   0.99996   0.00000  Uiso   1.00
H828   H     0.10827   0.42459   0.61553   0.00000  Uiso   1.00
H829   H     0.00757   0.42998   0.85002   0.00000  Uiso   1.00
N830   N     0.04931   0.49999   0.74998   0.00000  Uiso   1.00
N831   N     0.28402   0.50002   0.74999   0.00000  Uiso   1.00
O832   O     0.12708   0.56011   0.75000   0.00000  Uiso   1.00
O833   O     0.08905   0.44920   0.63459   0.00000  Uiso   1.00
O834   O     0.28676   0.40299   0.92986   0.00000  Uiso   1.00
O835   O     0.31222   0.44937   0.86434   0.00000  Uiso   1.00
O836   O     0.22711   0.41735   0.84213   0.00000  Uiso   1.00
O837   O     0.14681   0.40752   0.88309   0.00000  Uiso   1.00
O838   O     0.20627   0.56012   0.75000   0.00000  Uiso   1.00
O839   O     0.10775   0.49998   0.82549   0.00000  Uiso   1.00
O840   O     0.18694   0.49999   0.82549   0.00000  Uiso   1.00
O841   O     0.12706   0.43988   0.74999   0.00000  Uiso   1.00
O842   O     0.20625   0.43989   0.74999   0.00000  Uiso   1.00
O843   O     0.14640   0.50001   0.67451   0.00000  Uiso   1.00
O844   O     0.22559   0.50002   0.67451   0.00000  Uiso   1.00
O845   O     0.06383   0.40603   0.70338   0.00000  Uiso   1.00
C846   C     0.50021   0.57926   0.74984   0.00000  Uiso   1.00
C847   C     0.45786   0.50118   0.90758   0.00000  Uiso   1.00
C848   C     0.54496   0.64541   0.73034   0.00000  Uiso   1.00
C849   C     0.47369   0.49905   0.85012   0.00000  Uiso   1.00
C850   C     0.54486   0.35471   0.73006   0.00000  Uiso   1.00
C851   C     0.50040   0.37611   0.74911   0.00000  Uiso   1.00
C852   C     0.45623   0.35457   0.76822   0.00000  Uiso   1.00
C853   C     0.45629   0.64526   0.76820   0.00000  Uiso   1.00
C854   C     0.50061   0.62388   0.74947   0.00000  Uiso   1.00
C855   C     0.63350   0.52702   0.78091   0.00000  Uiso   1.00
C856   C     0.34976   0.52706   0.78075   0.00000  Uiso   1.00
C857   C     0.48299   0.50669   0.98675   0.00000  Uiso   1.00
C858   C     0.36581   0.47254   0.71941   0.00000  Uiso   1.00
C859   C     0.64977   0.47299   0.71941   0.00000  Uiso   1.00
C860   C     0.50007   0.42073   0.74956   0.00000  Uiso   1.00
C861   C     0.52631   0.50014   0.64992   0.00000  Uiso   1.00
C862   C     0.60041   0.47752   0.51120   0.00000  Uiso   1.00
C863   C     0.54189   0.49824   0.59278   0.00000  Uiso   1.00
C864   C     0.41465   0.52287   0.93266   0.00000  Uiso   1.00
C865   C     0.40710   0.53850   0.98254   0.00000  Uiso   1.00
C866   C     0.44212   0.53318   0.50805   0.00000  Uiso   1.00
C867   C     0.39721   0.44083   0.68658   0.00000  Uiso   1.00
C868   C     0.48987   0.48914   0.93643   0.00000  Uiso   1.00
C869   C     0.61276   0.43546   0.91090   0.00000  Uiso   1.00
C870   C     0.52473   0.42758   0.87806   0.00000  Uiso   1.00
C871   C     0.51783   0.49804   0.51318   0.00000  Uiso   1.00
C872   C     0.56330   0.47928   0.98613   0.00000  Uiso   1.00
C873   C     0.56864   0.46017   0.93711   0.00000  Uiso   1.00
C874   C     0.52896   0.46074   0.91594   0.00000  Uiso   1.00
C875   C     0.50726   0.50511   0.56693   0.00000  Uiso   1.00
C876   C     0.58948   0.48703   0.56416   0.00000  Uiso   1.00
Cu877  Cu    0.45311   0.49999   0.75000   0.00000  Uiso   1.00
Cu878  Cu    0.54689   0.50001   0.75000   0.00000  Uiso   1.00
F879   F     0.58809   0.37486   0.71008   0.00000  Uiso   1.00
F880   F     0.60182   0.55408   0.81230   0.00000  Uiso   1.00
F881   F     0.64691   0.46557   0.98565   0.00000  Uiso   1.00
F882   F     0.38198   0.53292   0.90718   0.00000  Uiso   1.00
F883   F     0.43731   0.55737   0.55083   0.00000  Uiso   1.00
F884   F     0.58826   0.62535   0.71069   0.00000  Uiso   1.00
H885   H     0.61749   0.48315   0.58327   0.00000  Uiso   1.00
H886   H     0.45337   0.41559   0.91596   0.00000  Uiso   1.00
H887   H     0.42176   0.37067   0.78382   0.00000  Uiso   1.00
H888   H     0.42181   0.62905   0.78345   0.00000  Uiso   1.00
H889   H     0.36166   0.54867   0.80546   0.00000  Uiso   1.00
H890   H     0.63722   0.45145   0.69505   0.00000  Uiso   1.00
H891   H     0.47071   0.51278   0.59033   0.00000  Uiso   1.00
H892   H     0.37559   0.55786   0.99996   0.00000  Uiso   1.00
H893   H     0.44160   0.42459   0.61553   0.00000  Uiso   1.00
H894   H     0.34091   0.42998   0.85002   0.00000  Uiso   1.00
N895   N     0.38265   0.49999   0.74998   0.00000  Uiso   1.00
N896   N     0.61735   0.50002   0.74999   0.00000  Uiso   1.00
O897   O     0.46042   0.56011   0.75000   0.00000  Uiso   1.00
O898   O     0.42238   0.44920   0.63459   0.00000  Uiso   1.00
O899   O     0.62009   0.40299   0.92986   0.00000  Uiso   1.00
O900   O     0.64556   0.44937   0.86434   0.00000  Uiso   1.00
O901   O     0.56045   0.41735   0.84213   0.00000  Uiso   1.00
O902   O     0.48014   0.40752   0.88309   0.00000  Uiso   1.00
O903   O     0.53961   0.56012   0.75000   0.00000  Uiso   1.00
O904   O     0.44108   0.49998   0.82549   0.00000  Uiso   1.00
O905   O     0.52027   0.49999   0.82549   0.00000  Uiso   1.00
O906   O     0.46039   0.43988   0.74999   0.00000  Uiso   1.00
O907   O     0.53958   0.43989   0.74999   0.00000  Uiso   1.00
O908   O     0.47973   0.50001   0.67451   0.00000  Uiso   1.00
O909   O     0.55892   0.50002   0.67451   0.00000  Uiso   1.00
O910   O     0.39716   0.40603   0.70338   0.00000  Uiso   1.00
C911   C     0.83354   0.57926   0.74984   0.00000  Uiso   1.00
C912   C     0.79120   0.50118   0.90758   0.00000  Uiso   1.00
C913   C     0.87830   0.64541   0.73034   0.00000  Uiso   1.00
C914   C     0.80702   0.49905   0.85012   0.00000  Uiso   1.00
C915   C     0.87819   0.35471   0.73006   0.00000  Uiso   1.00
C916   C     0.83374   0.37611   0.74911   0.00000  Uiso   1.00
C917   C     0.78956   0.35457   0.76822   0.00000  Uiso   1.00
C918   C     0.78963   0.64526   0.76820   0.00000  Uiso   1.00
C919   C     0.83394   0.62388   0.74947   0.00000  Uiso   1.00
C920   C     0.96683   0.52702   0.78091   0.00000  Uiso   1.00
C921   C     0.68309   0.52706   0.78075   0.00000  Uiso   1.00
C922   C     0.81632   0.50669   0.98675   0.00000  Uiso   1.00
C923   C     0.69915   0.47254   0.71941   0.00000  Uiso   1.00
C924   C     0.98310   0.47299   0.71941   0.00000  Uiso   1.00
C925   C     0.83340   0.42073   0.74956   0.00000  Uiso   1.00
C926   C     0.85965   0.50014   0.64992   0.00000  Uiso   1.00
C927   C     0.93375   0.47752   0.51120   0.00000  Uiso   1.00
C928   C     0.87522   0.49824   0.59278   0.00000  Uiso   1.00
C929   C     0.74798   0.52287   0.93266   0.00000  Uiso   1.00
C930   C     0.74043   0.53850   0.98254   0.00000  Uiso   1.00
C931   C     0.77546   0.53318   0.50805   0.00000  Uiso   1.00
C932   C     0.73055   0.44083   0.68658   0.00000  Uiso   1.00
C933   C     0.82320   0.48914   0.93643   0.00000  Uiso   1.00
C934   C     0.94610   0.43546   0.91090   0.00000  Uiso   1.00
C935   C     0.85807   0.42758   0.87806   0.00000  Uiso   1.00
C936   C     0.85116   0.49804   0.51318   0.00000  Uiso   1.00
C937   C     0.89663   0.47928   0.98613   0.00000  Uiso   1.00
C938   C     0.90197   0.46017   0.93711   0.00000  Uiso   1.00
C939   C     0.86229   0.46074   0.91594   0.00000  Uiso   1.00
C940   C     0.84060   0.50511   0.56693   0.00000  Uiso   1.00
C941   C     0.92281   0.48703   0.56416   0.00000  Uiso   1.00
Cu942  Cu    0.78645   0.49999   0.75000   0.00000  Uiso   1.00
Cu943  Cu    0.88022   0.50001   0.75000   0.00000  Uiso   1.00
F944   F     0.92143   0.37486   0.71008   0.00000  Uiso   1.00
F945   F     0.93515   0.55408   0.81230   0.00000  Uiso   1.00
F946   F     0.98024   0.46557   0.98565   0.00000  Uiso   1.00
F947   F     0.71532   0.53292   0.90718   0.00000  Uiso   1.00
F948   F     0.77064   0.55737   0.55083   0.00000  Uiso   1.00
F949   F     0.92159   0.62535   0.71069   0.00000  Uiso   1.00
H950   H     0.95082   0.48315   0.58327   0.00000  Uiso   1.00
H951   H     0.78670   0.41559   0.91596   0.00000  Uiso   1.00
H952   H     0.75510   0.37067   0.78382   0.00000  Uiso   1.00
H953   H     0.75515   0.62905   0.78345   0.00000  Uiso   1.00
H954   H     0.69500   0.54867   0.80546   0.00000  Uiso   1.00
H955   H     0.97055   0.45145   0.69505   0.00000  Uiso   1.00
H956   H     0.80404   0.51278   0.59033   0.00000  Uiso   1.00
H957   H     0.70892   0.55786   0.99996   0.00000  Uiso   1.00
H958   H     0.77493   0.42459   0.61553   0.00000  Uiso   1.00
H959   H     0.67424   0.42998   0.85002   0.00000  Uiso   1.00
N960   N     0.71598   0.49999   0.74998   0.00000  Uiso   1.00
N961   N     0.95069   0.50002   0.74999   0.00000  Uiso   1.00
O962   O     0.79375   0.56011   0.75000   0.00000  Uiso   1.00
O963   O     0.75571   0.44920   0.63459   0.00000  Uiso   1.00
O964   O     0.95343   0.40299   0.92986   0.00000  Uiso   1.00
O965   O     0.97889   0.44937   0.86434   0.00000  Uiso   1.00
O966   O     0.89378   0.41735   0.84213   0.00000  Uiso   1.00
O967   O     0.81348   0.40752   0.88309   0.00000  Uiso   1.00
O968   O     0.87294   0.56012   0.75000   0.00000  Uiso   1.00
O969   O     0.77441   0.49998   0.82549   0.00000  Uiso   1.00
O970   O     0.85360   0.49999   0.82549   0.00000  Uiso   1.00
O971   O     0.79373   0.43988   0.74999   0.00000  Uiso   1.00
O972   O     0.87292   0.43989   0.74999   0.00000  Uiso   1.00
O973   O     0.81306   0.50001   0.67451   0.00000  Uiso   1.00
O974   O     0.89225   0.50002   0.67451   0.00000  Uiso   1.00
O975   O     0.73050   0.40603   0.70338   0.00000  Uiso   1.00
C976   C     0.16687   0.91260   0.74984   0.00000  Uiso   1.00
C977   C     0.12453   0.83452   0.90758   0.00000  Uiso   1.00
C978   C     0.21163   0.97874   0.73034   0.00000  Uiso   1.00
C979   C     0.14035   0.83238   0.85012   0.00000  Uiso   1.00
C980   C     0.21152   0.68804   0.73006   0.00000  Uiso   1.00
C981   C     0.16707   0.70945   0.74911   0.00000  Uiso   1.00
C982   C     0.12289   0.68791   0.76822   0.00000  Uiso   1.00
C983   C     0.12296   0.97860   0.76820   0.00000  Uiso   1.00
C984   C     0.16728   0.95721   0.74947   0.00000  Uiso   1.00
C985   C     0.30017   0.86035   0.78091   0.00000  Uiso   1.00
C986   C     0.01642   0.86039   0.78075   0.00000  Uiso   1.00
C987   C     0.14966   0.84002   0.98675   0.00000  Uiso   1.00
C988   C     0.03248   0.80587   0.71941   0.00000  Uiso   1.00
C989   C     0.31644   0.80633   0.71941   0.00000  Uiso   1.00
C990   C     0.16673   0.75407   0.74956   0.00000  Uiso   1.00
C991   C     0.19298   0.83347   0.64992   0.00000  Uiso   1.00
C992   C     0.26708   0.81085   0.51120   0.00000  Uiso   1.00
C993   C     0.20856   0.83157   0.59278   0.00000  Uiso   1.00
C994   C     0.08131   0.85620   0.93266   0.00000  Uiso   1.00
C995   C     0.07377   0.87183   0.98254   0.00000  Uiso   1.00
C996   C     0.10879   0.86652   0.50805   0.00000  Uiso   1.00
C997   C     0.06388   0.77417   0.68658   0.00000  Uiso   1.00
C998   C     0.15653   0.82247   0.93643   0.00000  Uiso   1.00
C999   C     0.27943   0.76879   0.91090   0.00000  Uiso   1.00
C1000  C     0.19140   0.76092   0.87806   0.00000  Uiso   1.00
C1001  C     0.18450   0.83137   0.51318   0.00000  Uiso   1.00
C1002  C     0.22996   0.81262   0.98613   0.00000  Uiso   1.00
C1003  C     0.23531   0.79351   0.93711   0.00000  Uiso   1.00
C1004  C     0.19563   0.79408   0.91594   0.00000  Uiso   1.00
C1005  C     0.17393   0.83844   0.56693   0.00000  Uiso   1.00
C1006  C     0.25615   0.82036   0.56416   0.00000  Uiso   1.00
Cu1007 Cu    0.11978   0.83333   0.75000   0.00000  Uiso   1.00
Cu1008 Cu    0.21355   0.83334   0.75000   0.00000  Uiso   1.00
F1009  F     0.25476   0.70819   0.71008   0.00000  Uiso   1.00
F1010  F     0.26848   0.88742   0.81230   0.00000  Uiso   1.00
F1011  F     0.31357   0.79890   0.98565   0.00000  Uiso   1.00
F1012  F     0.04865   0.86625   0.90718   0.00000  Uiso   1.00
F1013  F     0.10398   0.89070   0.55083   0.00000  Uiso   1.00
F1014  F     0.25492   0.95868   0.71069   0.00000  Uiso   1.00
H1015  H     0.28416   0.81648   0.58327   0.00000  Uiso   1.00
H1016  H     0.12003   0.74893   0.91596   0.00000  Uiso   1.00
H1017  H     0.08843   0.70400   0.78382   0.00000  Uiso   1.00
H1018  H     0.08848   0.96238   0.78345   0.00000  Uiso   1.00
H1019  H     0.02833   0.88201   0.80546   0.00000  Uiso   1.00
H1020  H     0.30388   0.78479   0.69505   0.00000  Uiso   1.00
H1021  H     0.13738   0.84611   0.59033   0.00000  Uiso   1.00
H1022  H     0.04225   0.89120   0.99996   0.00000  Uiso   1.00
H1023  H     0.10827   0.75793   0.61553   0.00000  Uiso   1.00
H1024  H     0.00757   0.76332   0.85002   0.00000  Uiso   1.00
N1025  N     0.04931   0.83332   0.74998   0.00000  Uiso   1.00
N1026  N     0.28402   0.83335   0.74999   0.00000  Uiso   1.00
O1027  O     0.12708   0.89345   0.75000   0.00000  Uiso   1.00
O1028  O     0.08905   0.78253   0.63459   0.00000  Uiso   1.00
O1029  O     0.28676   0.73633   0.92986   0.00000  Uiso   1.00
O1030  O     0.31222   0.78270   0.86434   0.00000  Uiso   1.00
O1031  O     0.22711   0.75068   0.84213   0.00000  Uiso   1.00
O1032  O     0.14681   0.74085   0.88309   0.00000  Uiso   1.00
O1033  O     0.20627   0.89346   0.75000   0.00000  Uiso   1.00
O1034  O     0.10775   0.83332   0.82549   0.00000  Uiso   1.00
O1035  O     0.18694   0.83333   0.82549   0.00000  Uiso   1.00
O1036  O     0.12706   0.77321   0.74999   0.00000  Uiso   1.00
O1037  O     0.20625   0.77322   0.74999   0.00000  Uiso   1.00
O1038  O     0.14640   0.83334   0.67451   0.00000  Uiso   1.00
O1039  O     0.22559   0.83335   0.67451   0.00000  Uiso   1.00
O1040  O     0.06383   0.73936   0.70338   0.00000  Uiso   1.00
C1041  C     0.50021   0.91260   0.74984   0.00000  Uiso   1.00
C1042  C     0.45786   0.83452   0.90758   0.00000  Uiso   1.00
C1043  C     0.54496   0.97874   0.73034   0.00000  Uiso   1.00
C1044  C     0.47369   0.83238   0.85012   0.00000  Uiso   1.00
C1045  C     0.54486   0.68804   0.73006   0.00000  Uiso   1.00
C1046  C     0.50040   0.70945   0.74911   0.00000  Uiso   1.00
C1047  C     0.45623   0.68791   0.76822   0.00000  Uiso   1.00
C1048  C     0.45629   0.97860   0.76820   0.00000  Uiso   1.00
C1049  C     0.50061   0.95721   0.74947   0.00000  Uiso   1.00
C1050  C     0.63350   0.86035   0.78091   0.00000  Uiso   1.00
C1051  C     0.34976   0.86039   0.78075   0.00000  Uiso   1.00
C1052  C     0.48299   0.84002   0.98675   0.00000  Uiso   1.00
C1053  C     0.36581   0.80587   0.71941   0.00000  Uiso   1.00
C1054  C     0.64977   0.80633   0.71941   0.00000  Uiso   1.00
C1055  C     0.50007   0.75407   0.74956   0.00000  Uiso   1.00
C1056  C     0.52631   0.83347   0.64992   0.00000  Uiso   1.00
C1057  C     0.60041   0.81085   0.51120   0.00000  Uiso   1.00
C1058  C     0.54189   0.83157   0.59278   0.00000  Uiso   1.00
C1059  C     0.41465   0.85620   0.93266   0.00000  Uiso   1.00
C1060  C     0.40710   0.87183   0.98254   0.00000  Uiso   1.00
C1061  C     0.44212   0.86652   0.50805   0.00000  Uiso   1.00
C1062  C     0.39721   0.77417   0.68658   0.00000  Uiso   1.00
C1063  C     0.48987   0.82247   0.93643   0.00000  Uiso   1.00
C1064  C     0.61276   0.76879   0.91090   0.00000  Uiso   1.00
C1065  C     0.52473   0.76092   0.87806   0.00000  Uiso   1.00
C1066  C     0.51783   0.83137   0.51318   0.00000  Uiso   1.00
C1067  C     0.56330   0.81262   0.98613   0.00000  Uiso   1.00
C1068  C     0.56864   0.79351   0.93711   0.00000  Uiso   1.00
C1069  C     0.52896   0.79408   0.91594   0.00000  Uiso   1.00
C1070  C     0.50726   0.83844   0.56693   0.00000  Uiso   1.00
C1071  C     0.58948   0.82036   0.56416   0.00000  Uiso   1.00
Cu1072 Cu    0.45311   0.83333   0.75000   0.00000  Uiso   1.00
Cu1073 Cu    0.54689   0.83334   0.75000   0.00000  Uiso   1.00
F1074  F     0.58809   0.70819   0.71008   0.00000  Uiso   1.00
F1075  F     0.60182   0.88742   0.81230   0.00000  Uiso   1.00
F1076  F     0.64691   0.79890   0.98565   0.00000  Uiso   1.00
F1077  F     0.38198   0.86625   0.90718   0.00000  Uiso   1.00
F1078  F     0.43731   0.89070   0.55083   0.00000  Uiso   1.00
F1079  F     0.58826   0.95868   0.71069   0.00000  Uiso   1.00
H1080  H     0.61749   0.81648   0.58327   0.00000  Uiso   1.00
H1081  H     0.45337   0.74893   0.91596   0.00000  Uiso   1.00
H1082  H     0.42176   0.70400   0.78382   0.00000  Uiso   1.00
H1083  H     0.42181   0.96238   0.78345   0.00000  Uiso   1.00
H1084  H     0.36166   0.88201   0.80546   0.00000  Uiso   1.00
H1085  H     0.63722   0.78479   0.69505   0.00000  Uiso   1.00
H1086  H     0.47071   0.84611   0.59033   0.00000  Uiso   1.00
H1087  H     0.37559   0.89120   0.99996   0.00000  Uiso   1.00
H1088  H     0.44160   0.75793   0.61553   0.00000  Uiso   1.00
H1089  H     0.34091   0.76332   0.85002   0.00000  Uiso   1.00
N1090  N     0.38265   0.83332   0.74998   0.00000  Uiso   1.00
N1091  N     0.61735   0.83335   0.74999   0.00000  Uiso   1.00
O1092  O     0.46042   0.89345   0.75000   0.00000  Uiso   1.00
O1093  O     0.42238   0.78253   0.63459   0.00000  Uiso   1.00
O1094  O     0.62009   0.73633   0.92986   0.00000  Uiso   1.00
O1095  O     0.64556   0.78270   0.86434   0.00000  Uiso   1.00
O1096  O     0.56045   0.75068   0.84213   0.00000  Uiso   1.00
O1097  O     0.48014   0.74085   0.88309   0.00000  Uiso   1.00
O1098  O     0.53961   0.89346   0.75000   0.00000  Uiso   1.00
O1099  O     0.44108   0.83332   0.82549   0.00000  Uiso   1.00
O1100  O     0.52027   0.83333   0.82549   0.00000  Uiso   1.00
O1101  O     0.46039   0.77321   0.74999   0.00000  Uiso   1.00
O1102  O     0.53958   0.77322   0.74999   0.00000  Uiso   1.00
O1103  O     0.47973   0.83334   0.67451   0.00000  Uiso   1.00
O1104  O     0.55892   0.83335   0.67451   0.00000  Uiso   1.00
O1105  O     0.39716   0.73936   0.70338   0.00000  Uiso   1.00
C1106  C     0.83354   0.91260   0.74984   0.00000  Uiso   1.00
C1107  C     0.79120   0.83452   0.90758   0.00000  Uiso   1.00
C1108  C     0.87830   0.97874   0.73034   0.00000  Uiso   1.00
C1109  C     0.80702   0.83238   0.85012   0.00000  Uiso   1.00
C1110  C     0.87819   0.68804   0.73006   0.00000  Uiso   1.00
C1111  C     0.83374   0.70945   0.74911   0.00000  Uiso   1.00
C1112  C     0.78956   0.68791   0.76822   0.00000  Uiso   1.00
C1113  C     0.78963   0.97860   0.76820   0.00000  Uiso   1.00
C1114  C     0.83394   0.95721   0.74947   0.00000  Uiso   1.00
C1115  C     0.96683   0.86035   0.78091   0.00000  Uiso   1.00
C1116  C     0.68309   0.86039   0.78075   0.00000  Uiso   1.00
C1117  C     0.81632   0.84002   0.98675   0.00000  Uiso   1.00
C1118  C     0.69915   0.80587   0.71941   0.00000  Uiso   1.00
C1119  C     0.98310   0.80633   0.71941   0.00000  Uiso   1.00
C1120  C     0.83340   0.75407   0.74956   0.00000  Uiso   1.00
C1121  C     0.85965   0.83347   0.64992   0.00000  Uiso   1.00
C1122  C     0.93375   0.81085   0.51120   0.00000  Uiso   1.00
C1123  C     0.87522   0.83157   0.59278   0.00000  Uiso   1.00
C1124  C     0.74798   0.85620   0.93266   0.00000  Uiso   1.00
C1125  C     0.74043   0.87183   0.98254   0.00000  Uiso   1.00
C1126  C     0.77546   0.86652   0.50805   0.00000  Uiso   1.00
C1127  C     0.73055   0.77417   0.68658   0.00000  Uiso   1.00
C1128  C     0.82320   0.82247   0.93643   0.00000  Uiso   1.00
C1129  C     0.94610   0.76879   0.91090   0.00000  Uiso   1.00
C1130  C     0.85807   0.76092   0.87806   0.00000  Uiso   1.00
C1131  C     0.85116   0.83137   0.51318   0.00000  Uiso   1.00
C1132  C     0.89663   0.81262   0.98613   0.00000  Uiso   1.00
C1133  C     0.90197   0.79351   0.93711   0.00000  Uiso   1.00
C1134  C     0.86229   0.79408   0.91594   0.00000  Uiso   1.00
C1135  C     0.84060   0.83844   0.56693   0.00000  Uiso   1.00
C1136  C     0.92281   0.82036   0.56416   0.00000  Uiso   1.00
Cu1137 Cu    0.78645   0.83333   0.75000   0.00000  Uiso   1.00
Cu1138 Cu    0.88022   0.83334   0.75000   0.00000  Uiso   1.00
F1139  F     0.92143   0.70819   0.71008   0.00000  Uiso   1.00
F1140  F     0.93515   0.88742   0.81230   0.00000  Uiso   1.00
F1141  F     0.98024   0.79890   0.98565   0.00000  Uiso   1.00
F1142  F     0.71532   0.86625   0.90718   0.00000  Uiso   1.00
F1143  F     0.77064   0.89070   0.55083   0.00000  Uiso   1.00
F1144  F     0.92159   0.95868   0.71069   0.00000  Uiso   1.00
H1145  H     0.95082   0.81648   0.58327   0.00000  Uiso   1.00
H1146  H     0.78670   0.74893   0.91596   0.00000  Uiso   1.00
H1147  H     0.75510   0.70400   0.78382   0.00000  Uiso   1.00
H1148  H     0.75515   0.96238   0.78345   0.00000  Uiso   1.00
H1149  H     0.69500   0.88201   0.80546   0.00000  Uiso   1.00
H1150  H     0.97055   0.78479   0.69505   0.00000  Uiso   1.00
H1151  H     0.80404   0.84611   0.59033   0.00000  Uiso   1.00
H1152  H     0.70892   0.89120   0.99996   0.00000  Uiso   1.00
H1153  H     0.77493   0.75793   0.61553   0.00000  Uiso   1.00
H1154  H     0.67424   0.76332   0.85002   0.00000  Uiso   1.00
N1155  N     0.71598   0.83332   0.74998   0.00000  Uiso   1.00
N1156  N     0.95069   0.83335   0.74999   0.00000  Uiso   1.00
O1157  O     0.79375   0.89345   0.75000   0.00000  Uiso   1.00
O1158  O     0.75571   0.78253   0.63459   0.00000  Uiso   1.00
O1159  O     0.95343   0.73633   0.92986   0.00000  Uiso   1.00
O1160  O     0.97889   0.78270   0.86434   0.00000  Uiso   1.00
O1161  O     0.89378   0.75068   0.84213   0.00000  Uiso   1.00
O1162  O     0.81348   0.74085   0.88309   0.00000  Uiso   1.00
O1163  O     0.87294   0.89346   0.75000   0.00000  Uiso   1.00
O1164  O     0.77441   0.83332   0.82549   0.00000  Uiso   1.00
O1165  O     0.85360   0.83333   0.82549   0.00000  Uiso   1.00
O1166  O     0.79373   0.77321   0.74999   0.00000  Uiso   1.00
O1167  O     0.87292   0.77322   0.74999   0.00000  Uiso   1.00
O1168  O     0.81306   0.83334   0.67451   0.00000  Uiso   1.00
O1169  O     0.89225   0.83335   0.67451   0.00000  Uiso   1.00
O1170  O     0.73050   0.73936   0.70338   0.00000  Uiso   1.00
loop_
_geom_bond_atom_site_label_1
_geom_bond_atom_site_label_2
_geom_bond_distance
_geom_bond_site_symmetry_2
_ccdc_geom_bond_type
C1     O52     1.293   .     A
C1     C9      1.448   .     S
C1     O58     1.292   .     A
C2     C4      1.474   .     S
C2     C23     1.426   .     A
C2     C19     1.406   .     A
C3     C9      1.403   .     A
C3     F39     1.359   .     S
C3     C200    1.384   .     S
C4     O60     1.298   .     A
C4     O59     1.298   .     A
C5     F34     1.358   .     S
C5     C6      1.405   .     A
C5     C393    1.384   1_545 S
C6     C7      1.399   .     A
C6     C15     1.448   .     S
C7     H42     1.083   .     S
C7     C398    1.384   1_545 S
C8     H43     1.084   .     S
C8     C9      1.401   .     A
C8     C202    1.384   .     S
C10    N51     1.371   .     A
C10    F35     1.355   .     S
C10    C76     1.418   .     S
C11    H44     1.082   .     S
C11    N50     1.366   .     A
C11    C140    1.418   1_455 S
C12    C23     1.419   .     A
C12    C606    1.426   .     S
C12    C611    1.419   .     S
C13    C22     1.468   .     S
C13    N50     1.384   .     A
C13    C144    1.413   1_455 S
C14    H45     1.083   .     S
C14    N51     1.356   .     A
C14    C78     1.413   .     S
C15    O61     1.295   .     A
C15    O62     1.290   .     A
C16    O64     1.296   .     A
C16    O63     1.298   .     A
C16    C18     1.466   .     S
C17    C31     1.393   .     A
C17    C612    1.421   1_554 S
C17    F621    1.357   1_554 S
C18    C30     1.392   .     A
C18    C31     1.396   .     A
C19    C20     1.382   .     A
C19    F37     1.358   .     S
C20    H47     1.083   .     S
C20    C606    1.387   .     S
C21    F38     1.356   .     S
C21    C597    1.426   1_554 S
C21    C605    1.387   1_554 S
C22    O65     1.222   .     D
C22    O53     1.395   .     S
C23    C29     1.426   .     A
C24    O55     1.397   .     S
C24    C28     1.482   .     S
C24    O54     1.223   .     D
C25    O56     1.220   .     D
C25    O57     1.399   .     S
C25    C29     1.501   .     S
C26    C30     1.400   .     A
C26    C597    1.419   1_554 S
C26    C612    1.422   1_554 S
C27    C28     1.415   .     A
C27    C602    1.421   .     S
C27    C611    1.422   .     S
C28    C29     1.415   .     A
C30    H46     1.075   .     S
C31    H40     1.083   .     S
Cu32   O61     1.964   .     S
Cu32   Cu33    2.684   .     S
Cu32   N50     2.017   .     S
Cu32   O52     1.961   .     S
Cu32   O59     1.953   .     S
Cu32   O63     1.941   .     S
Cu33   N51     2.017   .     S
Cu33   O58     1.964   .     S
Cu33   O64     1.953   .     S
Cu33   O60     1.941   .     S
Cu33   O62     1.961   .     S
F36    C602    1.357   .     S
H41    O57     1.013   .     S
H48    O53     1.014   .     S
H49    O185    1.014   1_455 S
O55    H114    1.014   .     S
C66    O117    1.293   .     A
C66    C74     1.448   .     S
C66    O123    1.292   .     A
C67    C69     1.474   .     S
C67    C88     1.426   .     A
C67    C84     1.406   .     A
C68    C74     1.403   .     A
C68    F104    1.359   .     S
C68    C265    1.384   .     S
C69    O125    1.298   .     A
C69    O124    1.298   .     A
C70    F99     1.358   .     S
C70    C71     1.405   .     A
C70    C458    1.384   1_545 S
C71    C72     1.399   .     A
C71    C80     1.448   .     S
C72    H107    1.083   .     S
C72    C463    1.384   1_545 S
C73    H108    1.084   .     S
C73    C74     1.401   .     A
C73    C267    1.384   .     S
C75    N116    1.371   .     A
C75    F100    1.355   .     S
C75    C141    1.418   .     S
C76    H109    1.082   .     S
C76    N115    1.366   .     A
C77    C88     1.419   .     A
C77    C671    1.426   .     S
C77    C676    1.419   .     S
C78    C87     1.468   .     S
C78    N115    1.384   .     A
C79    H110    1.083   .     S
C79    N116    1.356   .     A
C79    C143    1.413   .     S
C80    O126    1.295   .     A
C80    O127    1.290   .     A
C81    O129    1.296   .     A
C81    O128    1.298   .     A
C81    C83     1.466   .     S
C82    C96     1.393   .     A
C82    C677    1.421   1_554 S
C82    F686    1.357   1_554 S
C83    C95     1.392   .     A
C83    C96     1.396   .     A
C84    C85     1.382   .     A
C84    F102    1.358   .     S
C85    H112    1.083   .     S
C85    C671    1.387   .     S
C86    F103    1.356   .     S
C86    C662    1.426   1_554 S
C86    C670    1.387   1_554 S
C87    O130    1.222   .     D
C87    O118    1.395   .     S
C88    C94     1.426   .     A
C89    O120    1.397   .     S
C89    C93     1.482   .     S
C89    O119    1.223   .     D
C90    O121    1.220   .     D
C90    O122    1.399   .     S
C90    C94     1.501   .     S
C91    C95     1.400   .     A
C91    C662    1.419   1_554 S
C91    C677    1.422   1_554 S
C92    C93     1.415   .     A
C92    C667    1.421   .     S
C92    C676    1.422   .     S
C93    C94     1.415   .     A
C95    H111    1.075   .     S
C96    H105    1.083   .     S
Cu97   O126    1.964   .     S
Cu97   Cu98    2.684   .     S
Cu97   N115    2.017   .     S
Cu97   O117    1.961   .     S
Cu97   O124    1.953   .     S
Cu97   O128    1.941   .     S
Cu98   N116    2.017   .     S
Cu98   O123    1.964   .     S
Cu98   O129    1.953   .     S
Cu98   O125    1.941   .     S
Cu98   O127    1.961   .     S
F101   C667    1.357   .     S
H106   O122    1.013   .     S
H113   O118    1.014   .     S
O120   H179    1.014   .     S
C131   O182    1.293   .     A
C131   C139    1.448   .     S
C131   O188    1.292   .     A
C132   C134    1.474   .     S
C132   C153    1.426   .     A
C132   C149    1.406   .     A
C133   C139    1.403   .     A
C133   F169    1.359   .     S
C133   C330    1.384   .     S
C134   O190    1.298   .     A
C134   O189    1.298   .     A
C135   F164    1.358   .     S
C135   C136    1.405   .     A
C135   C523    1.384   1_545 S
C136   C137    1.399   .     A
C136   C145    1.448   .     S
C137   H172    1.083   .     S
C137   C528    1.384   1_545 S
C138   H173    1.084   .     S
C138   C139    1.401   .     A
C138   C332    1.384   .     S
C140   N181    1.371   .     A
C140   F165    1.355   .     S
C140   C11     1.418   1_655 S
C141   H174    1.082   .     S
C141   N180    1.366   .     A
C142   C153    1.419   .     A
C142   C736    1.426   .     S
C142   C741    1.419   .     S
C143   C152    1.468   .     S
C143   N180    1.384   .     A
C144   H175    1.083   .     S
C144   N181    1.356   .     A
C144   C13     1.413   1_655 S
C145   O191    1.295   .     A
C145   O192    1.290   .     A
C146   O194    1.296   .     A
C146   O193    1.298   .     A
C146   C148    1.466   .     S
C147   C161    1.393   .     A
C147   C742    1.421   1_554 S
C147   F751    1.357   1_554 S
C148   C160    1.392   .     A
C148   C161    1.396   .     A
C149   C150    1.382   .     A
C149   F167    1.358   .     S
C150   H177    1.083   .     S
C150   C736    1.387   .     S
C151   F168    1.356   .     S
C151   C727    1.426   1_554 S
C151   C735    1.387   1_554 S
C152   O195    1.222   .     D
C152   O183    1.395   .     S
C153   C159    1.426   .     A
C154   O185    1.397   .     S
C154   C158    1.482   .     S
C154   O184    1.223   .     D
C155   O186    1.220   .     D
C155   O187    1.399   .     S
C155   C159    1.501   .     S
C156   C160    1.400   .     A
C156   C727    1.419   1_554 S
C156   C742    1.422   1_554 S
C157   C158    1.415   .     A
C157   C732    1.421   .     S
C157   C741    1.422   .     S
C158   C159    1.415   .     A
C160   H176    1.075   .     S
C161   H170    1.083   .     S
Cu162  O191    1.964   .     S
Cu162  Cu163   2.684   .     S
Cu162  N180    2.017   .     S
Cu162  O182    1.961   .     S
Cu162  O189    1.953   .     S
Cu162  O193    1.941   .     S
Cu163  N181    2.017   .     S
Cu163  O188    1.964   .     S
Cu163  O194    1.953   .     S
Cu163  O190    1.941   .     S
Cu163  O192    1.961   .     S
F166   C732    1.357   .     S
H171   O187    1.013   .     S
H178   O183    1.014   .     S
O185   H49     1.014   1_655 S
C196   O247    1.293   .     A
C196   C204    1.448   .     S
C196   O253    1.292   .     A
C197   C199    1.474   .     S
C197   C218    1.426   .     A
C197   C214    1.406   .     A
C198   C204    1.403   .     A
C198   F234    1.359   .     S
C198   C395    1.384   .     S
C199   O255    1.298   .     A
C199   O254    1.298   .     A
C200   F229    1.358   .     S
C200   C201    1.405   .     A
C201   C202    1.399   .     A
C201   C210    1.448   .     S
C202   H237    1.083   .     S
C203   H238    1.084   .     S
C203   C204    1.401   .     A
C203   C397    1.384   .     S
C205   N246    1.371   .     A
C205   F230    1.355   .     S
C205   C271    1.418   .     S
C206   H239    1.082   .     S
C206   N245    1.366   .     A
C206   C335    1.418   1_455 S
C207   C218    1.419   .     A
C207   C801    1.426   .     S
C207   C806    1.419   .     S
C208   C217    1.468   .     S
C208   N245    1.384   .     A
C208   C339    1.413   1_455 S
C209   H240    1.083   .     S
C209   N246    1.356   .     A
C209   C273    1.413   .     S
C210   O256    1.295   .     A
C210   O257    1.290   .     A
C211   O259    1.296   .     A
C211   O258    1.298   .     A
C211   C213    1.466   .     S
C212   C226    1.393   .     A
C212   C807    1.421   1_554 S
C212   F816    1.357   1_554 S
C213   C225    1.392   .     A
C213   C226    1.396   .     A
C214   C215    1.382   .     A
C214   F232    1.358   .     S
C215   H242    1.083   .     S
C215   C801    1.387   .     S
C216   F233    1.356   .     S
C216   C792    1.426   1_554 S
C216   C800    1.387   1_554 S
C217   O260    1.222   .     D
C217   O248    1.395   .     S
C218   C224    1.426   .     A
C219   O250    1.397   .     S
C219   C223    1.482   .     S
C219   O249    1.223   .     D
C220   O251    1.220   .     D
C220   O252    1.399   .     S
C220   C224    1.501   .     S
C221   C225    1.400   .     A
C221   C792    1.419   1_554 S
C221   C807    1.422   1_554 S
C222   C223    1.415   .     A
C222   C797    1.421   .     S
C222   C806    1.422   .     S
C223   C224    1.415   .     A
C225   H241    1.075   .     S
C226   H235    1.083   .     S
Cu227  O256    1.964   .     S
Cu227  Cu228   2.684   .     S
Cu227  N245    2.017   .     S
Cu227  O247    1.961   .     S
Cu227  O254    1.953   .     S
Cu227  O258    1.941   .     S
Cu228  N246    2.017   .     S
Cu228  O253    1.964   .     S
Cu228  O259    1.953   .     S
Cu228  O255    1.941   .     S
Cu228  O257    1.961   .     S
F231   C797    1.357   .     S
H236   O252    1.013   .     S
H243   O248    1.014   .     S
H244   O380    1.014   1_455 S
O250   H309    1.014   .     S
C261   O312    1.293   .     A
C261   C269    1.448   .     S
C261   O318    1.292   .     A
C262   C264    1.474   .     S
C262   C283    1.426   .     A
C262   C279    1.406   .     A
C263   C269    1.403   .     A
C263   F299    1.359   .     S
C263   C460    1.384   .     S
C264   O320    1.298   .     A
C264   O319    1.298   .     A
C265   F294    1.358   .     S
C265   C266    1.405   .     A
C266   C267    1.399   .     A
C266   C275    1.448   .     S
C267   H302    1.083   .     S
C268   H303    1.084   .     S
C268   C269    1.401   .     A
C268   C462    1.384   .     S
C270   N311    1.371   .     A
C270   F295    1.355   .     S
C270   C336    1.418   .     S
C271   H304    1.082   .     S
C271   N310    1.366   .     A
C272   C283    1.419   .     A
C272   C866    1.426   .     S
C272   C871    1.419   .     S
C273   C282    1.468   .     S
C273   N310    1.384   .     A
C274   H305    1.083   .     S
C274   N311    1.356   .     A
C274   C338    1.413   .     S
C275   O321    1.295   .     A
C275   O322    1.290   .     A
C276   O324    1.296   .     A
C276   O323    1.298   .     A
C276   C278    1.466   .     S
C277   C291    1.393   .     A
C277   C872    1.421   1_554 S
C277   F881    1.357   1_554 S
C278   C290    1.392   .     A
C278   C291    1.396   .     A
C279   C280    1.382   .     A
C279   F297    1.358   .     S
C280   H307    1.083   .     S
C280   C866    1.387   .     S
C281   F298    1.356   .     S
C281   C857    1.426   1_554 S
C281   C865    1.387   1_554 S
C282   O325    1.222   .     D
C282   O313    1.395   .     S
C283   C289    1.426   .     A
C284   O315    1.397   .     S
C284   C288    1.482   .     S
C284   O314    1.223   .     D
C285   O316    1.220   .     D
C285   O317    1.399   .     S
C285   C289    1.501   .     S
C286   C290    1.400   .     A
C286   C857    1.419   1_554 S
C286   C872    1.422   1_554 S
C287   C288    1.415   .     A
C287   C862    1.421   .     S
C287   C871    1.422   .     S
C288   C289    1.415   .     A
C290   H306    1.075   .     S
C291   H300    1.083   .     S
Cu292  O321    1.964   .     S
Cu292  Cu293   2.684   .     S
Cu292  N310    2.017   .     S
Cu292  O312    1.961   .     S
Cu292  O319    1.953   .     S
Cu292  O323    1.941   .     S
Cu293  N311    2.017   .     S
Cu293  O318    1.964   .     S
Cu293  O324    1.953   .     S
Cu293  O320    1.941   .     S
Cu293  O322    1.961   .     S
F296   C862    1.357   .     S
H301   O317    1.013   .     S
H308   O313    1.014   .     S
O315   H374    1.014   .     S
C326   O377    1.293   .     A
C326   C334    1.448   .     S
C326   O383    1.292   .     A
C327   C329    1.474   .     S
C327   C348    1.426   .     A
C327   C344    1.406   .     A
C328   C334    1.403   .     A
C328   F364    1.359   .     S
C328   C525    1.384   .     S
C329   O385    1.298   .     A
C329   O384    1.298   .     A
C330   F359    1.358   .     S
C330   C331    1.405   .     A
C331   C332    1.399   .     A
C331   C340    1.448   .     S
C332   H367    1.083   .     S
C333   H368    1.084   .     S
C333   C334    1.401   .     A
C333   C527    1.384   .     S
C335   N376    1.371   .     A
C335   F360    1.355   .     S
C335   C206    1.418   1_655 S
C336   H369    1.082   .     S
C336   N375    1.366   .     A
C337   C348    1.419   .     A
C337   C931    1.426   .     S
C337   C936    1.419   .     S
C338   C347    1.468   .     S
C338   N375    1.384   .     A
C339   H370    1.083   .     S
C339   N376    1.356   .     A
C339   C208    1.413   1_655 S
C340   O386    1.295   .     A
C340   O387    1.290   .     A
C341   O389    1.296   .     A
C341   O388    1.298   .     A
C341   C343    1.466   .     S
C342   C356    1.393   .     A
C342   C937    1.421   1_554 S
C342   F946    1.357   1_554 S
C343   C355    1.392   .     A
C343   C356    1.396   .     A
C344   C345    1.382   .     A
C344   F362    1.358   .     S
C345   H372    1.083   .     S
C345   C931    1.387   .     S
C346   F363    1.356   .     S
C346   C922    1.426   1_554 S
C346   C930    1.387   1_554 S
C347   O390    1.222   .     D
C347   O378    1.395   .     S
C348   C354    1.426   .     A
C349   O380    1.397   .     S
C349   C353    1.482   .     S
C349   O379    1.223   .     D
C350   O381    1.220   .     D
C350   O382    1.399   .     S
C350   C354    1.501   .     S
C351   C355    1.400   .     A
C351   C922    1.419   1_554 S
C351   C937    1.422   1_554 S
C352   C353    1.415   .     A
C352   C927    1.421   .     S
C352   C936    1.422   .     S
C353   C354    1.415   .     A
C355   H371    1.075   .     S
C356   H365    1.083   .     S
Cu357  O386    1.964   .     S
Cu357  Cu358   2.684   .     S
Cu357  N375    2.017   .     S
Cu357  O377    1.961   .     S
Cu357  O384    1.953   .     S
Cu357  O388    1.941   .     S
Cu358  N376    2.017   .     S
Cu358  O383    1.964   .     S
Cu358  O389    1.953   .     S
Cu358  O385    1.941   .     S
Cu358  O387    1.961   .     S
F361   C927    1.357   .     S
H366   O382    1.013   .     S
H373   O378    1.014   .     S
O380   H244    1.014   1_655 S
C391   O442    1.293   .     A
C391   C399    1.448   .     S
C391   O448    1.292   .     A
C392   C394    1.474   .     S
C392   C413    1.426   .     A
C392   C409    1.406   .     A
C393   C399    1.403   .     A
C393   F429    1.359   .     S
C393   C5      1.384   1_565 S
C394   O450    1.298   .     A
C394   O449    1.298   .     A
C395   F424    1.358   .     S
C395   C396    1.405   .     A
C396   C397    1.399   .     A
C396   C405    1.448   .     S
C397   H432    1.083   .     S
C398   H433    1.084   .     S
C398   C399    1.401   .     A
C398   C7      1.384   1_565 S
C400   N441    1.371   .     A
C400   F425    1.355   .     S
C400   C466    1.418   .     S
C401   H434    1.082   .     S
C401   N440    1.366   .     A
C401   C530    1.418   1_455 S
C402   C413    1.419   .     A
C402   C996    1.426   .     S
C402   C1001   1.419   .     S
C403   C412    1.468   .     S
C403   N440    1.384   .     A
C403   C534    1.413   1_455 S
C404   H435    1.083   .     S
C404   N441    1.356   .     A
C404   C468    1.413   .     S
C405   O451    1.295   .     A
C405   O452    1.290   .     A
C406   O454    1.296   .     A
C406   O453    1.298   .     A
C406   C408    1.466   .     S
C407   C421    1.393   .     A
C407   C1002   1.421   1_554 S
C407   F1011   1.357   1_554 S
C408   C420    1.392   .     A
C408   C421    1.396   .     A
C409   C410    1.382   .     A
C409   F427    1.358   .     S
C410   H437    1.083   .     S
C410   C996    1.387   .     S
C411   F428    1.356   .     S
C411   C987    1.426   1_554 S
C411   C995    1.387   1_554 S
C412   O455    1.222   .     D
C412   O443    1.395   .     S
C413   C419    1.426   .     A
C414   O445    1.397   .     S
C414   C418    1.482   .     S
C414   O444    1.223   .     D
C415   O446    1.220   .     D
C415   O447    1.399   .     S
C415   C419    1.501   .     S
C416   C420    1.400   .     A
C416   C987    1.419   1_554 S
C416   C1002   1.422   1_554 S
C417   C418    1.415   .     A
C417   C992    1.421   .     S
C417   C1001   1.422   .     S
C418   C419    1.415   .     A
C420   H436    1.075   .     S
C421   H430    1.083   .     S
Cu422  O451    1.964   .     S
Cu422  Cu423   2.684   .     S
Cu422  N440    2.017   .     S
Cu422  O442    1.961   .     S
Cu422  O449    1.953   .     S
Cu422  O453    1.941   .     S
Cu423  N441    2.017   .     S
Cu423  O448    1.964   .     S
Cu423  O454    1.953   .     S
Cu423  O450    1.941   .     S
Cu423  O452    1.961   .     S
F426   C992    1.357   .     S
H431   O447    1.013   .     S
H438   O443    1.014   .     S
H439   O575    1.014   1_455 S
O445   H504    1.014   .     S
C456   O507    1.293   .     A
C456   C464    1.448   .     S
C456   O513    1.292   .     A
C457   C459    1.474   .     S
C457   C478    1.426   .     A
C457   C474    1.406   .     A
C458   C464    1.403   .     A
C458   F494    1.359   .     S
C458   C70     1.384   1_565 S
C459   O515    1.298   .     A
C459   O514    1.298   .     A
C460   F489    1.358   .     S
C460   C461    1.405   .     A
C461   C462    1.399   .     A
C461   C470    1.448   .     S
C462   H497    1.083   .     S
C463   H498    1.084   .     S
C463   C464    1.401   .     A
C463   C72     1.384   1_565 S
C465   N506    1.371   .     A
C465   F490    1.355   .     S
C465   C531    1.418   .     S
C466   H499    1.082   .     S
C466   N505    1.366   .     A
C467   C478    1.419   .     A
C467   C1061   1.426   .     S
C467   C1066   1.419   .     S
C468   C477    1.468   .     S
C468   N505    1.384   .     A
C469   H500    1.083   .     S
C469   N506    1.356   .     A
C469   C533    1.413   .     S
C470   O516    1.295   .     A
C470   O517    1.290   .     A
C471   O519    1.296   .     A
C471   O518    1.298   .     A
C471   C473    1.466   .     S
C472   C486    1.393   .     A
C472   C1067   1.421   1_554 S
C472   F1076   1.357   1_554 S
C473   C485    1.392   .     A
C473   C486    1.396   .     A
C474   C475    1.382   .     A
C474   F492    1.358   .     S
C475   H502    1.083   .     S
C475   C1061   1.387   .     S
C476   F493    1.356   .     S
C476   C1052   1.426   1_554 S
C476   C1060   1.387   1_554 S
C477   O520    1.222   .     D
C477   O508    1.395   .     S
C478   C484    1.426   .     A
C479   O510    1.397   .     S
C479   C483    1.482   .     S
C479   O509    1.223   .     D
C480   O511    1.220   .     D
C480   O512    1.399   .     S
C480   C484    1.501   .     S
C481   C485    1.400   .     A
C481   C1052   1.419   1_554 S
C481   C1067   1.422   1_554 S
C482   C483    1.415   .     A
C482   C1057   1.421   .     S
C482   C1066   1.422   .     S
C483   C484    1.415   .     A
C485   H501    1.075   .     S
C486   H495    1.083   .     S
Cu487  O516    1.964   .     S
Cu487  Cu488   2.684   .     S
Cu487  N505    2.017   .     S
Cu487  O507    1.961   .     S
Cu487  O514    1.953   .     S
Cu487  O518    1.941   .     S
Cu488  N506    2.017   .     S
Cu488  O513    1.964   .     S
Cu488  O519    1.953   .     S
Cu488  O515    1.941   .     S
Cu488  O517    1.961   .     S
F491   C1057   1.357   .     S
H496   O512    1.013   .     S
H503   O508    1.014   .     S
O510   H569    1.014   .     S
C521   O572    1.293   .     A
C521   C529    1.448   .     S
C521   O578    1.292   .     A
C522   C524    1.474   .     S
C522   C543    1.426   .     A
C522   C539    1.406   .     A
C523   C529    1.403   .     A
C523   F559    1.359   .     S
C523   C135    1.384   1_565 S
C524   O580    1.298   .     A
C524   O579    1.298   .     A
C525   F554    1.358   .     S
C525   C526    1.405   .     A
C526   C527    1.399   .     A
C526   C535    1.448   .     S
C527   H562    1.083   .     S
C528   H563    1.084   .     S
C528   C529    1.401   .     A
C528   C137    1.384   1_565 S
C530   N571    1.371   .     A
C530   F555    1.355   .     S
C530   C401    1.418   1_655 S
C531   H564    1.082   .     S
C531   N570    1.366   .     A
C532   C543    1.419   .     A
C532   C1126   1.426   .     S
C532   C1131   1.419   .     S
C533   C542    1.468   .     S
C533   N570    1.384   .     A
C534   H565    1.083   .     S
C534   N571    1.356   .     A
C534   C403    1.413   1_655 S
C535   O581    1.295   .     A
C535   O582    1.290   .     A
C536   O584    1.296   .     A
C536   O583    1.298   .     A
C536   C538    1.466   .     S
C537   C551    1.393   .     A
C537   C1132   1.421   1_554 S
C537   F1141   1.357   1_554 S
C538   C550    1.392   .     A
C538   C551    1.396   .     A
C539   C540    1.382   .     A
C539   F557    1.358   .     S
C540   H567    1.083   .     S
C540   C1126   1.387   .     S
C541   F558    1.356   .     S
C541   C1117   1.426   1_554 S
C541   C1125   1.387   1_554 S
C542   O585    1.222   .     D
C542   O573    1.395   .     S
C543   C549    1.426   .     A
C544   O575    1.397   .     S
C544   C548    1.482   .     S
C544   O574    1.223   .     D
C545   O576    1.220   .     D
C545   O577    1.399   .     S
C545   C549    1.501   .     S
C546   C550    1.400   .     A
C546   C1117   1.419   1_554 S
C546   C1132   1.422   1_554 S
C547   C548    1.415   .     A
C547   C1122   1.421   .     S
C547   C1131   1.422   .     S
C548   C549    1.415   .     A
C550   H566    1.075   .     S
C551   H560    1.083   .     S
Cu552  O581    1.964   .     S
Cu552  Cu553   2.684   .     S
Cu552  N570    2.017   .     S
Cu552  O572    1.961   .     S
Cu552  O579    1.953   .     S
Cu552  O583    1.941   .     S
Cu553  N571    2.017   .     S
Cu553  O578    1.964   .     S
Cu553  O584    1.953   .     S
Cu553  O580    1.941   .     S
Cu553  O582    1.961   .     S
F556   C1122   1.357   .     S
H561   O577    1.013   .     S
H568   O573    1.014   .     S
O575   H439    1.014   1_655 S
C586   O637    1.293   .     A
C586   C594    1.448   .     S
C586   O643    1.292   .     A
C587   C589    1.474   .     S
C587   C608    1.426   .     A
C587   C604    1.406   .     A
C588   C594    1.403   .     A
C588   F624    1.359   .     S
C588   C785    1.384   .     S
C589   O645    1.298   .     A
C589   O644    1.298   .     A
C590   F619    1.358   .     S
C590   C591    1.405   .     A
C590   C978    1.384   1_545 S
C591   C592    1.399   .     A
C591   C600    1.448   .     S
C592   H627    1.083   .     S
C592   C983    1.384   1_545 S
C593   H628    1.084   .     S
C593   C594    1.401   .     A
C593   C787    1.384   .     S
C595   N636    1.371   .     A
C595   F620    1.355   .     S
C595   C661    1.418   .     S
C596   H629    1.082   .     S
C596   N635    1.366   .     A
C596   C725    1.418   1_455 S
C597   C608    1.419   .     A
C597   C21     1.426   1_556 S
C597   C26     1.419   1_556 S
C598   C607    1.468   .     S
C598   N635    1.384   .     A
C598   C729    1.413   1_455 S
C599   H630    1.083   .     S
C599   N636    1.356   .     A
C599   C663    1.413   .     S
C600   O646    1.295   .     A
C600   O647    1.290   .     A
C601   O649    1.296   .     A
C601   O648    1.298   .     A
C601   C603    1.466   .     S
C602   C616    1.393   .     A
C603   C615    1.392   .     A
C603   C616    1.396   .     A
C604   C605    1.382   .     A
C604   F622    1.358   .     S
C605   H632    1.083   .     S
C605   C21     1.387   1_556 S
C606   F623    1.356   .     S
C607   O650    1.222   .     D
C607   O638    1.395   .     S
C608   C614    1.426   .     A
C609   O640    1.397   .     S
C609   C613    1.482   .     S
C609   O639    1.223   .     D
C610   O641    1.220   .     D
C610   O642    1.399   .     S
C610   C614    1.501   .     S
C611   C615    1.400   .     A
C612   C613    1.415   .     A
C612   C17     1.421   1_556 S
C612   C26     1.422   1_556 S
C613   C614    1.415   .     A
C615   H631    1.075   .     S
C616   H625    1.083   .     S
Cu617  O646    1.964   .     S
Cu617  Cu618   2.684   .     S
Cu617  N635    2.017   .     S
Cu617  O637    1.961   .     S
Cu617  O644    1.953   .     S
Cu617  O648    1.941   .     S
Cu618  N636    2.017   .     S
Cu618  O643    1.964   .     S
Cu618  O649    1.953   .     S
Cu618  O645    1.941   .     S
Cu618  O647    1.961   .     S
F621   C17     1.357   1_556 S
H626   O642    1.013   .     S
H633   O638    1.014   .     S
H634   O770    1.014   1_455 S
O640   H699    1.014   .     S
C651   O702    1.293   .     A
C651   C659    1.448   .     S
C651   O708    1.292   .     A
C652   C654    1.474   .     S
C652   C673    1.426   .     A
C652   C669    1.406   .     A
C653   C659    1.403   .     A
C653   F689    1.359   .     S
C653   C850    1.384   .     S
C654   O710    1.298   .     A
C654   O709    1.298   .     A
C655   F684    1.358   .     S
C655   C656    1.405   .     A
C655   C1043   1.384   1_545 S
C656   C657    1.399   .     A
C656   C665    1.448   .     S
C657   H692    1.083   .     S
C657   C1048   1.384   1_545 S
C658   H693    1.084   .     S
C658   C659    1.401   .     A
C658   C852    1.384   .     S
C660   N701    1.371   .     A
C660   F685    1.355   .     S
C660   C726    1.418   .     S
C661   H694    1.082   .     S
C661   N700    1.366   .     A
C662   C673    1.419   .     A
C662   C86     1.426   1_556 S
C662   C91     1.419   1_556 S
C663   C672    1.468   .     S
C663   N700    1.384   .     A
C664   H695    1.083   .     S
C664   N701    1.356   .     A
C664   C728    1.413   .     S
C665   O711    1.295   .     A
C665   O712    1.290   .     A
C666   O714    1.296   .     A
C666   O713    1.298   .     A
C666   C668    1.466   .     S
C667   C681    1.393   .     A
C668   C680    1.392   .     A
C668   C681    1.396   .     A
C669   C670    1.382   .     A
C669   F687    1.358   .     S
C670   H697    1.083   .     S
C670   C86     1.387   1_556 S
C671   F688    1.356   .     S
C672   O715    1.222   .     D
C672   O703    1.395   .     S
C673   C679    1.426   .     A
C674   O705    1.397   .     S
C674   C678    1.482   .     S
C674   O704    1.223   .     D
C675   O706    1.220   .     D
C675   O707    1.399   .     S
C675   C679    1.501   .     S
C676   C680    1.400   .     A
C677   C678    1.415   .     A
C677   C82     1.421   1_556 S
C677   C91     1.422   1_556 S
C678   C679    1.415   .     A
C680   H696    1.075   .     S
C681   H690    1.083   .     S
Cu682  O711    1.964   .     S
Cu682  Cu683   2.684   .     S
Cu682  N700    2.017   .     S
Cu682  O702    1.961   .     S
Cu682  O709    1.953   .     S
Cu682  O713    1.941   .     S
Cu683  N701    2.017   .     S
Cu683  O708    1.964   .     S
Cu683  O714    1.953   .     S
Cu683  O710    1.941   .     S
Cu683  O712    1.961   .     S
F686   C82     1.357   1_556 S
H691   O707    1.013   .     S
H698   O703    1.014   .     S
O705   H764    1.014   .     S
C716   O767    1.293   .     A
C716   C724    1.448   .     S
C716   O773    1.292   .     A
C717   C719    1.474   .     S
C717   C738    1.426   .     A
C717   C734    1.406   .     A
C718   C724    1.403   .     A
C718   F754    1.359   .     S
C718   C915    1.384   .     S
C719   O775    1.298   .     A
C719   O774    1.298   .     A
C720   F749    1.358   .     S
C720   C721    1.405   .     A
C720   C1108   1.384   1_545 S
C721   C722    1.399   .     A
C721   C730    1.448   .     S
C722   H757    1.083   .     S
C722   C1113   1.384   1_545 S
C723   H758    1.084   .     S
C723   C724    1.401   .     A
C723   C917    1.384   .     S
C725   N766    1.371   .     A
C725   F750    1.355   .     S
C725   C596    1.418   1_655 S
C726   H759    1.082   .     S
C726   N765    1.366   .     A
C727   C738    1.419   .     A
C727   C151    1.426   1_556 S
C727   C156    1.419   1_556 S
C728   C737    1.468   .     S
C728   N765    1.384   .     A
C729   H760    1.083   .     S
C729   N766    1.356   .     A
C729   C598    1.413   1_655 S
C730   O776    1.295   .     A
C730   O777    1.290   .     A
C731   O779    1.296   .     A
C731   O778    1.298   .     A
C731   C733    1.466   .     S
C732   C746    1.393   .     A
C733   C745    1.392   .     A
C733   C746    1.396   .     A
C734   C735    1.382   .     A
C734   F752    1.358   .     S
C735   H762    1.083   .     S
C735   C151    1.387   1_556 S
C736   F753    1.356   .     S
C737   O780    1.222   .     D
C737   O768    1.395   .     S
C738   C744    1.426   .     A
C739   O770    1.397   .     S
C739   C743    1.482   .     S
C739   O769    1.223   .     D
C740   O771    1.220   .     D
C740   O772    1.399   .     S
C740   C744    1.501   .     S
C741   C745    1.400   .     A
C742   C743    1.415   .     A
C742   C147    1.421   1_556 S
C742   C156    1.422   1_556 S
C743   C744    1.415   .     A
C745   H761    1.075   .     S
C746   H755    1.083   .     S
Cu747  O776    1.964   .     S
Cu747  Cu748   2.684   .     S
Cu747  N765    2.017   .     S
Cu747  O767    1.961   .     S
Cu747  O774    1.953   .     S
Cu747  O778    1.941   .     S
Cu748  N766    2.017   .     S
Cu748  O773    1.964   .     S
Cu748  O779    1.953   .     S
Cu748  O775    1.941   .     S
Cu748  O777    1.961   .     S
F751   C147    1.357   1_556 S
H756   O772    1.013   .     S
H763   O768    1.014   .     S
O770   H634    1.014   1_655 S
C781   O832    1.293   .     A
C781   C789    1.448   .     S
C781   O838    1.292   .     A
C782   C784    1.474   .     S
C782   C803    1.426   .     A
C782   C799    1.406   .     A
C783   C789    1.403   .     A
C783   F819    1.359   .     S
C783   C980    1.384   .     S
C784   O840    1.298   .     A
C784   O839    1.298   .     A
C785   F814    1.358   .     S
C785   C786    1.405   .     A
C786   C787    1.399   .     A
C786   C795    1.448   .     S
C787   H822    1.083   .     S
C788   H823    1.084   .     S
C788   C789    1.401   .     A
C788   C982    1.384   .     S
C790   N831    1.371   .     A
C790   F815    1.355   .     S
C790   C856    1.418   .     S
C791   H824    1.082   .     S
C791   N830    1.366   .     A
C791   C920    1.418   1_455 S
C792   C803    1.419   .     A
C792   C216    1.426   1_556 S
C792   C221    1.419   1_556 S
C793   C802    1.468   .     S
C793   N830    1.384   .     A
C793   C924    1.413   1_455 S
C794   H825    1.083   .     S
C794   N831    1.356   .     A
C794   C858    1.413   .     S
C795   O841    1.295   .     A
C795   O842    1.290   .     A
C796   O844    1.296   .     A
C796   O843    1.298   .     A
C796   C798    1.466   .     S
C797   C811    1.393   .     A
C798   C810    1.392   .     A
C798   C811    1.396   .     A
C799   C800    1.382   .     A
C799   F817    1.358   .     S
C800   H827    1.083   .     S
C800   C216    1.387   1_556 S
C801   F818    1.356   .     S
C802   O845    1.222   .     D
C802   O833    1.395   .     S
C803   C809    1.426   .     A
C804   O835    1.397   .     S
C804   C808    1.482   .     S
C804   O834    1.223   .     D
C805   O836    1.220   .     D
C805   O837    1.399   .     S
C805   C809    1.501   .     S
C806   C810    1.400   .     A
C807   C808    1.415   .     A
C807   C212    1.421   1_556 S
C807   C221    1.422   1_556 S
C808   C809    1.415   .     A
C810   H826    1.075   .     S
C811   H820    1.083   .     S
Cu812  O841    1.964   .     S
Cu812  Cu813   2.684   .     S
Cu812  N830    2.017   .     S
Cu812  O832    1.961   .     S
Cu812  O839    1.953   .     S
Cu812  O843    1.941   .     S
Cu813  N831    2.017   .     S
Cu813  O838    1.964   .     S
Cu813  O844    1.953   .     S
Cu813  O840    1.941   .     S
Cu813  O842    1.961   .     S
F816   C212    1.357   1_556 S
H821   O837    1.013   .     S
H828   O833    1.014   .     S
H829   O965    1.014   1_455 S
O835   H894    1.014   .     S
C846   O897    1.293   .     A
C846   C854    1.448   .     S
C846   O903    1.292   .     A
C847   C849    1.474   .     S
C847   C868    1.426   .     A
C847   C864    1.406   .     A
C848   C854    1.403   .     A
C848   F884    1.359   .     S
C848   C1045   1.384   .     S
C849   O905    1.298   .     A
C849   O904    1.298   .     A
C850   F879    1.358   .     S
C850   C851    1.405   .     A
C851   C852    1.399   .     A
C851   C860    1.448   .     S
C852   H887    1.083   .     S
C853   H888    1.084   .     S
C853   C854    1.401   .     A
C853   C1047   1.384   .     S
C855   N896    1.371   .     A
C855   F880    1.355   .     S
C855   C921    1.418   .     S
C856   H889    1.082   .     S
C856   N895    1.366   .     A
C857   C868    1.419   .     A
C857   C281    1.426   1_556 S
C857   C286    1.419   1_556 S
C858   C867    1.468   .     S
C858   N895    1.384   .     A
C859   H890    1.083   .     S
C859   N896    1.356   .     A
C859   C923    1.413   .     S
C860   O906    1.295   .     A
C860   O907    1.290   .     A
C861   O909    1.296   .     A
C861   O908    1.298   .     A
C861   C863    1.466   .     S
C862   C876    1.393   .     A
C863   C875    1.392   .     A
C863   C876    1.396   .     A
C864   C865    1.382   .     A
C864   F882    1.358   .     S
C865   H892    1.083   .     S
C865   C281    1.387   1_556 S
C866   F883    1.356   .     S
C867   O910    1.222   .     D
C867   O898    1.395   .     S
C868   C874    1.426   .     A
C869   O900    1.397   .     S
C869   C873    1.482   .     S
C869   O899    1.223   .     D
C870   O901    1.220   .     D
C870   O902    1.399   .     S
C870   C874    1.501   .     S
C871   C875    1.400   .     A
C872   C873    1.415   .     A
C872   C277    1.421   1_556 S
C872   C286    1.422   1_556 S
C873   C874    1.415   .     A
C875   H891    1.075   .     S
C876   H885    1.083   .     S
Cu877  O906    1.964   .     S
Cu877  Cu878   2.684   .     S
Cu877  N895    2.017   .     S
Cu877  O897    1.961   .     S
Cu877  O904    1.953   .     S
Cu877  O908    1.941   .     S
Cu878  N896    2.017   .     S
Cu878  O903    1.964   .     S
Cu878  O909    1.953   .     S
Cu878  O905    1.941   .     S
Cu878  O907    1.961   .     S
F881   C277    1.357   1_556 S
H886   O902    1.013   .     S
H893   O898    1.014   .     S
O900   H959    1.014   .     S
C911   O962    1.293   .     A
C911   C919    1.448   .     S
C911   O968    1.292   .     A
C912   C914    1.474   .     S
C912   C933    1.426   .     A
C912   C929    1.406   .     A
C913   C919    1.403   .     A
C913   F949    1.359   .     S
C913   C1110   1.384   .     S
C914   O970    1.298   .     A
C914   O969    1.298   .     A
C915   F944    1.358   .     S
C915   C916    1.405   .     A
C916   C917    1.399   .     A
C916   C925    1.448   .     S
C917   H952    1.083   .     S
C918   H953    1.084   .     S
C918   C919    1.401   .     A
C918   C1112   1.384   .     S
C920   N961    1.371   .     A
C920   F945    1.355   .     S
C920   C791    1.418   1_655 S
C921   H954    1.082   .     S
C921   N960    1.366   .     A
C922   C933    1.419   .     A
C922   C346    1.426   1_556 S
C922   C351    1.419   1_556 S
C923   C932    1.468   .     S
C923   N960    1.384   .     A
C924   H955    1.083   .     S
C924   N961    1.356   .     A
C924   C793    1.413   1_655 S
C925   O971    1.295   .     A
C925   O972    1.290   .     A
C926   O974    1.296   .     A
C926   O973    1.298   .     A
C926   C928    1.466   .     S
C927   C941    1.393   .     A
C928   C940    1.392   .     A
C928   C941    1.396   .     A
C929   C930    1.382   .     A
C929   F947    1.358   .     S
C930   H957    1.083   .     S
C930   C346    1.387   1_556 S
C931   F948    1.356   .     S
C932   O975    1.222   .     D
C932   O963    1.395   .     S
C933   C939    1.426   .     A
C934   O965    1.397   .     S
C934   C938    1.482   .     S
C934   O964    1.223   .     D
C935   O966    1.220   .     D
C935   O967    1.399   .     S
C935   C939    1.501   .     S
C936   C940    1.400   .     A
C937   C938    1.415   .     A
C937   C342    1.421   1_556 S
C937   C351    1.422   1_556 S
C938   C939    1.415   .     A
C940   H956    1.075   .     S
C941   H950    1.083   .     S
Cu942  O971    1.964   .     S
Cu942  Cu943   2.684   .     S
Cu942  N960    2.017   .     S
Cu942  O962    1.961   .     S
Cu942  O969    1.953   .     S
Cu942  O973    1.941   .     S
Cu943  N961    2.017   .     S
Cu943  O968    1.964   .     S
Cu943  O974    1.953   .     S
Cu943  O970    1.941   .     S
Cu943  O972    1.961   .     S
F946   C342    1.357   1_556 S
H951   O967    1.013   .     S
H958   O963    1.014   .     S
O965   H829    1.014   1_655 S
C976   O1027   1.293   .     A
C976   C984    1.448   .     S
C976   O1033   1.292   .     A
C977   C979    1.474   .     S
C977   C998    1.426   .     A
C977   C994    1.406   .     A
C978   C984    1.403   .     A
C978   F1014   1.359   .     S
C978   C590    1.384   1_565 S
C979   O1035   1.298   .     A
C979   O1034   1.298   .     A
C980   F1009   1.358   .     S
C980   C981    1.405   .     A
C981   C982    1.399   .     A
C981   C990    1.448   .     S
C982   H1017   1.083   .     S
C983   H1018   1.084   .     S
C983   C984    1.401   .     A
C983   C592    1.384   1_565 S
C985   N1026   1.371   .     A
C985   F1010   1.355   .     S
C985   C1051   1.418   .     S
C986   H1019   1.082   .     S
C986   N1025   1.366   .     A
C986   C1115   1.418   1_455 S
C987   C998    1.419   .     A
C987   C411    1.426   1_556 S
C987   C416    1.419   1_556 S
C988   C997    1.468   .     S
C988   N1025   1.384   .     A
C988   C1119   1.413   1_455 S
C989   H1020   1.083   .     S
C989   N1026   1.356   .     A
C989   C1053   1.413   .     S
C990   O1036   1.295   .     A
C990   O1037   1.290   .     A
C991   O1039   1.296   .     A
C991   O1038   1.298   .     A
C991   C993    1.466   .     S
C992   C1006   1.393   .     A
C993   C1005   1.392   .     A
C993   C1006   1.396   .     A
C994   C995    1.382   .     A
C994   F1012   1.358   .     S
C995   H1022   1.083   .     S
C995   C411    1.387   1_556 S
C996   F1013   1.356   .     S
C997   O1040   1.222   .     D
C997   O1028   1.395   .     S
C998   C1004   1.426   .     A
C999   O1030   1.397   .     S
C999   C1003   1.482   .     S
C999   O1029   1.223   .     D
C1000  O1031   1.220   .     D
C1000  O1032   1.399   .     S
C1000  C1004   1.501   .     S
C1001  C1005   1.400   .     A
C1002  C1003   1.415   .     A
C1002  C407    1.421   1_556 S
C1002  C416    1.422   1_556 S
C1003  C1004   1.415   .     A
C1005  H1021   1.075   .     S
C1006  H1015   1.083   .     S
Cu1007 O1036   1.964   .     S
Cu1007 Cu1008  2.684   .     S
Cu1007 N1025   2.017   .     S
Cu1007 O1027   1.961   .     S
Cu1007 O1034   1.953   .     S
Cu1007 O1038   1.941   .     S
Cu1008 N1026   2.017   .     S
Cu1008 O1033   1.964   .     S
Cu1008 O1039   1.953   .     S
Cu1008 O1035   1.941   .     S
Cu1008 O1037   1.961   .     S
F1011  C407    1.357   1_556 S
H1016  O1032   1.013   .     S
H1023  O1028   1.014   .     S
H1024  O1160   1.014   1_455 S
O1030  H1089   1.014   .     S
C1041  O1092   1.293   .     A
C1041  C1049   1.448   .     S
C1041  O1098   1.292   .     A
C1042  C1044   1.474   .     S
C1042  C1063   1.426   .     A
C1042  C1059   1.406   .     A
C1043  C1049   1.403   .     A
C1043  F1079   1.359   .     S
C1043  C655    1.384   1_565 S
C1044  O1100   1.298   .     A
C1044  O1099   1.298   .     A
C1045  F1074   1.358   .     S
C1045  C1046   1.405   .     A
C1046  C1047   1.399   .     A
C1046  C1055   1.448   .     S
C1047  H1082   1.083   .     S
C1048  H1083   1.084   .     S
C1048  C1049   1.401   .     A
C1048  C657    1.384   1_565 S
C1050  N1091   1.371   .     A
C1050  F1075   1.355   .     S
C1050  C1116   1.418   .     S
C1051  H1084   1.082   .     S
C1051  N1090   1.366   .     A
C1052  C1063   1.419   .     A
C1052  C476    1.426   1_556 S
C1052  C481    1.419   1_556 S
C1053  C1062   1.468   .     S
C1053  N1090   1.384   .     A
C1054  H1085   1.083   .     S
C1054  N1091   1.356   .     A
C1054  C1118   1.413   .     S
C1055  O1101   1.295   .     A
C1055  O1102   1.290   .     A
C1056  O1104   1.296   .     A
C1056  O1103   1.298   .     A
C1056  C1058   1.466   .     S
C1057  C1071   1.393   .     A
C1058  C1070   1.392   .     A
C1058  C1071   1.396   .     A
C1059  C1060   1.382   .     A
C1059  F1077   1.358   .     S
C1060  H1087   1.083   .     S
C1060  C476    1.387   1_556 S
C1061  F1078   1.356   .     S
C1062  O1105   1.222   .     D
C1062  O1093   1.395   .     S
C1063  C1069   1.426   .     A
C1064  O1095   1.397   .     S
C1064  C1068   1.482   .     S
C1064  O1094   1.223   .     D
C1065  O1096   1.220   .     D
C1065  O1097   1.399   .     S
C1065  C1069   1.501   .     S
C1066  C1070   1.400   .     A
C1067  C1068   1.415   .     A
C1067  C472    1.421   1_556 S
C1067  C481    1.422   1_556 S
C1068  C1069   1.415   .     A
C1070  H1086   1.075   .     S
C1071  H1080   1.083   .     S
Cu1072 O1101   1.964   .     S
Cu1072 Cu1073  2.684   .     S
Cu1072 N1090   2.017   .     S
Cu1072 O1092   1.961   .     S
Cu1072 O1099   1.953   .     S
Cu1072 O1103   1.941   .     S
Cu1073 N1091   2.017   .     S
Cu1073 O1098   1.964   .     S
Cu1073 O1104   1.953   .     S
Cu1073 O1100   1.941   .     S
Cu1073 O1102   1.961   .     S
F1076  C472    1.357   1_556 S
H1081  O1097   1.013   .     S
H1088  O1093   1.014   .     S
O1095  H1154   1.014   .     S
C1106  O1157   1.293   .     A
C1106  C1114   1.448   .     S
C1106  O1163   1.292   .     A
C1107  C1109   1.474   .     S
C1107  C1128   1.426   .     A
C1107  C1124   1.406   .     A
C1108  C1114   1.403   .     A
C1108  F1144   1.359   .     S
C1108  C720    1.384   1_565 S
C1109  O1165   1.298   .     A
C1109  O1164   1.298   .     A
C1110  F1139   1.358   .     S
C1110  C1111   1.405   .     A
C1111  C1112   1.399   .     A
C1111  C1120   1.448   .     S
C1112  H1147   1.083   .     S
C1113  H1148   1.084   .     S
C1113  C1114   1.401   .     A
C1113  C722    1.384   1_565 S
C1115  N1156   1.371   .     A
C1115  F1140   1.355   .     S
C1115  C986    1.418   1_655 S
C1116  H1149   1.082   .     S
C1116  N1155   1.366   .     A
C1117  C1128   1.419   .     A
C1117  C541    1.426   1_556 S
C1117  C546    1.419   1_556 S
C1118  C1127   1.468   .     S
C1118  N1155   1.384   .     A
C1119  H1150   1.083   .     S
C1119  N1156   1.356   .     A
C1119  C988    1.413   1_655 S
C1120  O1166   1.295   .     A
C1120  O1167   1.290   .     A
C1121  O1169   1.296   .     A
C1121  O1168   1.298   .     A
C1121  C1123   1.466   .     S
C1122  C1136   1.393   .     A
C1123  C1135   1.392   .     A
C1123  C1136   1.396   .     A
C1124  C1125   1.382   .     A
C1124  F1142   1.358   .     S
C1125  H1152   1.083   .     S
C1125  C541    1.387   1_556 S
C1126  F1143   1.356   .     S
C1127  O1170   1.222   .     D
C1127  O1158   1.395   .     S
C1128  C1134   1.426   .     A
C1129  O1160   1.397   .     S
C1129  C1133   1.482   .     S
C1129  O1159   1.223   .     D
C1130  O1161   1.220   .     D
C1130  O1162   1.399   .     S
C1130  C1134   1.501   .     S
C1131  C1135   1.400   .     A
C1132  C1133   1.415   .     A
C1132  C537    1.421   1_556 S
C1132  C546    1.422   1_556 S
C1133  C1134   1.415   .     A
C1135  H1151   1.075   .     S
C1136  H1145   1.083   .     S
Cu1137 O1166   1.964   .     S
Cu1137 Cu1138  2.684   .     S
Cu1137 N1155   2.017   .     S
Cu1137 O1157   1.961   .     S
Cu1137 O1164   1.953   .     S
Cu1137 O1168   1.941   .     S
Cu1138 N1156   2.017   .     S
Cu1138 O1163   1.964   .     S
Cu1138 O1169   1.953   .     S
Cu1138 O1165   1.941   .     S
Cu1138 O1167   1.961   .     S
F1141  C537    1.357   1_556 S
H1146  O1162   1.013   .     S
H1153  O1158   1.014   .     S
O1160  H1024   1.014   1_655 S
