data_str_m2_o1_o2_pcu_sym.88
_audit_creation_date              2020-01-03
_audit_creation_method            'Materials Studio'
_symmetry_space_group_name_H-M    'P1'
_symmetry_Int_Tables_number       1
_symmetry_cell_setting            triclinic
loop_
_symmetry_equiv_pos_as_xyz
  x,y,z
_cell_length_a                    32.7517
_cell_length_b                    28.8754
_cell_length_c                    30.3779
_cell_angle_alpha                 91.1718
_cell_angle_beta                  93.4552
_cell_angle_gamma                 91.0439
loop_
_atom_site_label
_atom_site_type_symbol
_atom_site_fract_x
_atom_site_fract_y
_atom_site_fract_z
_atom_site_U_iso_or_equiv
_atom_site_adp_type
_atom_site_occupancy
O1     O     0.10655   0.20625   0.25000   0.00000  Uiso   1.00
O2     O     0.22679   0.12709   0.25000   0.00000  Uiso   1.00
O3     O     0.22679   0.20625   0.25000   0.00000  Uiso   1.00
O4     O     0.10655   0.12709   0.25000   0.00000  Uiso   1.00
N5     N     0.16667   0.28402   0.25000   0.00000  Uiso   1.00
N6     N     0.16667   0.04931   0.25000   0.00000  Uiso   1.00
C7     C     0.08753   0.16612   0.25084   0.00000  Uiso   1.00
C8     C     0.24585   0.16703   0.24985   0.00000  Uiso   1.00
O9     O     0.16666   0.20626   0.18573   0.00000  Uiso   1.00
O10    O     0.16667   0.12707   0.31427   0.00000  Uiso   1.00
O11    O     0.16667   0.20626   0.31427   0.00000  Uiso   1.00
O12    O     0.16666   0.12707   0.18573   0.00000  Uiso   1.00
C13    C     0.16688   0.16630   0.16528   0.00000  Uiso   1.00
C14    C     0.16464   0.16703   0.33499   0.00000  Uiso   1.00
Cu15   Cu    0.16667   0.21355   0.25000   0.00000  Uiso   1.00
Cu16   Cu    0.16667   0.11978   0.25000   0.00000  Uiso   1.00
C17    C     0.14599   0.02333   0.21698   0.00000  Uiso   1.00
C18    C     0.18818   0.31013   0.28238   0.00000  Uiso   1.00
C19    C     0.18781   0.02560   0.28270   0.00000  Uiso   1.00
C20    C     0.14572   0.30777   0.21711   0.00000  Uiso   1.00
C21    C     0.01942   0.12670   0.23451   0.00000  Uiso   1.00
C22    C     0.31405   0.20491   0.26819   0.00000  Uiso   1.00
C23    C     0.31014   0.12862   0.23151   0.00000  Uiso   1.00
C24    C     0.02330   0.20326   0.27071   0.00000  Uiso   1.00
C25    C     0.19754   0.18700   0.04976   0.00000  Uiso   1.00
C26    C     0.15406   0.12408   0.45103   0.00000  Uiso   1.00
C27    C     0.17229   0.20538   0.45568   0.00000  Uiso   1.00
C28    C     0.13561   0.13973   0.04621   0.00000  Uiso   1.00
H29    H     0.22178   0.20431   0.03329   0.00000  Uiso   1.00
H30    H     0.14709   0.09195   0.46706   0.00000  Uiso   1.00
H31    H     0.17854   0.23678   0.47528   0.00000  Uiso   1.00
H32    H     0.11059   0.12257   0.02699   0.00000  Uiso   1.00
C33    C     0.19816   0.18869   0.09574   0.00000  Uiso   1.00
C34    C     0.15074   0.12561   0.40502   0.00000  Uiso   1.00
C35    C     0.16993   0.20796   0.40987   0.00000  Uiso   1.00
C36    C     0.13499   0.14151   0.09211   0.00000  Uiso   1.00
C37    C     0.16683   0.16539   0.11719   0.00000  Uiso   1.00
C38    C     0.16097   0.16731   0.38356   0.00000  Uiso   1.00
C39    C     0.16654   0.16262   0.02488   0.00000  Uiso   1.00
C40    C     0.16507   0.16367   0.47644   0.00000  Uiso   1.00
C41    C     0.29054   0.16748   0.24891   0.00000  Uiso   1.00
C42    C     0.04291   0.16486   0.25265   0.00000  Uiso   1.00
O43    O     0.12409   0.04343   0.18271   0.00000  Uiso   1.00
H44    H     0.11488   0.07350   0.19335   0.00000  Uiso   1.00
O45    O     0.21231   0.29048   0.31512   0.00000  Uiso   1.00
H46    H     0.21794   0.25871   0.30605   0.00000  Uiso   1.00
O47    O     0.21004   0.04787   0.31697   0.00000  Uiso   1.00
H48    H     0.22130   0.07684   0.30606   0.00000  Uiso   1.00
O49    O     0.12357   0.28548   0.18281   0.00000  Uiso   1.00
H50    H     0.11197   0.25674   0.19388   0.00000  Uiso   1.00
N51    N     0.23083   0.21396   0.11982   0.00000  Uiso   1.00
O52    O     0.24920   0.19649   0.15459   0.00000  Uiso   1.00
O53    O     0.24613   0.25138   0.10358   0.00000  Uiso   1.00
N54    N     0.13466   0.08526   0.38101   0.00000  Uiso   1.00
O55    O     0.10319   0.08888   0.35309   0.00000  Uiso   1.00
O56    O     0.14605   0.04423   0.39300   0.00000  Uiso   1.00
N57    N     0.17520   0.25269   0.39135   0.00000  Uiso   1.00
O58    O     0.14400   0.27175   0.37088   0.00000  Uiso   1.00
O59    O     0.20593   0.27906   0.40600   0.00000  Uiso   1.00
N60    N     0.10036   0.12190   0.11245   0.00000  Uiso   1.00
O61    O     0.08221   0.08456   0.09564   0.00000  Uiso   1.00
O62    O     0.08275   0.14543   0.14274   0.00000  Uiso   1.00
N63    N     0.03826   0.08558   0.21886   0.00000  Uiso   1.00
O64    O     0.05151   0.05541   0.24731   0.00000  Uiso   1.00
O65    O     0.03234   0.07281   0.17762   0.00000  Uiso   1.00
N66    N     0.29510   0.24386   0.28773   0.00000  Uiso   1.00
O67    O     0.28606   0.27936   0.26358   0.00000  Uiso   1.00
O68    O     0.29615   0.24837   0.33049   0.00000  Uiso   1.00
N69    N     0.28704   0.09082   0.21019   0.00000  Uiso   1.00
O70    O     0.26474   0.09753   0.17405   0.00000  Uiso   1.00
O71    O     0.28937   0.04935   0.22599   0.00000  Uiso   1.00
N72    N     0.04643   0.23953   0.29441   0.00000  Uiso   1.00
O73    O     0.06922   0.22991   0.32946   0.00000  Uiso   1.00
O74    O     0.04322   0.28235   0.28237   0.00000  Uiso   1.00
O75    O     0.43988   0.20625   0.25000   0.00000  Uiso   1.00
O76    O     0.56012   0.12709   0.25000   0.00000  Uiso   1.00
O77    O     0.56012   0.20625   0.25000   0.00000  Uiso   1.00
O78    O     0.43988   0.12709   0.25000   0.00000  Uiso   1.00
N79    N     0.50000   0.28402   0.25000   0.00000  Uiso   1.00
N80    N     0.50000   0.04931   0.25000   0.00000  Uiso   1.00
C81    C     0.42086   0.16612   0.25084   0.00000  Uiso   1.00
C82    C     0.57918   0.16703   0.24985   0.00000  Uiso   1.00
O83    O     0.50000   0.20626   0.18573   0.00000  Uiso   1.00
O84    O     0.50000   0.12707   0.31427   0.00000  Uiso   1.00
O85    O     0.50000   0.20626   0.31427   0.00000  Uiso   1.00
O86    O     0.50000   0.12707   0.18573   0.00000  Uiso   1.00
C87    C     0.50021   0.16630   0.16528   0.00000  Uiso   1.00
C88    C     0.49797   0.16703   0.33499   0.00000  Uiso   1.00
Cu89   Cu    0.50000   0.21355   0.25000   0.00000  Uiso   1.00
Cu90   Cu    0.50000   0.11978   0.25000   0.00000  Uiso   1.00
C91    C     0.47932   0.02333   0.21698   0.00000  Uiso   1.00
C92    C     0.52151   0.31013   0.28238   0.00000  Uiso   1.00
C93    C     0.52114   0.02560   0.28270   0.00000  Uiso   1.00
C94    C     0.47905   0.30777   0.21711   0.00000  Uiso   1.00
C95    C     0.35275   0.12670   0.23451   0.00000  Uiso   1.00
C96    C     0.64738   0.20491   0.26819   0.00000  Uiso   1.00
C97    C     0.64348   0.12862   0.23151   0.00000  Uiso   1.00
C98    C     0.35664   0.20326   0.27071   0.00000  Uiso   1.00
C99    C     0.53087   0.18700   0.04976   0.00000  Uiso   1.00
C100   C     0.48739   0.12408   0.45103   0.00000  Uiso   1.00
C101   C     0.50562   0.20538   0.45568   0.00000  Uiso   1.00
C102   C     0.46894   0.13973   0.04621   0.00000  Uiso   1.00
H103   H     0.55511   0.20431   0.03329   0.00000  Uiso   1.00
H104   H     0.48042   0.09195   0.46706   0.00000  Uiso   1.00
H105   H     0.51187   0.23678   0.47528   0.00000  Uiso   1.00
H106   H     0.44392   0.12257   0.02699   0.00000  Uiso   1.00
C107   C     0.53149   0.18869   0.09574   0.00000  Uiso   1.00
C108   C     0.48408   0.12561   0.40502   0.00000  Uiso   1.00
C109   C     0.50327   0.20796   0.40987   0.00000  Uiso   1.00
C110   C     0.46832   0.14151   0.09211   0.00000  Uiso   1.00
C111   C     0.50016   0.16539   0.11719   0.00000  Uiso   1.00
C112   C     0.49430   0.16731   0.38356   0.00000  Uiso   1.00
C113   C     0.49987   0.16262   0.02488   0.00000  Uiso   1.00
C114   C     0.49840   0.16367   0.47644   0.00000  Uiso   1.00
C115   C     0.62387   0.16748   0.24891   0.00000  Uiso   1.00
C116   C     0.37624   0.16486   0.25265   0.00000  Uiso   1.00
O117   O     0.45743   0.04343   0.18271   0.00000  Uiso   1.00
H118   H     0.44821   0.07350   0.19335   0.00000  Uiso   1.00
O119   O     0.54565   0.29048   0.31512   0.00000  Uiso   1.00
H120   H     0.55127   0.25871   0.30605   0.00000  Uiso   1.00
O121   O     0.54337   0.04787   0.31697   0.00000  Uiso   1.00
H122   H     0.55463   0.07684   0.30606   0.00000  Uiso   1.00
O123   O     0.45690   0.28548   0.18281   0.00000  Uiso   1.00
H124   H     0.44530   0.25674   0.19388   0.00000  Uiso   1.00
N125   N     0.56416   0.21396   0.11982   0.00000  Uiso   1.00
O126   O     0.58253   0.19649   0.15459   0.00000  Uiso   1.00
O127   O     0.57946   0.25138   0.10358   0.00000  Uiso   1.00
N128   N     0.46799   0.08526   0.38101   0.00000  Uiso   1.00
O129   O     0.43653   0.08888   0.35309   0.00000  Uiso   1.00
O130   O     0.47938   0.04423   0.39300   0.00000  Uiso   1.00
N131   N     0.50854   0.25269   0.39135   0.00000  Uiso   1.00
O132   O     0.47733   0.27175   0.37088   0.00000  Uiso   1.00
O133   O     0.53926   0.27906   0.40600   0.00000  Uiso   1.00
N134   N     0.43370   0.12190   0.11245   0.00000  Uiso   1.00
O135   O     0.41554   0.08456   0.09564   0.00000  Uiso   1.00
O136   O     0.41608   0.14543   0.14274   0.00000  Uiso   1.00
N137   N     0.37159   0.08558   0.21886   0.00000  Uiso   1.00
O138   O     0.38484   0.05541   0.24731   0.00000  Uiso   1.00
O139   O     0.36568   0.07281   0.17762   0.00000  Uiso   1.00
N140   N     0.62843   0.24386   0.28773   0.00000  Uiso   1.00
O141   O     0.61939   0.27936   0.26358   0.00000  Uiso   1.00
O142   O     0.62948   0.24837   0.33049   0.00000  Uiso   1.00
N143   N     0.62037   0.09082   0.21019   0.00000  Uiso   1.00
O144   O     0.59808   0.09753   0.17405   0.00000  Uiso   1.00
O145   O     0.62271   0.04935   0.22599   0.00000  Uiso   1.00
N146   N     0.37976   0.23953   0.29441   0.00000  Uiso   1.00
O147   O     0.40255   0.22991   0.32946   0.00000  Uiso   1.00
O148   O     0.37655   0.28235   0.28237   0.00000  Uiso   1.00
O149   O     0.77321   0.20625   0.25000   0.00000  Uiso   1.00
O150   O     0.89345   0.12709   0.25000   0.00000  Uiso   1.00
O151   O     0.89345   0.20625   0.25000   0.00000  Uiso   1.00
O152   O     0.77321   0.12709   0.25000   0.00000  Uiso   1.00
N153   N     0.83333   0.28402   0.25000   0.00000  Uiso   1.00
N154   N     0.83333   0.04931   0.25000   0.00000  Uiso   1.00
C155   C     0.75419   0.16612   0.25084   0.00000  Uiso   1.00
C156   C     0.91252   0.16703   0.24985   0.00000  Uiso   1.00
O157   O     0.83333   0.20626   0.18573   0.00000  Uiso   1.00
O158   O     0.83334   0.12707   0.31427   0.00000  Uiso   1.00
O159   O     0.83334   0.20626   0.31427   0.00000  Uiso   1.00
O160   O     0.83333   0.12707   0.18573   0.00000  Uiso   1.00
C161   C     0.83355   0.16630   0.16528   0.00000  Uiso   1.00
C162   C     0.83130   0.16703   0.33499   0.00000  Uiso   1.00
Cu163  Cu    0.83333   0.21355   0.25000   0.00000  Uiso   1.00
Cu164  Cu    0.83333   0.11978   0.25000   0.00000  Uiso   1.00
C165   C     0.81265   0.02333   0.21698   0.00000  Uiso   1.00
C166   C     0.85484   0.31013   0.28238   0.00000  Uiso   1.00
C167   C     0.85447   0.02560   0.28270   0.00000  Uiso   1.00
C168   C     0.81239   0.30777   0.21711   0.00000  Uiso   1.00
C169   C     0.68608   0.12670   0.23451   0.00000  Uiso   1.00
C170   C     0.98071   0.20491   0.26819   0.00000  Uiso   1.00
C171   C     0.97681   0.12862   0.23151   0.00000  Uiso   1.00
C172   C     0.68997   0.20326   0.27071   0.00000  Uiso   1.00
C173   C     0.86420   0.18700   0.04976   0.00000  Uiso   1.00
C174   C     0.82072   0.12408   0.45103   0.00000  Uiso   1.00
C175   C     0.83895   0.20538   0.45568   0.00000  Uiso   1.00
C176   C     0.80228   0.13973   0.04621   0.00000  Uiso   1.00
H177   H     0.88844   0.20431   0.03329   0.00000  Uiso   1.00
H178   H     0.81376   0.09195   0.46706   0.00000  Uiso   1.00
H179   H     0.84521   0.23678   0.47528   0.00000  Uiso   1.00
H180   H     0.77725   0.12257   0.02699   0.00000  Uiso   1.00
C181   C     0.86482   0.18869   0.09574   0.00000  Uiso   1.00
C182   C     0.81741   0.12561   0.40502   0.00000  Uiso   1.00
C183   C     0.83660   0.20796   0.40987   0.00000  Uiso   1.00
C184   C     0.80165   0.14151   0.09211   0.00000  Uiso   1.00
C185   C     0.83349   0.16539   0.11719   0.00000  Uiso   1.00
C186   C     0.82764   0.16731   0.38356   0.00000  Uiso   1.00
C187   C     0.83320   0.16262   0.02488   0.00000  Uiso   1.00
C188   C     0.83173   0.16367   0.47644   0.00000  Uiso   1.00
C189   C     0.95720   0.16748   0.24891   0.00000  Uiso   1.00
C190   C     0.70957   0.16486   0.25265   0.00000  Uiso   1.00
O191   O     0.79076   0.04343   0.18271   0.00000  Uiso   1.00
H192   H     0.78154   0.07350   0.19335   0.00000  Uiso   1.00
O193   O     0.87898   0.29048   0.31512   0.00000  Uiso   1.00
H194   H     0.88461   0.25871   0.30605   0.00000  Uiso   1.00
O195   O     0.87670   0.04787   0.31697   0.00000  Uiso   1.00
H196   H     0.88797   0.07684   0.30606   0.00000  Uiso   1.00
O197   O     0.79023   0.28548   0.18281   0.00000  Uiso   1.00
H198   H     0.77864   0.25674   0.19388   0.00000  Uiso   1.00
N199   N     0.89749   0.21396   0.11982   0.00000  Uiso   1.00
O200   O     0.91586   0.19649   0.15459   0.00000  Uiso   1.00
O201   O     0.91279   0.25138   0.10358   0.00000  Uiso   1.00
N202   N     0.80133   0.08526   0.38101   0.00000  Uiso   1.00
O203   O     0.76986   0.08888   0.35309   0.00000  Uiso   1.00
O204   O     0.81271   0.04423   0.39300   0.00000  Uiso   1.00
N205   N     0.84187   0.25269   0.39135   0.00000  Uiso   1.00
O206   O     0.81066   0.27175   0.37088   0.00000  Uiso   1.00
O207   O     0.87259   0.27906   0.40600   0.00000  Uiso   1.00
N208   N     0.76703   0.12190   0.11245   0.00000  Uiso   1.00
O209   O     0.74887   0.08456   0.09564   0.00000  Uiso   1.00
O210   O     0.74941   0.14543   0.14274   0.00000  Uiso   1.00
N211   N     0.70493   0.08558   0.21886   0.00000  Uiso   1.00
O212   O     0.71818   0.05541   0.24731   0.00000  Uiso   1.00
O213   O     0.69901   0.07281   0.17762   0.00000  Uiso   1.00
N214   N     0.96177   0.24386   0.28773   0.00000  Uiso   1.00
O215   O     0.95273   0.27936   0.26358   0.00000  Uiso   1.00
O216   O     0.96281   0.24837   0.33049   0.00000  Uiso   1.00
N217   N     0.95370   0.09082   0.21019   0.00000  Uiso   1.00
O218   O     0.93141   0.09753   0.17405   0.00000  Uiso   1.00
O219   O     0.95604   0.04935   0.22599   0.00000  Uiso   1.00
N220   N     0.71309   0.23953   0.29441   0.00000  Uiso   1.00
O221   O     0.73589   0.22991   0.32946   0.00000  Uiso   1.00
O222   O     0.70989   0.28235   0.28237   0.00000  Uiso   1.00
O223   O     0.10655   0.53958   0.25000   0.00000  Uiso   1.00
O224   O     0.22679   0.46042   0.25000   0.00000  Uiso   1.00
O225   O     0.22679   0.53958   0.25000   0.00000  Uiso   1.00
O226   O     0.10655   0.46042   0.25000   0.00000  Uiso   1.00
N227   N     0.16667   0.61736   0.25000   0.00000  Uiso   1.00
N228   N     0.16667   0.38264   0.25000   0.00000  Uiso   1.00
C229   C     0.08753   0.49946   0.25084   0.00000  Uiso   1.00
C230   C     0.24585   0.50037   0.24985   0.00000  Uiso   1.00
O231   O     0.16666   0.53959   0.18573   0.00000  Uiso   1.00
O232   O     0.16667   0.46041   0.31427   0.00000  Uiso   1.00
O233   O     0.16667   0.53959   0.31427   0.00000  Uiso   1.00
O234   O     0.16666   0.46041   0.18573   0.00000  Uiso   1.00
C235   C     0.16688   0.49963   0.16528   0.00000  Uiso   1.00
C236   C     0.16464   0.50037   0.33499   0.00000  Uiso   1.00
Cu237  Cu    0.16667   0.54689   0.25000   0.00000  Uiso   1.00
Cu238  Cu    0.16667   0.45311   0.25000   0.00000  Uiso   1.00
C239   C     0.14599   0.35667   0.21698   0.00000  Uiso   1.00
C240   C     0.18818   0.64346   0.28238   0.00000  Uiso   1.00
C241   C     0.18781   0.35894   0.28270   0.00000  Uiso   1.00
C242   C     0.14572   0.64111   0.21711   0.00000  Uiso   1.00
C243   C     0.01942   0.46004   0.23451   0.00000  Uiso   1.00
C244   C     0.31405   0.53824   0.26819   0.00000  Uiso   1.00
C245   C     0.31014   0.46195   0.23151   0.00000  Uiso   1.00
C246   C     0.02330   0.53659   0.27071   0.00000  Uiso   1.00
C247   C     0.19754   0.52033   0.04976   0.00000  Uiso   1.00
C248   C     0.15406   0.45741   0.45103   0.00000  Uiso   1.00
C249   C     0.17229   0.53872   0.45568   0.00000  Uiso   1.00
C250   C     0.13561   0.47306   0.04621   0.00000  Uiso   1.00
H251   H     0.22178   0.53764   0.03329   0.00000  Uiso   1.00
H252   H     0.14709   0.42529   0.46706   0.00000  Uiso   1.00
H253   H     0.17854   0.57012   0.47528   0.00000  Uiso   1.00
H254   H     0.11059   0.45591   0.02699   0.00000  Uiso   1.00
C255   C     0.19816   0.52202   0.09574   0.00000  Uiso   1.00
C256   C     0.15074   0.45894   0.40502   0.00000  Uiso   1.00
C257   C     0.16993   0.54129   0.40987   0.00000  Uiso   1.00
C258   C     0.13499   0.47484   0.09211   0.00000  Uiso   1.00
C259   C     0.16683   0.49872   0.11719   0.00000  Uiso   1.00
C260   C     0.16097   0.50064   0.38356   0.00000  Uiso   1.00
C261   C     0.16654   0.49596   0.02488   0.00000  Uiso   1.00
C262   C     0.16507   0.49700   0.47644   0.00000  Uiso   1.00
C263   C     0.29054   0.50082   0.24891   0.00000  Uiso   1.00
C264   C     0.04291   0.49820   0.25265   0.00000  Uiso   1.00
O265   O     0.12409   0.37676   0.18271   0.00000  Uiso   1.00
H266   H     0.11488   0.40683   0.19335   0.00000  Uiso   1.00
O267   O     0.21231   0.62381   0.31512   0.00000  Uiso   1.00
H268   H     0.21794   0.59204   0.30605   0.00000  Uiso   1.00
O269   O     0.21004   0.38121   0.31697   0.00000  Uiso   1.00
H270   H     0.22130   0.41017   0.30606   0.00000  Uiso   1.00
O271   O     0.12357   0.61881   0.18281   0.00000  Uiso   1.00
H272   H     0.11197   0.59007   0.19388   0.00000  Uiso   1.00
N273   N     0.23083   0.54729   0.11982   0.00000  Uiso   1.00
O274   O     0.24920   0.52982   0.15459   0.00000  Uiso   1.00
O275   O     0.24613   0.58471   0.10358   0.00000  Uiso   1.00
N276   N     0.13466   0.41859   0.38101   0.00000  Uiso   1.00
O277   O     0.10319   0.42222   0.35309   0.00000  Uiso   1.00
O278   O     0.14605   0.37756   0.39300   0.00000  Uiso   1.00
N279   N     0.17520   0.58603   0.39135   0.00000  Uiso   1.00
O280   O     0.14400   0.60509   0.37088   0.00000  Uiso   1.00
O281   O     0.20593   0.61239   0.40600   0.00000  Uiso   1.00
N282   N     0.10036   0.45524   0.11245   0.00000  Uiso   1.00
O283   O     0.08221   0.41789   0.09564   0.00000  Uiso   1.00
O284   O     0.08275   0.47876   0.14274   0.00000  Uiso   1.00
N285   N     0.03826   0.41892   0.21886   0.00000  Uiso   1.00
O286   O     0.05151   0.38875   0.24731   0.00000  Uiso   1.00
O287   O     0.03234   0.40615   0.17762   0.00000  Uiso   1.00
N288   N     0.29510   0.57719   0.28773   0.00000  Uiso   1.00
O289   O     0.28606   0.61270   0.26358   0.00000  Uiso   1.00
O290   O     0.29615   0.58170   0.33049   0.00000  Uiso   1.00
N291   N     0.28704   0.42415   0.21019   0.00000  Uiso   1.00
O292   O     0.26474   0.43086   0.17405   0.00000  Uiso   1.00
O293   O     0.28937   0.38268   0.22599   0.00000  Uiso   1.00
N294   N     0.04643   0.57286   0.29441   0.00000  Uiso   1.00
O295   O     0.06922   0.56324   0.32946   0.00000  Uiso   1.00
O296   O     0.04322   0.61569   0.28237   0.00000  Uiso   1.00
O297   O     0.43988   0.53958   0.25000   0.00000  Uiso   1.00
O298   O     0.56012   0.46042   0.25000   0.00000  Uiso   1.00
O299   O     0.56012   0.53958   0.25000   0.00000  Uiso   1.00
O300   O     0.43988   0.46042   0.25000   0.00000  Uiso   1.00
N301   N     0.50000   0.61736   0.25000   0.00000  Uiso   1.00
N302   N     0.50000   0.38264   0.25000   0.00000  Uiso   1.00
C303   C     0.42086   0.49946   0.25084   0.00000  Uiso   1.00
C304   C     0.57918   0.50037   0.24985   0.00000  Uiso   1.00
O305   O     0.50000   0.53959   0.18573   0.00000  Uiso   1.00
O306   O     0.50000   0.46041   0.31427   0.00000  Uiso   1.00
O307   O     0.50000   0.53959   0.31427   0.00000  Uiso   1.00
O308   O     0.50000   0.46041   0.18573   0.00000  Uiso   1.00
C309   C     0.50021   0.49963   0.16528   0.00000  Uiso   1.00
C310   C     0.49797   0.50037   0.33499   0.00000  Uiso   1.00
Cu311  Cu    0.50000   0.54689   0.25000   0.00000  Uiso   1.00
Cu312  Cu    0.50000   0.45311   0.25000   0.00000  Uiso   1.00
C313   C     0.47932   0.35667   0.21698   0.00000  Uiso   1.00
C314   C     0.52151   0.64346   0.28238   0.00000  Uiso   1.00
C315   C     0.52114   0.35894   0.28270   0.00000  Uiso   1.00
C316   C     0.47905   0.64111   0.21711   0.00000  Uiso   1.00
C317   C     0.35275   0.46004   0.23451   0.00000  Uiso   1.00
C318   C     0.64738   0.53824   0.26819   0.00000  Uiso   1.00
C319   C     0.64348   0.46195   0.23151   0.00000  Uiso   1.00
C320   C     0.35664   0.53659   0.27071   0.00000  Uiso   1.00
C321   C     0.53087   0.52033   0.04976   0.00000  Uiso   1.00
C322   C     0.48739   0.45741   0.45103   0.00000  Uiso   1.00
C323   C     0.50562   0.53872   0.45568   0.00000  Uiso   1.00
C324   C     0.46894   0.47306   0.04621   0.00000  Uiso   1.00
H325   H     0.55511   0.53764   0.03329   0.00000  Uiso   1.00
H326   H     0.48042   0.42529   0.46706   0.00000  Uiso   1.00
H327   H     0.51187   0.57012   0.47528   0.00000  Uiso   1.00
H328   H     0.44392   0.45591   0.02699   0.00000  Uiso   1.00
C329   C     0.53149   0.52202   0.09574   0.00000  Uiso   1.00
C330   C     0.48408   0.45894   0.40502   0.00000  Uiso   1.00
C331   C     0.50327   0.54129   0.40987   0.00000  Uiso   1.00
C332   C     0.46832   0.47484   0.09211   0.00000  Uiso   1.00
C333   C     0.50016   0.49872   0.11719   0.00000  Uiso   1.00
C334   C     0.49430   0.50064   0.38356   0.00000  Uiso   1.00
C335   C     0.49987   0.49596   0.02488   0.00000  Uiso   1.00
C336   C     0.49840   0.49700   0.47644   0.00000  Uiso   1.00
C337   C     0.62387   0.50082   0.24891   0.00000  Uiso   1.00
C338   C     0.37624   0.49820   0.25265   0.00000  Uiso   1.00
O339   O     0.45743   0.37676   0.18271   0.00000  Uiso   1.00
H340   H     0.44821   0.40683   0.19335   0.00000  Uiso   1.00
O341   O     0.54565   0.62381   0.31512   0.00000  Uiso   1.00
H342   H     0.55127   0.59204   0.30605   0.00000  Uiso   1.00
O343   O     0.54337   0.38121   0.31697   0.00000  Uiso   1.00
H344   H     0.55463   0.41017   0.30606   0.00000  Uiso   1.00
O345   O     0.45690   0.61881   0.18281   0.00000  Uiso   1.00
H346   H     0.44530   0.59007   0.19388   0.00000  Uiso   1.00
N347   N     0.56416   0.54729   0.11982   0.00000  Uiso   1.00
O348   O     0.58253   0.52982   0.15459   0.00000  Uiso   1.00
O349   O     0.57946   0.58471   0.10358   0.00000  Uiso   1.00
N350   N     0.46799   0.41859   0.38101   0.00000  Uiso   1.00
O351   O     0.43653   0.42222   0.35309   0.00000  Uiso   1.00
O352   O     0.47938   0.37756   0.39300   0.00000  Uiso   1.00
N353   N     0.50854   0.58603   0.39135   0.00000  Uiso   1.00
O354   O     0.47733   0.60509   0.37088   0.00000  Uiso   1.00
O355   O     0.53926   0.61239   0.40600   0.00000  Uiso   1.00
N356   N     0.43370   0.45524   0.11245   0.00000  Uiso   1.00
O357   O     0.41554   0.41789   0.09564   0.00000  Uiso   1.00
O358   O     0.41608   0.47876   0.14274   0.00000  Uiso   1.00
N359   N     0.37159   0.41892   0.21886   0.00000  Uiso   1.00
O360   O     0.38484   0.38875   0.24731   0.00000  Uiso   1.00
O361   O     0.36568   0.40615   0.17762   0.00000  Uiso   1.00
N362   N     0.62843   0.57719   0.28773   0.00000  Uiso   1.00
O363   O     0.61939   0.61270   0.26358   0.00000  Uiso   1.00
O364   O     0.62948   0.58170   0.33049   0.00000  Uiso   1.00
N365   N     0.62037   0.42415   0.21019   0.00000  Uiso   1.00
O366   O     0.59808   0.43086   0.17405   0.00000  Uiso   1.00
O367   O     0.62271   0.38268   0.22599   0.00000  Uiso   1.00
N368   N     0.37976   0.57286   0.29441   0.00000  Uiso   1.00
O369   O     0.40255   0.56324   0.32946   0.00000  Uiso   1.00
O370   O     0.37655   0.61569   0.28237   0.00000  Uiso   1.00
O371   O     0.77321   0.53958   0.25000   0.00000  Uiso   1.00
O372   O     0.89345   0.46042   0.25000   0.00000  Uiso   1.00
O373   O     0.89345   0.53958   0.25000   0.00000  Uiso   1.00
O374   O     0.77321   0.46042   0.25000   0.00000  Uiso   1.00
N375   N     0.83333   0.61736   0.25000   0.00000  Uiso   1.00
N376   N     0.83333   0.38264   0.25000   0.00000  Uiso   1.00
C377   C     0.75419   0.49946   0.25084   0.00000  Uiso   1.00
C378   C     0.91252   0.50037   0.24985   0.00000  Uiso   1.00
O379   O     0.83333   0.53959   0.18573   0.00000  Uiso   1.00
O380   O     0.83334   0.46041   0.31427   0.00000  Uiso   1.00
O381   O     0.83334   0.53959   0.31427   0.00000  Uiso   1.00
O382   O     0.83333   0.46041   0.18573   0.00000  Uiso   1.00
C383   C     0.83355   0.49963   0.16528   0.00000  Uiso   1.00
C384   C     0.83130   0.50037   0.33499   0.00000  Uiso   1.00
Cu385  Cu    0.83333   0.54689   0.25000   0.00000  Uiso   1.00
Cu386  Cu    0.83333   0.45311   0.25000   0.00000  Uiso   1.00
C387   C     0.81265   0.35667   0.21698   0.00000  Uiso   1.00
C388   C     0.85484   0.64346   0.28238   0.00000  Uiso   1.00
C389   C     0.85447   0.35894   0.28270   0.00000  Uiso   1.00
C390   C     0.81239   0.64111   0.21711   0.00000  Uiso   1.00
C391   C     0.68608   0.46004   0.23451   0.00000  Uiso   1.00
C392   C     0.98071   0.53824   0.26819   0.00000  Uiso   1.00
C393   C     0.97681   0.46195   0.23151   0.00000  Uiso   1.00
C394   C     0.68997   0.53659   0.27071   0.00000  Uiso   1.00
C395   C     0.86420   0.52033   0.04976   0.00000  Uiso   1.00
C396   C     0.82072   0.45741   0.45103   0.00000  Uiso   1.00
C397   C     0.83895   0.53872   0.45568   0.00000  Uiso   1.00
C398   C     0.80228   0.47306   0.04621   0.00000  Uiso   1.00
H399   H     0.88844   0.53764   0.03329   0.00000  Uiso   1.00
H400   H     0.81376   0.42529   0.46706   0.00000  Uiso   1.00
H401   H     0.84521   0.57012   0.47528   0.00000  Uiso   1.00
H402   H     0.77725   0.45591   0.02699   0.00000  Uiso   1.00
C403   C     0.86482   0.52202   0.09574   0.00000  Uiso   1.00
C404   C     0.81741   0.45894   0.40502   0.00000  Uiso   1.00
C405   C     0.83660   0.54129   0.40987   0.00000  Uiso   1.00
C406   C     0.80165   0.47484   0.09211   0.00000  Uiso   1.00
C407   C     0.83349   0.49872   0.11719   0.00000  Uiso   1.00
C408   C     0.82764   0.50064   0.38356   0.00000  Uiso   1.00
C409   C     0.83320   0.49596   0.02488   0.00000  Uiso   1.00
C410   C     0.83173   0.49700   0.47644   0.00000  Uiso   1.00
C411   C     0.95720   0.50082   0.24891   0.00000  Uiso   1.00
C412   C     0.70957   0.49820   0.25265   0.00000  Uiso   1.00
O413   O     0.79076   0.37676   0.18271   0.00000  Uiso   1.00
H414   H     0.78154   0.40683   0.19335   0.00000  Uiso   1.00
O415   O     0.87898   0.62381   0.31512   0.00000  Uiso   1.00
H416   H     0.88461   0.59204   0.30605   0.00000  Uiso   1.00
O417   O     0.87670   0.38121   0.31697   0.00000  Uiso   1.00
H418   H     0.88797   0.41017   0.30606   0.00000  Uiso   1.00
O419   O     0.79023   0.61881   0.18281   0.00000  Uiso   1.00
H420   H     0.77864   0.59007   0.19388   0.00000  Uiso   1.00
N421   N     0.89749   0.54729   0.11982   0.00000  Uiso   1.00
O422   O     0.91586   0.52982   0.15459   0.00000  Uiso   1.00
O423   O     0.91279   0.58471   0.10358   0.00000  Uiso   1.00
N424   N     0.80133   0.41859   0.38101   0.00000  Uiso   1.00
O425   O     0.76986   0.42222   0.35309   0.00000  Uiso   1.00
O426   O     0.81271   0.37756   0.39300   0.00000  Uiso   1.00
N427   N     0.84187   0.58603   0.39135   0.00000  Uiso   1.00
O428   O     0.81066   0.60509   0.37088   0.00000  Uiso   1.00
O429   O     0.87259   0.61239   0.40600   0.00000  Uiso   1.00
N430   N     0.76703   0.45524   0.11245   0.00000  Uiso   1.00
O431   O     0.74887   0.41789   0.09564   0.00000  Uiso   1.00
O432   O     0.74941   0.47876   0.14274   0.00000  Uiso   1.00
N433   N     0.70493   0.41892   0.21886   0.00000  Uiso   1.00
O434   O     0.71818   0.38875   0.24731   0.00000  Uiso   1.00
O435   O     0.69901   0.40615   0.17762   0.00000  Uiso   1.00
N436   N     0.96177   0.57719   0.28773   0.00000  Uiso   1.00
O437   O     0.95273   0.61270   0.26358   0.00000  Uiso   1.00
O438   O     0.96281   0.58170   0.33049   0.00000  Uiso   1.00
N439   N     0.95370   0.42415   0.21019   0.00000  Uiso   1.00
O440   O     0.93141   0.43086   0.17405   0.00000  Uiso   1.00
O441   O     0.95604   0.38268   0.22599   0.00000  Uiso   1.00
N442   N     0.71309   0.57286   0.29441   0.00000  Uiso   1.00
O443   O     0.73589   0.56324   0.32946   0.00000  Uiso   1.00
O444   O     0.70989   0.61569   0.28237   0.00000  Uiso   1.00
O445   O     0.10655   0.87291   0.25000   0.00000  Uiso   1.00
O446   O     0.22679   0.79375   0.25000   0.00000  Uiso   1.00
O447   O     0.22679   0.87291   0.25000   0.00000  Uiso   1.00
O448   O     0.10655   0.79375   0.25000   0.00000  Uiso   1.00
N449   N     0.16667   0.95069   0.25000   0.00000  Uiso   1.00
N450   N     0.16667   0.71598   0.25000   0.00000  Uiso   1.00
C451   C     0.08753   0.83279   0.25084   0.00000  Uiso   1.00
C452   C     0.24585   0.83370   0.24985   0.00000  Uiso   1.00
O453   O     0.16666   0.87293   0.18573   0.00000  Uiso   1.00
O454   O     0.16667   0.79374   0.31427   0.00000  Uiso   1.00
O455   O     0.16667   0.87293   0.31427   0.00000  Uiso   1.00
O456   O     0.16666   0.79374   0.18573   0.00000  Uiso   1.00
C457   C     0.16688   0.83297   0.16528   0.00000  Uiso   1.00
C458   C     0.16464   0.83370   0.33499   0.00000  Uiso   1.00
Cu459  Cu    0.16667   0.88022   0.25000   0.00000  Uiso   1.00
Cu460  Cu    0.16667   0.78645   0.25000   0.00000  Uiso   1.00
C461   C     0.14599   0.69000   0.21698   0.00000  Uiso   1.00
C462   C     0.18818   0.97679   0.28238   0.00000  Uiso   1.00
C463   C     0.18781   0.69227   0.28270   0.00000  Uiso   1.00
C464   C     0.14572   0.97444   0.21711   0.00000  Uiso   1.00
C465   C     0.01942   0.79337   0.23451   0.00000  Uiso   1.00
C466   C     0.31405   0.87157   0.26819   0.00000  Uiso   1.00
C467   C     0.31014   0.79529   0.23151   0.00000  Uiso   1.00
C468   C     0.02330   0.86993   0.27071   0.00000  Uiso   1.00
C469   C     0.19754   0.85367   0.04976   0.00000  Uiso   1.00
C470   C     0.15406   0.79075   0.45103   0.00000  Uiso   1.00
C471   C     0.17229   0.87205   0.45568   0.00000  Uiso   1.00
C472   C     0.13561   0.80639   0.04621   0.00000  Uiso   1.00
H473   H     0.22178   0.87097   0.03329   0.00000  Uiso   1.00
H474   H     0.14709   0.75862   0.46706   0.00000  Uiso   1.00
H475   H     0.17854   0.90345   0.47528   0.00000  Uiso   1.00
H476   H     0.11059   0.78924   0.02699   0.00000  Uiso   1.00
C477   C     0.19816   0.85535   0.09574   0.00000  Uiso   1.00
C478   C     0.15074   0.79228   0.40502   0.00000  Uiso   1.00
C479   C     0.16993   0.87462   0.40987   0.00000  Uiso   1.00
C480   C     0.13499   0.80818   0.09211   0.00000  Uiso   1.00
C481   C     0.16683   0.83205   0.11719   0.00000  Uiso   1.00
C482   C     0.16097   0.83398   0.38356   0.00000  Uiso   1.00
C483   C     0.16654   0.82929   0.02488   0.00000  Uiso   1.00
C484   C     0.16507   0.83034   0.47644   0.00000  Uiso   1.00
C485   C     0.29054   0.83415   0.24891   0.00000  Uiso   1.00
C486   C     0.04291   0.83153   0.25265   0.00000  Uiso   1.00
O487   O     0.12409   0.71009   0.18271   0.00000  Uiso   1.00
H488   H     0.11488   0.74017   0.19335   0.00000  Uiso   1.00
O489   O     0.21231   0.95715   0.31512   0.00000  Uiso   1.00
H490   H     0.21794   0.92537   0.30605   0.00000  Uiso   1.00
O491   O     0.21004   0.71454   0.31697   0.00000  Uiso   1.00
H492   H     0.22130   0.74351   0.30606   0.00000  Uiso   1.00
O493   O     0.12357   0.95215   0.18281   0.00000  Uiso   1.00
H494   H     0.11197   0.92341   0.19388   0.00000  Uiso   1.00
N495   N     0.23083   0.88063   0.11982   0.00000  Uiso   1.00
O496   O     0.24920   0.86315   0.15459   0.00000  Uiso   1.00
O497   O     0.24613   0.91804   0.10358   0.00000  Uiso   1.00
N498   N     0.13466   0.75193   0.38101   0.00000  Uiso   1.00
O499   O     0.10319   0.75555   0.35309   0.00000  Uiso   1.00
O500   O     0.14605   0.71089   0.39300   0.00000  Uiso   1.00
N501   N     0.17520   0.91936   0.39135   0.00000  Uiso   1.00
O502   O     0.14400   0.93842   0.37088   0.00000  Uiso   1.00
O503   O     0.20593   0.94572   0.40600   0.00000  Uiso   1.00
N504   N     0.10036   0.78857   0.11245   0.00000  Uiso   1.00
O505   O     0.08221   0.75122   0.09564   0.00000  Uiso   1.00
O506   O     0.08275   0.81210   0.14274   0.00000  Uiso   1.00
N507   N     0.03826   0.75225   0.21886   0.00000  Uiso   1.00
O508   O     0.05151   0.72208   0.24731   0.00000  Uiso   1.00
O509   O     0.03234   0.73948   0.17762   0.00000  Uiso   1.00
N510   N     0.29510   0.91053   0.28773   0.00000  Uiso   1.00
O511   O     0.28606   0.94603   0.26358   0.00000  Uiso   1.00
O512   O     0.29615   0.91504   0.33049   0.00000  Uiso   1.00
N513   N     0.28704   0.75749   0.21019   0.00000  Uiso   1.00
O514   O     0.26474   0.76419   0.17405   0.00000  Uiso   1.00
O515   O     0.28937   0.71601   0.22599   0.00000  Uiso   1.00
N516   N     0.04643   0.90619   0.29441   0.00000  Uiso   1.00
O517   O     0.06922   0.89657   0.32946   0.00000  Uiso   1.00
O518   O     0.04322   0.94902   0.28237   0.00000  Uiso   1.00
O519   O     0.43988   0.87291   0.25000   0.00000  Uiso   1.00
O520   O     0.56012   0.79375   0.25000   0.00000  Uiso   1.00
O521   O     0.56012   0.87291   0.25000   0.00000  Uiso   1.00
O522   O     0.43988   0.79375   0.25000   0.00000  Uiso   1.00
N523   N     0.50000   0.95069   0.25000   0.00000  Uiso   1.00
N524   N     0.50000   0.71598   0.25000   0.00000  Uiso   1.00
C525   C     0.42086   0.83279   0.25084   0.00000  Uiso   1.00
C526   C     0.57918   0.83370   0.24985   0.00000  Uiso   1.00
O527   O     0.50000   0.87293   0.18573   0.00000  Uiso   1.00
O528   O     0.50000   0.79374   0.31427   0.00000  Uiso   1.00
O529   O     0.50000   0.87293   0.31427   0.00000  Uiso   1.00
O530   O     0.50000   0.79374   0.18573   0.00000  Uiso   1.00
C531   C     0.50021   0.83297   0.16528   0.00000  Uiso   1.00
C532   C     0.49797   0.83370   0.33499   0.00000  Uiso   1.00
Cu533  Cu    0.50000   0.88022   0.25000   0.00000  Uiso   1.00
Cu534  Cu    0.50000   0.78645   0.25000   0.00000  Uiso   1.00
C535   C     0.47932   0.69000   0.21698   0.00000  Uiso   1.00
C536   C     0.52151   0.97679   0.28238   0.00000  Uiso   1.00
C537   C     0.52114   0.69227   0.28270   0.00000  Uiso   1.00
C538   C     0.47905   0.97444   0.21711   0.00000  Uiso   1.00
C539   C     0.35275   0.79337   0.23451   0.00000  Uiso   1.00
C540   C     0.64738   0.87157   0.26819   0.00000  Uiso   1.00
C541   C     0.64348   0.79529   0.23151   0.00000  Uiso   1.00
C542   C     0.35664   0.86993   0.27071   0.00000  Uiso   1.00
C543   C     0.53087   0.85367   0.04976   0.00000  Uiso   1.00
C544   C     0.48739   0.79075   0.45103   0.00000  Uiso   1.00
C545   C     0.50562   0.87205   0.45568   0.00000  Uiso   1.00
C546   C     0.46894   0.80639   0.04621   0.00000  Uiso   1.00
H547   H     0.55511   0.87097   0.03329   0.00000  Uiso   1.00
H548   H     0.48042   0.75862   0.46706   0.00000  Uiso   1.00
H549   H     0.51187   0.90345   0.47528   0.00000  Uiso   1.00
H550   H     0.44392   0.78924   0.02699   0.00000  Uiso   1.00
C551   C     0.53149   0.85535   0.09574   0.00000  Uiso   1.00
C552   C     0.48408   0.79228   0.40502   0.00000  Uiso   1.00
C553   C     0.50327   0.87462   0.40987   0.00000  Uiso   1.00
C554   C     0.46832   0.80818   0.09211   0.00000  Uiso   1.00
C555   C     0.50016   0.83205   0.11719   0.00000  Uiso   1.00
C556   C     0.49430   0.83398   0.38356   0.00000  Uiso   1.00
C557   C     0.49987   0.82929   0.02488   0.00000  Uiso   1.00
C558   C     0.49840   0.83034   0.47644   0.00000  Uiso   1.00
C559   C     0.62387   0.83415   0.24891   0.00000  Uiso   1.00
C560   C     0.37624   0.83153   0.25265   0.00000  Uiso   1.00
O561   O     0.45743   0.71009   0.18271   0.00000  Uiso   1.00
H562   H     0.44821   0.74017   0.19335   0.00000  Uiso   1.00
O563   O     0.54565   0.95715   0.31512   0.00000  Uiso   1.00
H564   H     0.55127   0.92537   0.30605   0.00000  Uiso   1.00
O565   O     0.54337   0.71454   0.31697   0.00000  Uiso   1.00
H566   H     0.55463   0.74351   0.30606   0.00000  Uiso   1.00
O567   O     0.45690   0.95215   0.18281   0.00000  Uiso   1.00
H568   H     0.44530   0.92341   0.19388   0.00000  Uiso   1.00
N569   N     0.56416   0.88063   0.11982   0.00000  Uiso   1.00
O570   O     0.58253   0.86315   0.15459   0.00000  Uiso   1.00
O571   O     0.57946   0.91804   0.10358   0.00000  Uiso   1.00
N572   N     0.46799   0.75193   0.38101   0.00000  Uiso   1.00
O573   O     0.43653   0.75555   0.35309   0.00000  Uiso   1.00
O574   O     0.47938   0.71089   0.39300   0.00000  Uiso   1.00
N575   N     0.50854   0.91936   0.39135   0.00000  Uiso   1.00
O576   O     0.47733   0.93842   0.37088   0.00000  Uiso   1.00
O577   O     0.53926   0.94572   0.40600   0.00000  Uiso   1.00
N578   N     0.43370   0.78857   0.11245   0.00000  Uiso   1.00
O579   O     0.41554   0.75122   0.09564   0.00000  Uiso   1.00
O580   O     0.41608   0.81210   0.14274   0.00000  Uiso   1.00
N581   N     0.37159   0.75225   0.21886   0.00000  Uiso   1.00
O582   O     0.38484   0.72208   0.24731   0.00000  Uiso   1.00
O583   O     0.36568   0.73948   0.17762   0.00000  Uiso   1.00
N584   N     0.62843   0.91053   0.28773   0.00000  Uiso   1.00
O585   O     0.61939   0.94603   0.26358   0.00000  Uiso   1.00
O586   O     0.62948   0.91504   0.33049   0.00000  Uiso   1.00
N587   N     0.62037   0.75749   0.21019   0.00000  Uiso   1.00
O588   O     0.59808   0.76419   0.17405   0.00000  Uiso   1.00
O589   O     0.62271   0.71601   0.22599   0.00000  Uiso   1.00
N590   N     0.37976   0.90619   0.29441   0.00000  Uiso   1.00
O591   O     0.40255   0.89657   0.32946   0.00000  Uiso   1.00
O592   O     0.37655   0.94902   0.28237   0.00000  Uiso   1.00
O593   O     0.77321   0.87291   0.25000   0.00000  Uiso   1.00
O594   O     0.89345   0.79375   0.25000   0.00000  Uiso   1.00
O595   O     0.89345   0.87291   0.25000   0.00000  Uiso   1.00
O596   O     0.77321   0.79375   0.25000   0.00000  Uiso   1.00
N597   N     0.83333   0.95069   0.25000   0.00000  Uiso   1.00
N598   N     0.83333   0.71598   0.25000   0.00000  Uiso   1.00
C599   C     0.75419   0.83279   0.25084   0.00000  Uiso   1.00
C600   C     0.91252   0.83370   0.24985   0.00000  Uiso   1.00
O601   O     0.83333   0.87293   0.18573   0.00000  Uiso   1.00
O602   O     0.83334   0.79374   0.31427   0.00000  Uiso   1.00
O603   O     0.83334   0.87293   0.31427   0.00000  Uiso   1.00
O604   O     0.83333   0.79374   0.18573   0.00000  Uiso   1.00
C605   C     0.83355   0.83297   0.16528   0.00000  Uiso   1.00
C606   C     0.83130   0.83370   0.33499   0.00000  Uiso   1.00
Cu607  Cu    0.83333   0.88022   0.25000   0.00000  Uiso   1.00
Cu608  Cu    0.83333   0.78645   0.25000   0.00000  Uiso   1.00
C609   C     0.81265   0.69000   0.21698   0.00000  Uiso   1.00
C610   C     0.85484   0.97679   0.28238   0.00000  Uiso   1.00
C611   C     0.85447   0.69227   0.28270   0.00000  Uiso   1.00
C612   C     0.81239   0.97444   0.21711   0.00000  Uiso   1.00
C613   C     0.68608   0.79337   0.23451   0.00000  Uiso   1.00
C614   C     0.98071   0.87157   0.26819   0.00000  Uiso   1.00
C615   C     0.97681   0.79529   0.23151   0.00000  Uiso   1.00
C616   C     0.68997   0.86993   0.27071   0.00000  Uiso   1.00
C617   C     0.86420   0.85367   0.04976   0.00000  Uiso   1.00
C618   C     0.82072   0.79075   0.45103   0.00000  Uiso   1.00
C619   C     0.83895   0.87205   0.45568   0.00000  Uiso   1.00
C620   C     0.80228   0.80639   0.04621   0.00000  Uiso   1.00
H621   H     0.88844   0.87097   0.03329   0.00000  Uiso   1.00
H622   H     0.81376   0.75862   0.46706   0.00000  Uiso   1.00
H623   H     0.84521   0.90345   0.47528   0.00000  Uiso   1.00
H624   H     0.77725   0.78924   0.02699   0.00000  Uiso   1.00
C625   C     0.86482   0.85535   0.09574   0.00000  Uiso   1.00
C626   C     0.81741   0.79228   0.40502   0.00000  Uiso   1.00
C627   C     0.83660   0.87462   0.40987   0.00000  Uiso   1.00
C628   C     0.80165   0.80818   0.09211   0.00000  Uiso   1.00
C629   C     0.83349   0.83205   0.11719   0.00000  Uiso   1.00
C630   C     0.82764   0.83398   0.38356   0.00000  Uiso   1.00
C631   C     0.83320   0.82929   0.02488   0.00000  Uiso   1.00
C632   C     0.83173   0.83034   0.47644   0.00000  Uiso   1.00
C633   C     0.95720   0.83415   0.24891   0.00000  Uiso   1.00
C634   C     0.70957   0.83153   0.25265   0.00000  Uiso   1.00
O635   O     0.79076   0.71009   0.18271   0.00000  Uiso   1.00
H636   H     0.78154   0.74017   0.19335   0.00000  Uiso   1.00
O637   O     0.87898   0.95715   0.31512   0.00000  Uiso   1.00
H638   H     0.88461   0.92537   0.30605   0.00000  Uiso   1.00
O639   O     0.87670   0.71454   0.31697   0.00000  Uiso   1.00
H640   H     0.88797   0.74351   0.30606   0.00000  Uiso   1.00
O641   O     0.79023   0.95215   0.18281   0.00000  Uiso   1.00
H642   H     0.77864   0.92341   0.19388   0.00000  Uiso   1.00
N643   N     0.89749   0.88063   0.11982   0.00000  Uiso   1.00
O644   O     0.91586   0.86315   0.15459   0.00000  Uiso   1.00
O645   O     0.91279   0.91804   0.10358   0.00000  Uiso   1.00
N646   N     0.80133   0.75193   0.38101   0.00000  Uiso   1.00
O647   O     0.76986   0.75555   0.35309   0.00000  Uiso   1.00
O648   O     0.81271   0.71089   0.39300   0.00000  Uiso   1.00
N649   N     0.84187   0.91936   0.39135   0.00000  Uiso   1.00
O650   O     0.81066   0.93842   0.37088   0.00000  Uiso   1.00
O651   O     0.87259   0.94572   0.40600   0.00000  Uiso   1.00
N652   N     0.76703   0.78857   0.11245   0.00000  Uiso   1.00
O653   O     0.74887   0.75122   0.09564   0.00000  Uiso   1.00
O654   O     0.74941   0.81210   0.14274   0.00000  Uiso   1.00
N655   N     0.70493   0.75225   0.21886   0.00000  Uiso   1.00
O656   O     0.71818   0.72208   0.24731   0.00000  Uiso   1.00
O657   O     0.69901   0.73948   0.17762   0.00000  Uiso   1.00
N658   N     0.96177   0.91053   0.28773   0.00000  Uiso   1.00
O659   O     0.95273   0.94603   0.26358   0.00000  Uiso   1.00
O660   O     0.96281   0.91504   0.33049   0.00000  Uiso   1.00
N661   N     0.95370   0.75749   0.21019   0.00000  Uiso   1.00
O662   O     0.93141   0.76419   0.17405   0.00000  Uiso   1.00
O663   O     0.95604   0.71601   0.22599   0.00000  Uiso   1.00
N664   N     0.71309   0.90619   0.29441   0.00000  Uiso   1.00
O665   O     0.73589   0.89657   0.32946   0.00000  Uiso   1.00
O666   O     0.70989   0.94902   0.28237   0.00000  Uiso   1.00
O667   O     0.10655   0.20625   0.75000   0.00000  Uiso   1.00
O668   O     0.22679   0.12709   0.75000   0.00000  Uiso   1.00
O669   O     0.22679   0.20625   0.75000   0.00000  Uiso   1.00
O670   O     0.10655   0.12709   0.75000   0.00000  Uiso   1.00
N671   N     0.16667   0.28402   0.75000   0.00000  Uiso   1.00
N672   N     0.16667   0.04931   0.75000   0.00000  Uiso   1.00
C673   C     0.08753   0.16612   0.75084   0.00000  Uiso   1.00
C674   C     0.24585   0.16703   0.74985   0.00000  Uiso   1.00
O675   O     0.16666   0.20626   0.68573   0.00000  Uiso   1.00
O676   O     0.16667   0.12707   0.81427   0.00000  Uiso   1.00
O677   O     0.16667   0.20626   0.81427   0.00000  Uiso   1.00
O678   O     0.16666   0.12707   0.68573   0.00000  Uiso   1.00
C679   C     0.16688   0.16630   0.66528   0.00000  Uiso   1.00
C680   C     0.16464   0.16703   0.83499   0.00000  Uiso   1.00
Cu681  Cu    0.16667   0.21355   0.75000   0.00000  Uiso   1.00
Cu682  Cu    0.16667   0.11978   0.75000   0.00000  Uiso   1.00
C683   C     0.14599   0.02333   0.71698   0.00000  Uiso   1.00
C684   C     0.18818   0.31013   0.78238   0.00000  Uiso   1.00
C685   C     0.18781   0.02560   0.78270   0.00000  Uiso   1.00
C686   C     0.14572   0.30777   0.71711   0.00000  Uiso   1.00
C687   C     0.01942   0.12670   0.73451   0.00000  Uiso   1.00
C688   C     0.31405   0.20491   0.76819   0.00000  Uiso   1.00
C689   C     0.31014   0.12862   0.73151   0.00000  Uiso   1.00
C690   C     0.02330   0.20326   0.77071   0.00000  Uiso   1.00
C691   C     0.19754   0.18700   0.54976   0.00000  Uiso   1.00
C692   C     0.15406   0.12408   0.95103   0.00000  Uiso   1.00
C693   C     0.17229   0.20538   0.95568   0.00000  Uiso   1.00
C694   C     0.13561   0.13973   0.54621   0.00000  Uiso   1.00
H695   H     0.22178   0.20431   0.53329   0.00000  Uiso   1.00
H696   H     0.14709   0.09195   0.96706   0.00000  Uiso   1.00
H697   H     0.17854   0.23678   0.97528   0.00000  Uiso   1.00
H698   H     0.11059   0.12257   0.52699   0.00000  Uiso   1.00
C699   C     0.19816   0.18869   0.59574   0.00000  Uiso   1.00
C700   C     0.15074   0.12561   0.90502   0.00000  Uiso   1.00
C701   C     0.16993   0.20796   0.90987   0.00000  Uiso   1.00
C702   C     0.13499   0.14151   0.59211   0.00000  Uiso   1.00
C703   C     0.16683   0.16539   0.61719   0.00000  Uiso   1.00
C704   C     0.16097   0.16731   0.88356   0.00000  Uiso   1.00
C705   C     0.16654   0.16262   0.52488   0.00000  Uiso   1.00
C706   C     0.16507   0.16367   0.97644   0.00000  Uiso   1.00
C707   C     0.29054   0.16748   0.74891   0.00000  Uiso   1.00
C708   C     0.04291   0.16486   0.75265   0.00000  Uiso   1.00
O709   O     0.12409   0.04343   0.68271   0.00000  Uiso   1.00
H710   H     0.11488   0.07350   0.69335   0.00000  Uiso   1.00
O711   O     0.21231   0.29048   0.81512   0.00000  Uiso   1.00
H712   H     0.21794   0.25871   0.80605   0.00000  Uiso   1.00
O713   O     0.21004   0.04787   0.81697   0.00000  Uiso   1.00
H714   H     0.22130   0.07684   0.80606   0.00000  Uiso   1.00
O715   O     0.12357   0.28548   0.68281   0.00000  Uiso   1.00
H716   H     0.11197   0.25674   0.69388   0.00000  Uiso   1.00
N717   N     0.23083   0.21396   0.61982   0.00000  Uiso   1.00
O718   O     0.24920   0.19649   0.65459   0.00000  Uiso   1.00
O719   O     0.24613   0.25138   0.60358   0.00000  Uiso   1.00
N720   N     0.13466   0.08526   0.88101   0.00000  Uiso   1.00
O721   O     0.10319   0.08888   0.85309   0.00000  Uiso   1.00
O722   O     0.14605   0.04423   0.89300   0.00000  Uiso   1.00
N723   N     0.17520   0.25269   0.89135   0.00000  Uiso   1.00
O724   O     0.14400   0.27175   0.87088   0.00000  Uiso   1.00
O725   O     0.20593   0.27906   0.90600   0.00000  Uiso   1.00
N726   N     0.10036   0.12190   0.61245   0.00000  Uiso   1.00
O727   O     0.08221   0.08456   0.59564   0.00000  Uiso   1.00
O728   O     0.08275   0.14543   0.64274   0.00000  Uiso   1.00
N729   N     0.03826   0.08558   0.71886   0.00000  Uiso   1.00
O730   O     0.05151   0.05541   0.74731   0.00000  Uiso   1.00
O731   O     0.03234   0.07281   0.67762   0.00000  Uiso   1.00
N732   N     0.29510   0.24386   0.78773   0.00000  Uiso   1.00
O733   O     0.28606   0.27936   0.76358   0.00000  Uiso   1.00
O734   O     0.29615   0.24837   0.83049   0.00000  Uiso   1.00
N735   N     0.28704   0.09082   0.71019   0.00000  Uiso   1.00
O736   O     0.26474   0.09753   0.67405   0.00000  Uiso   1.00
O737   O     0.28937   0.04935   0.72599   0.00000  Uiso   1.00
N738   N     0.04643   0.23953   0.79441   0.00000  Uiso   1.00
O739   O     0.06922   0.22991   0.82946   0.00000  Uiso   1.00
O740   O     0.04322   0.28235   0.78237   0.00000  Uiso   1.00
O741   O     0.43988   0.20625   0.75000   0.00000  Uiso   1.00
O742   O     0.56012   0.12709   0.75000   0.00000  Uiso   1.00
O743   O     0.56012   0.20625   0.75000   0.00000  Uiso   1.00
O744   O     0.43988   0.12709   0.75000   0.00000  Uiso   1.00
N745   N     0.50000   0.28402   0.75000   0.00000  Uiso   1.00
N746   N     0.50000   0.04931   0.75000   0.00000  Uiso   1.00
C747   C     0.42086   0.16612   0.75084   0.00000  Uiso   1.00
C748   C     0.57918   0.16703   0.74985   0.00000  Uiso   1.00
O749   O     0.50000   0.20626   0.68573   0.00000  Uiso   1.00
O750   O     0.50000   0.12707   0.81427   0.00000  Uiso   1.00
O751   O     0.50000   0.20626   0.81427   0.00000  Uiso   1.00
O752   O     0.50000   0.12707   0.68573   0.00000  Uiso   1.00
C753   C     0.50021   0.16630   0.66528   0.00000  Uiso   1.00
C754   C     0.49797   0.16703   0.83499   0.00000  Uiso   1.00
Cu755  Cu    0.50000   0.21355   0.75000   0.00000  Uiso   1.00
Cu756  Cu    0.50000   0.11978   0.75000   0.00000  Uiso   1.00
C757   C     0.47932   0.02333   0.71698   0.00000  Uiso   1.00
C758   C     0.52151   0.31013   0.78238   0.00000  Uiso   1.00
C759   C     0.52114   0.02560   0.78270   0.00000  Uiso   1.00
C760   C     0.47905   0.30777   0.71711   0.00000  Uiso   1.00
C761   C     0.35275   0.12670   0.73451   0.00000  Uiso   1.00
C762   C     0.64738   0.20491   0.76819   0.00000  Uiso   1.00
C763   C     0.64348   0.12862   0.73151   0.00000  Uiso   1.00
C764   C     0.35664   0.20326   0.77071   0.00000  Uiso   1.00
C765   C     0.53087   0.18700   0.54976   0.00000  Uiso   1.00
C766   C     0.48739   0.12408   0.95103   0.00000  Uiso   1.00
C767   C     0.50562   0.20538   0.95568   0.00000  Uiso   1.00
C768   C     0.46894   0.13973   0.54621   0.00000  Uiso   1.00
H769   H     0.55511   0.20431   0.53329   0.00000  Uiso   1.00
H770   H     0.48042   0.09195   0.96706   0.00000  Uiso   1.00
H771   H     0.51187   0.23678   0.97528   0.00000  Uiso   1.00
H772   H     0.44392   0.12257   0.52699   0.00000  Uiso   1.00
C773   C     0.53149   0.18869   0.59574   0.00000  Uiso   1.00
C774   C     0.48408   0.12561   0.90502   0.00000  Uiso   1.00
C775   C     0.50327   0.20796   0.90987   0.00000  Uiso   1.00
C776   C     0.46832   0.14151   0.59211   0.00000  Uiso   1.00
C777   C     0.50016   0.16539   0.61719   0.00000  Uiso   1.00
C778   C     0.49430   0.16731   0.88356   0.00000  Uiso   1.00
C779   C     0.49987   0.16262   0.52488   0.00000  Uiso   1.00
C780   C     0.49840   0.16367   0.97644   0.00000  Uiso   1.00
C781   C     0.62387   0.16748   0.74891   0.00000  Uiso   1.00
C782   C     0.37624   0.16486   0.75265   0.00000  Uiso   1.00
O783   O     0.45743   0.04343   0.68271   0.00000  Uiso   1.00
H784   H     0.44821   0.07350   0.69335   0.00000  Uiso   1.00
O785   O     0.54565   0.29048   0.81512   0.00000  Uiso   1.00
H786   H     0.55127   0.25871   0.80605   0.00000  Uiso   1.00
O787   O     0.54337   0.04787   0.81697   0.00000  Uiso   1.00
H788   H     0.55463   0.07684   0.80606   0.00000  Uiso   1.00
O789   O     0.45690   0.28548   0.68281   0.00000  Uiso   1.00
H790   H     0.44530   0.25674   0.69388   0.00000  Uiso   1.00
N791   N     0.56416   0.21396   0.61982   0.00000  Uiso   1.00
O792   O     0.58253   0.19649   0.65459   0.00000  Uiso   1.00
O793   O     0.57946   0.25138   0.60358   0.00000  Uiso   1.00
N794   N     0.46799   0.08526   0.88101   0.00000  Uiso   1.00
O795   O     0.43653   0.08888   0.85309   0.00000  Uiso   1.00
O796   O     0.47938   0.04423   0.89300   0.00000  Uiso   1.00
N797   N     0.50854   0.25269   0.89135   0.00000  Uiso   1.00
O798   O     0.47733   0.27175   0.87088   0.00000  Uiso   1.00
O799   O     0.53926   0.27906   0.90600   0.00000  Uiso   1.00
N800   N     0.43370   0.12190   0.61245   0.00000  Uiso   1.00
O801   O     0.41554   0.08456   0.59564   0.00000  Uiso   1.00
O802   O     0.41608   0.14543   0.64274   0.00000  Uiso   1.00
N803   N     0.37159   0.08558   0.71886   0.00000  Uiso   1.00
O804   O     0.38484   0.05541   0.74731   0.00000  Uiso   1.00
O805   O     0.36568   0.07281   0.67762   0.00000  Uiso   1.00
N806   N     0.62843   0.24386   0.78773   0.00000  Uiso   1.00
O807   O     0.61939   0.27936   0.76358   0.00000  Uiso   1.00
O808   O     0.62948   0.24837   0.83049   0.00000  Uiso   1.00
N809   N     0.62037   0.09082   0.71019   0.00000  Uiso   1.00
O810   O     0.59808   0.09753   0.67405   0.00000  Uiso   1.00
O811   O     0.62271   0.04935   0.72599   0.00000  Uiso   1.00
N812   N     0.37976   0.23953   0.79441   0.00000  Uiso   1.00
O813   O     0.40255   0.22991   0.82946   0.00000  Uiso   1.00
O814   O     0.37655   0.28235   0.78237   0.00000  Uiso   1.00
O815   O     0.77321   0.20625   0.75000   0.00000  Uiso   1.00
O816   O     0.89345   0.12709   0.75000   0.00000  Uiso   1.00
O817   O     0.89345   0.20625   0.75000   0.00000  Uiso   1.00
O818   O     0.77321   0.12709   0.75000   0.00000  Uiso   1.00
N819   N     0.83333   0.28402   0.75000   0.00000  Uiso   1.00
N820   N     0.83333   0.04931   0.75000   0.00000  Uiso   1.00
C821   C     0.75419   0.16612   0.75084   0.00000  Uiso   1.00
C822   C     0.91252   0.16703   0.74985   0.00000  Uiso   1.00
O823   O     0.83333   0.20626   0.68573   0.00000  Uiso   1.00
O824   O     0.83334   0.12707   0.81427   0.00000  Uiso   1.00
O825   O     0.83334   0.20626   0.81427   0.00000  Uiso   1.00
O826   O     0.83333   0.12707   0.68573   0.00000  Uiso   1.00
C827   C     0.83355   0.16630   0.66528   0.00000  Uiso   1.00
C828   C     0.83130   0.16703   0.83499   0.00000  Uiso   1.00
Cu829  Cu    0.83333   0.21355   0.75000   0.00000  Uiso   1.00
Cu830  Cu    0.83333   0.11978   0.75000   0.00000  Uiso   1.00
C831   C     0.81265   0.02333   0.71698   0.00000  Uiso   1.00
C832   C     0.85484   0.31013   0.78238   0.00000  Uiso   1.00
C833   C     0.85447   0.02560   0.78270   0.00000  Uiso   1.00
C834   C     0.81239   0.30777   0.71711   0.00000  Uiso   1.00
C835   C     0.68608   0.12670   0.73451   0.00000  Uiso   1.00
C836   C     0.98071   0.20491   0.76819   0.00000  Uiso   1.00
C837   C     0.97681   0.12862   0.73151   0.00000  Uiso   1.00
C838   C     0.68997   0.20326   0.77071   0.00000  Uiso   1.00
C839   C     0.86420   0.18700   0.54976   0.00000  Uiso   1.00
C840   C     0.82072   0.12408   0.95103   0.00000  Uiso   1.00
C841   C     0.83895   0.20538   0.95568   0.00000  Uiso   1.00
C842   C     0.80228   0.13973   0.54621   0.00000  Uiso   1.00
H843   H     0.88844   0.20431   0.53329   0.00000  Uiso   1.00
H844   H     0.81376   0.09195   0.96706   0.00000  Uiso   1.00
H845   H     0.84521   0.23678   0.97528   0.00000  Uiso   1.00
H846   H     0.77725   0.12257   0.52699   0.00000  Uiso   1.00
C847   C     0.86482   0.18869   0.59574   0.00000  Uiso   1.00
C848   C     0.81741   0.12561   0.90502   0.00000  Uiso   1.00
C849   C     0.83660   0.20796   0.90987   0.00000  Uiso   1.00
C850   C     0.80165   0.14151   0.59211   0.00000  Uiso   1.00
C851   C     0.83349   0.16539   0.61719   0.00000  Uiso   1.00
C852   C     0.82764   0.16731   0.88356   0.00000  Uiso   1.00
C853   C     0.83320   0.16262   0.52488   0.00000  Uiso   1.00
C854   C     0.83173   0.16367   0.97644   0.00000  Uiso   1.00
C855   C     0.95720   0.16748   0.74891   0.00000  Uiso   1.00
C856   C     0.70957   0.16486   0.75265   0.00000  Uiso   1.00
O857   O     0.79076   0.04343   0.68271   0.00000  Uiso   1.00
H858   H     0.78154   0.07350   0.69335   0.00000  Uiso   1.00
O859   O     0.87898   0.29048   0.81512   0.00000  Uiso   1.00
H860   H     0.88461   0.25871   0.80605   0.00000  Uiso   1.00
O861   O     0.87670   0.04787   0.81697   0.00000  Uiso   1.00
H862   H     0.88797   0.07684   0.80606   0.00000  Uiso   1.00
O863   O     0.79023   0.28548   0.68281   0.00000  Uiso   1.00
H864   H     0.77864   0.25674   0.69388   0.00000  Uiso   1.00
N865   N     0.89749   0.21396   0.61982   0.00000  Uiso   1.00
O866   O     0.91586   0.19649   0.65459   0.00000  Uiso   1.00
O867   O     0.91279   0.25138   0.60358   0.00000  Uiso   1.00
N868   N     0.80133   0.08526   0.88101   0.00000  Uiso   1.00
O869   O     0.76986   0.08888   0.85309   0.00000  Uiso   1.00
O870   O     0.81271   0.04423   0.89300   0.00000  Uiso   1.00
N871   N     0.84187   0.25269   0.89135   0.00000  Uiso   1.00
O872   O     0.81066   0.27175   0.87088   0.00000  Uiso   1.00
O873   O     0.87259   0.27906   0.90600   0.00000  Uiso   1.00
N874   N     0.76703   0.12190   0.61245   0.00000  Uiso   1.00
O875   O     0.74887   0.08456   0.59564   0.00000  Uiso   1.00
O876   O     0.74941   0.14543   0.64274   0.00000  Uiso   1.00
N877   N     0.70493   0.08558   0.71886   0.00000  Uiso   1.00
O878   O     0.71818   0.05541   0.74731   0.00000  Uiso   1.00
O879   O     0.69901   0.07281   0.67762   0.00000  Uiso   1.00
N880   N     0.96177   0.24386   0.78773   0.00000  Uiso   1.00
O881   O     0.95273   0.27936   0.76358   0.00000  Uiso   1.00
O882   O     0.96281   0.24837   0.83049   0.00000  Uiso   1.00
N883   N     0.95370   0.09082   0.71019   0.00000  Uiso   1.00
O884   O     0.93141   0.09753   0.67405   0.00000  Uiso   1.00
O885   O     0.95604   0.04935   0.72599   0.00000  Uiso   1.00
N886   N     0.71309   0.23953   0.79441   0.00000  Uiso   1.00
O887   O     0.73589   0.22991   0.82946   0.00000  Uiso   1.00
O888   O     0.70989   0.28235   0.78237   0.00000  Uiso   1.00
O889   O     0.10655   0.53958   0.75000   0.00000  Uiso   1.00
O890   O     0.22679   0.46042   0.75000   0.00000  Uiso   1.00
O891   O     0.22679   0.53958   0.75000   0.00000  Uiso   1.00
O892   O     0.10655   0.46042   0.75000   0.00000  Uiso   1.00
N893   N     0.16667   0.61736   0.75000   0.00000  Uiso   1.00
N894   N     0.16667   0.38264   0.75000   0.00000  Uiso   1.00
C895   C     0.08753   0.49946   0.75084   0.00000  Uiso   1.00
C896   C     0.24585   0.50037   0.74985   0.00000  Uiso   1.00
O897   O     0.16666   0.53959   0.68573   0.00000  Uiso   1.00
O898   O     0.16667   0.46041   0.81427   0.00000  Uiso   1.00
O899   O     0.16667   0.53959   0.81427   0.00000  Uiso   1.00
O900   O     0.16666   0.46041   0.68573   0.00000  Uiso   1.00
C901   C     0.16688   0.49963   0.66528   0.00000  Uiso   1.00
C902   C     0.16464   0.50037   0.83499   0.00000  Uiso   1.00
Cu903  Cu    0.16667   0.54689   0.75000   0.00000  Uiso   1.00
Cu904  Cu    0.16667   0.45311   0.75000   0.00000  Uiso   1.00
C905   C     0.14599   0.35667   0.71698   0.00000  Uiso   1.00
C906   C     0.18818   0.64346   0.78238   0.00000  Uiso   1.00
C907   C     0.18781   0.35894   0.78270   0.00000  Uiso   1.00
C908   C     0.14572   0.64111   0.71711   0.00000  Uiso   1.00
C909   C     0.01942   0.46004   0.73451   0.00000  Uiso   1.00
C910   C     0.31405   0.53824   0.76819   0.00000  Uiso   1.00
C911   C     0.31014   0.46195   0.73151   0.00000  Uiso   1.00
C912   C     0.02330   0.53659   0.77071   0.00000  Uiso   1.00
C913   C     0.19754   0.52033   0.54976   0.00000  Uiso   1.00
C914   C     0.15406   0.45741   0.95103   0.00000  Uiso   1.00
C915   C     0.17229   0.53872   0.95568   0.00000  Uiso   1.00
C916   C     0.13561   0.47306   0.54621   0.00000  Uiso   1.00
H917   H     0.22178   0.53764   0.53329   0.00000  Uiso   1.00
H918   H     0.14709   0.42529   0.96706   0.00000  Uiso   1.00
H919   H     0.17854   0.57012   0.97528   0.00000  Uiso   1.00
H920   H     0.11059   0.45591   0.52699   0.00000  Uiso   1.00
C921   C     0.19816   0.52202   0.59574   0.00000  Uiso   1.00
C922   C     0.15074   0.45894   0.90502   0.00000  Uiso   1.00
C923   C     0.16993   0.54129   0.90987   0.00000  Uiso   1.00
C924   C     0.13499   0.47484   0.59211   0.00000  Uiso   1.00
C925   C     0.16683   0.49872   0.61719   0.00000  Uiso   1.00
C926   C     0.16097   0.50064   0.88356   0.00000  Uiso   1.00
C927   C     0.16654   0.49596   0.52488   0.00000  Uiso   1.00
C928   C     0.16507   0.49700   0.97644   0.00000  Uiso   1.00
C929   C     0.29054   0.50082   0.74891   0.00000  Uiso   1.00
C930   C     0.04291   0.49820   0.75265   0.00000  Uiso   1.00
O931   O     0.12409   0.37676   0.68271   0.00000  Uiso   1.00
H932   H     0.11488   0.40683   0.69335   0.00000  Uiso   1.00
O933   O     0.21231   0.62381   0.81512   0.00000  Uiso   1.00
H934   H     0.21794   0.59204   0.80605   0.00000  Uiso   1.00
O935   O     0.21004   0.38121   0.81697   0.00000  Uiso   1.00
H936   H     0.22130   0.41017   0.80606   0.00000  Uiso   1.00
O937   O     0.12357   0.61881   0.68281   0.00000  Uiso   1.00
H938   H     0.11197   0.59007   0.69388   0.00000  Uiso   1.00
N939   N     0.23083   0.54729   0.61982   0.00000  Uiso   1.00
O940   O     0.24920   0.52982   0.65459   0.00000  Uiso   1.00
O941   O     0.24613   0.58471   0.60358   0.00000  Uiso   1.00
N942   N     0.13466   0.41859   0.88101   0.00000  Uiso   1.00
O943   O     0.10319   0.42222   0.85309   0.00000  Uiso   1.00
O944   O     0.14605   0.37756   0.89300   0.00000  Uiso   1.00
N945   N     0.17520   0.58603   0.89135   0.00000  Uiso   1.00
O946   O     0.14400   0.60509   0.87088   0.00000  Uiso   1.00
O947   O     0.20593   0.61239   0.90600   0.00000  Uiso   1.00
N948   N     0.10036   0.45524   0.61245   0.00000  Uiso   1.00
O949   O     0.08221   0.41789   0.59564   0.00000  Uiso   1.00
O950   O     0.08275   0.47876   0.64274   0.00000  Uiso   1.00
N951   N     0.03826   0.41892   0.71886   0.00000  Uiso   1.00
O952   O     0.05151   0.38875   0.74731   0.00000  Uiso   1.00
O953   O     0.03234   0.40615   0.67762   0.00000  Uiso   1.00
N954   N     0.29510   0.57719   0.78773   0.00000  Uiso   1.00
O955   O     0.28606   0.61270   0.76358   0.00000  Uiso   1.00
O956   O     0.29615   0.58170   0.83049   0.00000  Uiso   1.00
N957   N     0.28704   0.42415   0.71019   0.00000  Uiso   1.00
O958   O     0.26474   0.43086   0.67405   0.00000  Uiso   1.00
O959   O     0.28937   0.38268   0.72599   0.00000  Uiso   1.00
N960   N     0.04643   0.57286   0.79441   0.00000  Uiso   1.00
O961   O     0.06922   0.56324   0.82946   0.00000  Uiso   1.00
O962   O     0.04322   0.61569   0.78237   0.00000  Uiso   1.00
O963   O     0.43988   0.53958   0.75000   0.00000  Uiso   1.00
O964   O     0.56012   0.46042   0.75000   0.00000  Uiso   1.00
O965   O     0.56012   0.53958   0.75000   0.00000  Uiso   1.00
O966   O     0.43988   0.46042   0.75000   0.00000  Uiso   1.00
N967   N     0.50000   0.61736   0.75000   0.00000  Uiso   1.00
N968   N     0.50000   0.38264   0.75000   0.00000  Uiso   1.00
C969   C     0.42086   0.49946   0.75084   0.00000  Uiso   1.00
C970   C     0.57918   0.50037   0.74985   0.00000  Uiso   1.00
O971   O     0.50000   0.53959   0.68573   0.00000  Uiso   1.00
O972   O     0.50000   0.46041   0.81427   0.00000  Uiso   1.00
O973   O     0.50000   0.53959   0.81427   0.00000  Uiso   1.00
O974   O     0.50000   0.46041   0.68573   0.00000  Uiso   1.00
C975   C     0.50021   0.49963   0.66528   0.00000  Uiso   1.00
C976   C     0.49797   0.50037   0.83499   0.00000  Uiso   1.00
Cu977  Cu    0.50000   0.54689   0.75000   0.00000  Uiso   1.00
Cu978  Cu    0.50000   0.45311   0.75000   0.00000  Uiso   1.00
C979   C     0.47932   0.35667   0.71698   0.00000  Uiso   1.00
C980   C     0.52151   0.64346   0.78238   0.00000  Uiso   1.00
C981   C     0.52114   0.35894   0.78270   0.00000  Uiso   1.00
C982   C     0.47905   0.64111   0.71711   0.00000  Uiso   1.00
C983   C     0.35275   0.46004   0.73451   0.00000  Uiso   1.00
C984   C     0.64738   0.53824   0.76819   0.00000  Uiso   1.00
C985   C     0.64348   0.46195   0.73151   0.00000  Uiso   1.00
C986   C     0.35664   0.53659   0.77071   0.00000  Uiso   1.00
C987   C     0.53087   0.52033   0.54976   0.00000  Uiso   1.00
C988   C     0.48739   0.45741   0.95103   0.00000  Uiso   1.00
C989   C     0.50562   0.53872   0.95568   0.00000  Uiso   1.00
C990   C     0.46894   0.47306   0.54621   0.00000  Uiso   1.00
H991   H     0.55511   0.53764   0.53329   0.00000  Uiso   1.00
H992   H     0.48042   0.42529   0.96706   0.00000  Uiso   1.00
H993   H     0.51187   0.57012   0.97528   0.00000  Uiso   1.00
H994   H     0.44392   0.45591   0.52699   0.00000  Uiso   1.00
C995   C     0.53149   0.52202   0.59574   0.00000  Uiso   1.00
C996   C     0.48408   0.45894   0.90502   0.00000  Uiso   1.00
C997   C     0.50327   0.54129   0.90987   0.00000  Uiso   1.00
C998   C     0.46832   0.47484   0.59211   0.00000  Uiso   1.00
C999   C     0.50016   0.49872   0.61719   0.00000  Uiso   1.00
C1000  C     0.49430   0.50064   0.88356   0.00000  Uiso   1.00
C1001  C     0.49987   0.49596   0.52488   0.00000  Uiso   1.00
C1002  C     0.49840   0.49700   0.97644   0.00000  Uiso   1.00
C1003  C     0.62387   0.50082   0.74891   0.00000  Uiso   1.00
C1004  C     0.37624   0.49820   0.75265   0.00000  Uiso   1.00
O1005  O     0.45743   0.37676   0.68271   0.00000  Uiso   1.00
H1006  H     0.44821   0.40683   0.69335   0.00000  Uiso   1.00
O1007  O     0.54565   0.62381   0.81512   0.00000  Uiso   1.00
H1008  H     0.55127   0.59204   0.80605   0.00000  Uiso   1.00
O1009  O     0.54337   0.38121   0.81697   0.00000  Uiso   1.00
H1010  H     0.55463   0.41017   0.80606   0.00000  Uiso   1.00
O1011  O     0.45690   0.61881   0.68281   0.00000  Uiso   1.00
H1012  H     0.44530   0.59007   0.69388   0.00000  Uiso   1.00
N1013  N     0.56416   0.54729   0.61982   0.00000  Uiso   1.00
O1014  O     0.58253   0.52982   0.65459   0.00000  Uiso   1.00
O1015  O     0.57946   0.58471   0.60358   0.00000  Uiso   1.00
N1016  N     0.46799   0.41859   0.88101   0.00000  Uiso   1.00
O1017  O     0.43653   0.42222   0.85309   0.00000  Uiso   1.00
O1018  O     0.47938   0.37756   0.89300   0.00000  Uiso   1.00
N1019  N     0.50854   0.58603   0.89135   0.00000  Uiso   1.00
O1020  O     0.47733   0.60509   0.87088   0.00000  Uiso   1.00
O1021  O     0.53926   0.61239   0.90600   0.00000  Uiso   1.00
N1022  N     0.43370   0.45524   0.61245   0.00000  Uiso   1.00
O1023  O     0.41554   0.41789   0.59564   0.00000  Uiso   1.00
O1024  O     0.41608   0.47876   0.64274   0.00000  Uiso   1.00
N1025  N     0.37159   0.41892   0.71886   0.00000  Uiso   1.00
O1026  O     0.38484   0.38875   0.74731   0.00000  Uiso   1.00
O1027  O     0.36568   0.40615   0.67762   0.00000  Uiso   1.00
N1028  N     0.62843   0.57719   0.78773   0.00000  Uiso   1.00
O1029  O     0.61939   0.61270   0.76358   0.00000  Uiso   1.00
O1030  O     0.62948   0.58170   0.83049   0.00000  Uiso   1.00
N1031  N     0.62037   0.42415   0.71019   0.00000  Uiso   1.00
O1032  O     0.59808   0.43086   0.67405   0.00000  Uiso   1.00
O1033  O     0.62271   0.38268   0.72599   0.00000  Uiso   1.00
N1034  N     0.37976   0.57286   0.79441   0.00000  Uiso   1.00
O1035  O     0.40255   0.56324   0.82946   0.00000  Uiso   1.00
O1036  O     0.37655   0.61569   0.78237   0.00000  Uiso   1.00
O1037  O     0.77321   0.53958   0.75000   0.00000  Uiso   1.00
O1038  O     0.89345   0.46042   0.75000   0.00000  Uiso   1.00
O1039  O     0.89345   0.53958   0.75000   0.00000  Uiso   1.00
O1040  O     0.77321   0.46042   0.75000   0.00000  Uiso   1.00
N1041  N     0.83333   0.61736   0.75000   0.00000  Uiso   1.00
N1042  N     0.83333   0.38264   0.75000   0.00000  Uiso   1.00
C1043  C     0.75419   0.49946   0.75084   0.00000  Uiso   1.00
C1044  C     0.91252   0.50037   0.74985   0.00000  Uiso   1.00
O1045  O     0.83333   0.53959   0.68573   0.00000  Uiso   1.00
O1046  O     0.83334   0.46041   0.81427   0.00000  Uiso   1.00
O1047  O     0.83334   0.53959   0.81427   0.00000  Uiso   1.00
O1048  O     0.83333   0.46041   0.68573   0.00000  Uiso   1.00
C1049  C     0.83355   0.49963   0.66528   0.00000  Uiso   1.00
C1050  C     0.83130   0.50037   0.83499   0.00000  Uiso   1.00
Cu1051 Cu    0.83333   0.54689   0.75000   0.00000  Uiso   1.00
Cu1052 Cu    0.83333   0.45311   0.75000   0.00000  Uiso   1.00
C1053  C     0.81265   0.35667   0.71698   0.00000  Uiso   1.00
C1054  C     0.85484   0.64346   0.78238   0.00000  Uiso   1.00
C1055  C     0.85447   0.35894   0.78270   0.00000  Uiso   1.00
C1056  C     0.81239   0.64111   0.71711   0.00000  Uiso   1.00
C1057  C     0.68608   0.46004   0.73451   0.00000  Uiso   1.00
C1058  C     0.98071   0.53824   0.76819   0.00000  Uiso   1.00
C1059  C     0.97681   0.46195   0.73151   0.00000  Uiso   1.00
C1060  C     0.68997   0.53659   0.77071   0.00000  Uiso   1.00
C1061  C     0.86420   0.52033   0.54976   0.00000  Uiso   1.00
C1062  C     0.82072   0.45741   0.95103   0.00000  Uiso   1.00
C1063  C     0.83895   0.53872   0.95568   0.00000  Uiso   1.00
C1064  C     0.80228   0.47306   0.54621   0.00000  Uiso   1.00
H1065  H     0.88844   0.53764   0.53329   0.00000  Uiso   1.00
H1066  H     0.81376   0.42529   0.96706   0.00000  Uiso   1.00
H1067  H     0.84521   0.57012   0.97528   0.00000  Uiso   1.00
H1068  H     0.77725   0.45591   0.52699   0.00000  Uiso   1.00
C1069  C     0.86482   0.52202   0.59574   0.00000  Uiso   1.00
C1070  C     0.81741   0.45894   0.90502   0.00000  Uiso   1.00
C1071  C     0.83660   0.54129   0.90987   0.00000  Uiso   1.00
C1072  C     0.80165   0.47484   0.59211   0.00000  Uiso   1.00
C1073  C     0.83349   0.49872   0.61719   0.00000  Uiso   1.00
C1074  C     0.82764   0.50064   0.88356   0.00000  Uiso   1.00
C1075  C     0.83320   0.49596   0.52488   0.00000  Uiso   1.00
C1076  C     0.83173   0.49700   0.97644   0.00000  Uiso   1.00
C1077  C     0.95720   0.50082   0.74891   0.00000  Uiso   1.00
C1078  C     0.70957   0.49820   0.75265   0.00000  Uiso   1.00
O1079  O     0.79076   0.37676   0.68271   0.00000  Uiso   1.00
H1080  H     0.78154   0.40683   0.69335   0.00000  Uiso   1.00
O1081  O     0.87898   0.62381   0.81512   0.00000  Uiso   1.00
H1082  H     0.88461   0.59204   0.80605   0.00000  Uiso   1.00
O1083  O     0.87670   0.38121   0.81697   0.00000  Uiso   1.00
H1084  H     0.88797   0.41017   0.80606   0.00000  Uiso   1.00
O1085  O     0.79023   0.61881   0.68281   0.00000  Uiso   1.00
H1086  H     0.77864   0.59007   0.69388   0.00000  Uiso   1.00
N1087  N     0.89749   0.54729   0.61982   0.00000  Uiso   1.00
O1088  O     0.91586   0.52982   0.65459   0.00000  Uiso   1.00
O1089  O     0.91279   0.58471   0.60358   0.00000  Uiso   1.00
N1090  N     0.80133   0.41859   0.88101   0.00000  Uiso   1.00
O1091  O     0.76986   0.42222   0.85309   0.00000  Uiso   1.00
O1092  O     0.81271   0.37756   0.89300   0.00000  Uiso   1.00
N1093  N     0.84187   0.58603   0.89135   0.00000  Uiso   1.00
O1094  O     0.81066   0.60509   0.87088   0.00000  Uiso   1.00
O1095  O     0.87259   0.61239   0.90600   0.00000  Uiso   1.00
N1096  N     0.76703   0.45524   0.61245   0.00000  Uiso   1.00
O1097  O     0.74887   0.41789   0.59564   0.00000  Uiso   1.00
O1098  O     0.74941   0.47876   0.64274   0.00000  Uiso   1.00
N1099  N     0.70493   0.41892   0.71886   0.00000  Uiso   1.00
O1100  O     0.71818   0.38875   0.74731   0.00000  Uiso   1.00
O1101  O     0.69901   0.40615   0.67762   0.00000  Uiso   1.00
N1102  N     0.96177   0.57719   0.78773   0.00000  Uiso   1.00
O1103  O     0.95273   0.61270   0.76358   0.00000  Uiso   1.00
O1104  O     0.96281   0.58170   0.83049   0.00000  Uiso   1.00
N1105  N     0.95370   0.42415   0.71019   0.00000  Uiso   1.00
O1106  O     0.93141   0.43086   0.67405   0.00000  Uiso   1.00
O1107  O     0.95604   0.38268   0.72599   0.00000  Uiso   1.00
N1108  N     0.71309   0.57286   0.79441   0.00000  Uiso   1.00
O1109  O     0.73589   0.56324   0.82946   0.00000  Uiso   1.00
O1110  O     0.70989   0.61569   0.78237   0.00000  Uiso   1.00
O1111  O     0.10655   0.87291   0.75000   0.00000  Uiso   1.00
O1112  O     0.22679   0.79375   0.75000   0.00000  Uiso   1.00
O1113  O     0.22679   0.87291   0.75000   0.00000  Uiso   1.00
O1114  O     0.10655   0.79375   0.75000   0.00000  Uiso   1.00
N1115  N     0.16667   0.95069   0.75000   0.00000  Uiso   1.00
N1116  N     0.16667   0.71598   0.75000   0.00000  Uiso   1.00
C1117  C     0.08753   0.83279   0.75084   0.00000  Uiso   1.00
C1118  C     0.24585   0.83370   0.74985   0.00000  Uiso   1.00
O1119  O     0.16666   0.87293   0.68573   0.00000  Uiso   1.00
O1120  O     0.16667   0.79374   0.81427   0.00000  Uiso   1.00
O1121  O     0.16667   0.87293   0.81427   0.00000  Uiso   1.00
O1122  O     0.16666   0.79374   0.68573   0.00000  Uiso   1.00
C1123  C     0.16688   0.83297   0.66528   0.00000  Uiso   1.00
C1124  C     0.16464   0.83370   0.83499   0.00000  Uiso   1.00
Cu1125 Cu    0.16667   0.88022   0.75000   0.00000  Uiso   1.00
Cu1126 Cu    0.16667   0.78645   0.75000   0.00000  Uiso   1.00
C1127  C     0.14599   0.69000   0.71698   0.00000  Uiso   1.00
C1128  C     0.18818   0.97679   0.78238   0.00000  Uiso   1.00
C1129  C     0.18781   0.69227   0.78270   0.00000  Uiso   1.00
C1130  C     0.14572   0.97444   0.71711   0.00000  Uiso   1.00
C1131  C     0.01942   0.79337   0.73451   0.00000  Uiso   1.00
C1132  C     0.31405   0.87157   0.76819   0.00000  Uiso   1.00
C1133  C     0.31014   0.79529   0.73151   0.00000  Uiso   1.00
C1134  C     0.02330   0.86993   0.77071   0.00000  Uiso   1.00
C1135  C     0.19754   0.85367   0.54976   0.00000  Uiso   1.00
C1136  C     0.15406   0.79075   0.95103   0.00000  Uiso   1.00
C1137  C     0.17229   0.87205   0.95568   0.00000  Uiso   1.00
C1138  C     0.13561   0.80639   0.54621   0.00000  Uiso   1.00
H1139  H     0.22178   0.87097   0.53329   0.00000  Uiso   1.00
H1140  H     0.14709   0.75862   0.96706   0.00000  Uiso   1.00
H1141  H     0.17854   0.90345   0.97528   0.00000  Uiso   1.00
H1142  H     0.11059   0.78924   0.52699   0.00000  Uiso   1.00
C1143  C     0.19816   0.85535   0.59574   0.00000  Uiso   1.00
C1144  C     0.15074   0.79228   0.90502   0.00000  Uiso   1.00
C1145  C     0.16993   0.87462   0.90987   0.00000  Uiso   1.00
C1146  C     0.13499   0.80818   0.59211   0.00000  Uiso   1.00
C1147  C     0.16683   0.83205   0.61719   0.00000  Uiso   1.00
C1148  C     0.16097   0.83398   0.88356   0.00000  Uiso   1.00
C1149  C     0.16654   0.82929   0.52488   0.00000  Uiso   1.00
C1150  C     0.16507   0.83034   0.97644   0.00000  Uiso   1.00
C1151  C     0.29054   0.83415   0.74891   0.00000  Uiso   1.00
C1152  C     0.04291   0.83153   0.75265   0.00000  Uiso   1.00
O1153  O     0.12409   0.71009   0.68271   0.00000  Uiso   1.00
H1154  H     0.11488   0.74017   0.69335   0.00000  Uiso   1.00
O1155  O     0.21231   0.95715   0.81512   0.00000  Uiso   1.00
H1156  H     0.21794   0.92537   0.80605   0.00000  Uiso   1.00
O1157  O     0.21004   0.71454   0.81697   0.00000  Uiso   1.00
H1158  H     0.22130   0.74351   0.80606   0.00000  Uiso   1.00
O1159  O     0.12357   0.95215   0.68281   0.00000  Uiso   1.00
H1160  H     0.11197   0.92341   0.69388   0.00000  Uiso   1.00
N1161  N     0.23083   0.88063   0.61982   0.00000  Uiso   1.00
O1162  O     0.24920   0.86315   0.65459   0.00000  Uiso   1.00
O1163  O     0.24613   0.91804   0.60358   0.00000  Uiso   1.00
N1164  N     0.13466   0.75193   0.88101   0.00000  Uiso   1.00
O1165  O     0.10319   0.75555   0.85309   0.00000  Uiso   1.00
O1166  O     0.14605   0.71089   0.89300   0.00000  Uiso   1.00
N1167  N     0.17520   0.91936   0.89135   0.00000  Uiso   1.00
O1168  O     0.14400   0.93842   0.87088   0.00000  Uiso   1.00
O1169  O     0.20593   0.94572   0.90600   0.00000  Uiso   1.00
N1170  N     0.10036   0.78857   0.61245   0.00000  Uiso   1.00
O1171  O     0.08221   0.75122   0.59564   0.00000  Uiso   1.00
O1172  O     0.08275   0.81210   0.64274   0.00000  Uiso   1.00
N1173  N     0.03826   0.75225   0.71886   0.00000  Uiso   1.00
O1174  O     0.05151   0.72208   0.74731   0.00000  Uiso   1.00
O1175  O     0.03234   0.73948   0.67762   0.00000  Uiso   1.00
N1176  N     0.29510   0.91053   0.78773   0.00000  Uiso   1.00
O1177  O     0.28606   0.94603   0.76358   0.00000  Uiso   1.00
O1178  O     0.29615   0.91504   0.83049   0.00000  Uiso   1.00
N1179  N     0.28704   0.75749   0.71019   0.00000  Uiso   1.00
O1180  O     0.26474   0.76419   0.67405   0.00000  Uiso   1.00
O1181  O     0.28937   0.71601   0.72599   0.00000  Uiso   1.00
N1182  N     0.04643   0.90619   0.79441   0.00000  Uiso   1.00
O1183  O     0.06922   0.89657   0.82946   0.00000  Uiso   1.00
O1184  O     0.04322   0.94902   0.78237   0.00000  Uiso   1.00
O1185  O     0.43988   0.87291   0.75000   0.00000  Uiso   1.00
O1186  O     0.56012   0.79375   0.75000   0.00000  Uiso   1.00
O1187  O     0.56012   0.87291   0.75000   0.00000  Uiso   1.00
O1188  O     0.43988   0.79375   0.75000   0.00000  Uiso   1.00
N1189  N     0.50000   0.95069   0.75000   0.00000  Uiso   1.00
N1190  N     0.50000   0.71598   0.75000   0.00000  Uiso   1.00
C1191  C     0.42086   0.83279   0.75084   0.00000  Uiso   1.00
C1192  C     0.57918   0.83370   0.74985   0.00000  Uiso   1.00
O1193  O     0.50000   0.87293   0.68573   0.00000  Uiso   1.00
O1194  O     0.50000   0.79374   0.81427   0.00000  Uiso   1.00
O1195  O     0.50000   0.87293   0.81427   0.00000  Uiso   1.00
O1196  O     0.50000   0.79374   0.68573   0.00000  Uiso   1.00
C1197  C     0.50021   0.83297   0.66528   0.00000  Uiso   1.00
C1198  C     0.49797   0.83370   0.83499   0.00000  Uiso   1.00
Cu1199 Cu    0.50000   0.88022   0.75000   0.00000  Uiso   1.00
Cu1200 Cu    0.50000   0.78645   0.75000   0.00000  Uiso   1.00
C1201  C     0.47932   0.69000   0.71698   0.00000  Uiso   1.00
C1202  C     0.52151   0.97679   0.78238   0.00000  Uiso   1.00
C1203  C     0.52114   0.69227   0.78270   0.00000  Uiso   1.00
C1204  C     0.47905   0.97444   0.71711   0.00000  Uiso   1.00
C1205  C     0.35275   0.79337   0.73451   0.00000  Uiso   1.00
C1206  C     0.64738   0.87157   0.76819   0.00000  Uiso   1.00
C1207  C     0.64348   0.79529   0.73151   0.00000  Uiso   1.00
C1208  C     0.35664   0.86993   0.77071   0.00000  Uiso   1.00
C1209  C     0.53087   0.85367   0.54976   0.00000  Uiso   1.00
C1210  C     0.48739   0.79075   0.95103   0.00000  Uiso   1.00
C1211  C     0.50562   0.87205   0.95568   0.00000  Uiso   1.00
C1212  C     0.46894   0.80639   0.54621   0.00000  Uiso   1.00
H1213  H     0.55511   0.87097   0.53329   0.00000  Uiso   1.00
H1214  H     0.48042   0.75862   0.96706   0.00000  Uiso   1.00
H1215  H     0.51187   0.90345   0.97528   0.00000  Uiso   1.00
H1216  H     0.44392   0.78924   0.52699   0.00000  Uiso   1.00
C1217  C     0.53149   0.85535   0.59574   0.00000  Uiso   1.00
C1218  C     0.48408   0.79228   0.90502   0.00000  Uiso   1.00
C1219  C     0.50327   0.87462   0.90987   0.00000  Uiso   1.00
C1220  C     0.46832   0.80818   0.59211   0.00000  Uiso   1.00
C1221  C     0.50016   0.83205   0.61719   0.00000  Uiso   1.00
C1222  C     0.49430   0.83398   0.88356   0.00000  Uiso   1.00
C1223  C     0.49987   0.82929   0.52488   0.00000  Uiso   1.00
C1224  C     0.49840   0.83034   0.97644   0.00000  Uiso   1.00
C1225  C     0.62387   0.83415   0.74891   0.00000  Uiso   1.00
C1226  C     0.37624   0.83153   0.75265   0.00000  Uiso   1.00
O1227  O     0.45743   0.71009   0.68271   0.00000  Uiso   1.00
H1228  H     0.44821   0.74017   0.69335   0.00000  Uiso   1.00
O1229  O     0.54565   0.95715   0.81512   0.00000  Uiso   1.00
H1230  H     0.55127   0.92537   0.80605   0.00000  Uiso   1.00
O1231  O     0.54337   0.71454   0.81697   0.00000  Uiso   1.00
H1232  H     0.55463   0.74351   0.80606   0.00000  Uiso   1.00
O1233  O     0.45690   0.95215   0.68281   0.00000  Uiso   1.00
H1234  H     0.44530   0.92341   0.69388   0.00000  Uiso   1.00
N1235  N     0.56416   0.88063   0.61982   0.00000  Uiso   1.00
O1236  O     0.58253   0.86315   0.65459   0.00000  Uiso   1.00
O1237  O     0.57946   0.91804   0.60358   0.00000  Uiso   1.00
N1238  N     0.46799   0.75193   0.88101   0.00000  Uiso   1.00
O1239  O     0.43653   0.75555   0.85309   0.00000  Uiso   1.00
O1240  O     0.47938   0.71089   0.89300   0.00000  Uiso   1.00
N1241  N     0.50854   0.91936   0.89135   0.00000  Uiso   1.00
O1242  O     0.47733   0.93842   0.87088   0.00000  Uiso   1.00
O1243  O     0.53926   0.94572   0.90600   0.00000  Uiso   1.00
N1244  N     0.43370   0.78857   0.61245   0.00000  Uiso   1.00
O1245  O     0.41554   0.75122   0.59564   0.00000  Uiso   1.00
O1246  O     0.41608   0.81210   0.64274   0.00000  Uiso   1.00
N1247  N     0.37159   0.75225   0.71886   0.00000  Uiso   1.00
O1248  O     0.38484   0.72208   0.74731   0.00000  Uiso   1.00
O1249  O     0.36568   0.73948   0.67762   0.00000  Uiso   1.00
N1250  N     0.62843   0.91053   0.78773   0.00000  Uiso   1.00
O1251  O     0.61939   0.94603   0.76358   0.00000  Uiso   1.00
O1252  O     0.62948   0.91504   0.83049   0.00000  Uiso   1.00
N1253  N     0.62037   0.75749   0.71019   0.00000  Uiso   1.00
O1254  O     0.59808   0.76419   0.67405   0.00000  Uiso   1.00
O1255  O     0.62271   0.71601   0.72599   0.00000  Uiso   1.00
N1256  N     0.37976   0.90619   0.79441   0.00000  Uiso   1.00
O1257  O     0.40255   0.89657   0.82946   0.00000  Uiso   1.00
O1258  O     0.37655   0.94902   0.78237   0.00000  Uiso   1.00
O1259  O     0.77321   0.87291   0.75000   0.00000  Uiso   1.00
O1260  O     0.89345   0.79375   0.75000   0.00000  Uiso   1.00
O1261  O     0.89345   0.87291   0.75000   0.00000  Uiso   1.00
O1262  O     0.77321   0.79375   0.75000   0.00000  Uiso   1.00
N1263  N     0.83333   0.95069   0.75000   0.00000  Uiso   1.00
N1264  N     0.83333   0.71598   0.75000   0.00000  Uiso   1.00
C1265  C     0.75419   0.83279   0.75084   0.00000  Uiso   1.00
C1266  C     0.91252   0.83370   0.74985   0.00000  Uiso   1.00
O1267  O     0.83333   0.87293   0.68573   0.00000  Uiso   1.00
O1268  O     0.83334   0.79374   0.81427   0.00000  Uiso   1.00
O1269  O     0.83334   0.87293   0.81427   0.00000  Uiso   1.00
O1270  O     0.83333   0.79374   0.68573   0.00000  Uiso   1.00
C1271  C     0.83355   0.83297   0.66528   0.00000  Uiso   1.00
C1272  C     0.83130   0.83370   0.83499   0.00000  Uiso   1.00
Cu1273 Cu    0.83333   0.88022   0.75000   0.00000  Uiso   1.00
Cu1274 Cu    0.83333   0.78645   0.75000   0.00000  Uiso   1.00
C1275  C     0.81265   0.69000   0.71698   0.00000  Uiso   1.00
C1276  C     0.85484   0.97679   0.78238   0.00000  Uiso   1.00
C1277  C     0.85447   0.69227   0.78270   0.00000  Uiso   1.00
C1278  C     0.81239   0.97444   0.71711   0.00000  Uiso   1.00
C1279  C     0.68608   0.79337   0.73451   0.00000  Uiso   1.00
C1280  C     0.98071   0.87157   0.76819   0.00000  Uiso   1.00
C1281  C     0.97681   0.79529   0.73151   0.00000  Uiso   1.00
C1282  C     0.68997   0.86993   0.77071   0.00000  Uiso   1.00
C1283  C     0.86420   0.85367   0.54976   0.00000  Uiso   1.00
C1284  C     0.82072   0.79075   0.95103   0.00000  Uiso   1.00
C1285  C     0.83895   0.87205   0.95568   0.00000  Uiso   1.00
C1286  C     0.80228   0.80639   0.54621   0.00000  Uiso   1.00
H1287  H     0.88844   0.87097   0.53329   0.00000  Uiso   1.00
H1288  H     0.81376   0.75862   0.96706   0.00000  Uiso   1.00
H1289  H     0.84521   0.90345   0.97528   0.00000  Uiso   1.00
H1290  H     0.77725   0.78924   0.52699   0.00000  Uiso   1.00
C1291  C     0.86482   0.85535   0.59574   0.00000  Uiso   1.00
C1292  C     0.81741   0.79228   0.90502   0.00000  Uiso   1.00
C1293  C     0.83660   0.87462   0.90987   0.00000  Uiso   1.00
C1294  C     0.80165   0.80818   0.59211   0.00000  Uiso   1.00
C1295  C     0.83349   0.83205   0.61719   0.00000  Uiso   1.00
C1296  C     0.82764   0.83398   0.88356   0.00000  Uiso   1.00
C1297  C     0.83320   0.82929   0.52488   0.00000  Uiso   1.00
C1298  C     0.83173   0.83034   0.97644   0.00000  Uiso   1.00
C1299  C     0.95720   0.83415   0.74891   0.00000  Uiso   1.00
C1300  C     0.70957   0.83153   0.75265   0.00000  Uiso   1.00
O1301  O     0.79076   0.71009   0.68271   0.00000  Uiso   1.00
H1302  H     0.78154   0.74017   0.69335   0.00000  Uiso   1.00
O1303  O     0.87898   0.95715   0.81512   0.00000  Uiso   1.00
H1304  H     0.88461   0.92537   0.80605   0.00000  Uiso   1.00
O1305  O     0.87670   0.71454   0.81697   0.00000  Uiso   1.00
H1306  H     0.88797   0.74351   0.80606   0.00000  Uiso   1.00
O1307  O     0.79023   0.95215   0.68281   0.00000  Uiso   1.00
H1308  H     0.77864   0.92341   0.69388   0.00000  Uiso   1.00
N1309  N     0.89749   0.88063   0.61982   0.00000  Uiso   1.00
O1310  O     0.91586   0.86315   0.65459   0.00000  Uiso   1.00
O1311  O     0.91279   0.91804   0.60358   0.00000  Uiso   1.00
N1312  N     0.80133   0.75193   0.88101   0.00000  Uiso   1.00
O1313  O     0.76986   0.75555   0.85309   0.00000  Uiso   1.00
O1314  O     0.81271   0.71089   0.89300   0.00000  Uiso   1.00
N1315  N     0.84187   0.91936   0.89135   0.00000  Uiso   1.00
O1316  O     0.81066   0.93842   0.87088   0.00000  Uiso   1.00
O1317  O     0.87259   0.94572   0.90600   0.00000  Uiso   1.00
N1318  N     0.76703   0.78857   0.61245   0.00000  Uiso   1.00
O1319  O     0.74887   0.75122   0.59564   0.00000  Uiso   1.00
O1320  O     0.74941   0.81210   0.64274   0.00000  Uiso   1.00
N1321  N     0.70493   0.75225   0.71886   0.00000  Uiso   1.00
O1322  O     0.71818   0.72208   0.74731   0.00000  Uiso   1.00
O1323  O     0.69901   0.73948   0.67762   0.00000  Uiso   1.00
N1324  N     0.96177   0.91053   0.78773   0.00000  Uiso   1.00
O1325  O     0.95273   0.94603   0.76358   0.00000  Uiso   1.00
O1326  O     0.96281   0.91504   0.83049   0.00000  Uiso   1.00
N1327  N     0.95370   0.75749   0.71019   0.00000  Uiso   1.00
O1328  O     0.93141   0.76419   0.67405   0.00000  Uiso   1.00
O1329  O     0.95604   0.71601   0.72599   0.00000  Uiso   1.00
N1330  N     0.71309   0.90619   0.79441   0.00000  Uiso   1.00
O1331  O     0.73589   0.89657   0.82946   0.00000  Uiso   1.00
O1332  O     0.70989   0.94902   0.78237   0.00000  Uiso   1.00
loop_
_geom_bond_atom_site_label_1
_geom_bond_atom_site_label_2
_geom_bond_distance
_geom_bond_site_symmetry_2
_ccdc_geom_bond_type
O1     Cu15    1.976   .     S
O1     C7      1.307   .     A
O2     Cu16    1.976   .     S
O2     C8      1.302   .     A
O3     Cu15    1.984   .     S
O3     C8      1.303   .     A
O4     Cu16    1.984   .     S
O4     C7      1.298   .     A
N5     Cu15    2.035   .     S
N5     C20     1.379   .     A
N5     C18     1.378   .     A
N6     C19     1.377   .     A
N6     Cu16    2.035   .     S
N6     C17     1.377   .     A
C7     C42     1.466   .     S
C8     C41     1.465   .     S
O9     Cu15    1.959   .     S
O9     C13     1.299   .     A
O10    Cu16    1.959   .     S
O10    C14     1.308   .     A
O11    C14     1.310   .     A
O11    Cu15    1.968   .     S
O12    Cu16    1.968   .     S
O12    C13     1.303   .     A
C13    C37     1.461   .     S
C14    C38     1.487   .     S
Cu15   Cu16    2.708   .     S
C17    O43     1.373   .     S
C17    C464    1.412   1_545 S
C18    O45     1.371   .     S
C18    C241    1.410   .     S
C19    O47     1.375   .     S
C19    C462    1.410   1_545 S
C20    O49     1.375   .     S
C20    C239    1.412   .     S
C21    C42     1.415   .     A
C21    N63     1.434   .     S
C21    C171    1.395   1_455 S
C22    C41     1.412   .     A
C22    N66     1.430   .     S
C22    C98     1.394   .     S
C23    N69     1.437   .     S
C23    C41     1.412   .     A
C23    C95     1.395   .     S
C24    N72     1.436   .     S
C24    C42     1.409   .     A
C24    C170    1.394   1_455 S
C25    C39     1.399   .     A
C25    H29     1.084   .     S
C25    C33     1.395   .     A
C26    C40     1.396   .     A
C26    H30     1.083   .     S
C26    C34     1.397   .     A
C27    C40     1.394   .     A
C27    H31     1.084   .     S
C27    C35     1.393   .     A
C28    H32     1.083   .     S
C28    C36     1.396   .     A
C28    C39     1.398   .     A
C33    C37     1.416   .     A
C33    N51     1.438   .     S
C34    N54     1.437   .     S
C34    C38     1.425   .     A
C35    N57     1.431   .     S
C35    C38     1.422   .     A
C36    N60     1.436   .     S
C36    C37     1.414   .     A
C39    C706    1.470   1_554 S
C40    C705    1.470   .     S
O43    H44     0.980   .     S
O45    H46     0.976   .     S
O47    H48     0.980   .     S
O49    H50     0.981   .     S
N51    O52     1.299   .     A
N51    O53     1.301   .     A
N54    O56     1.301   .     A
N54    O55     1.302   .     A
N57    O58     1.301   .     A
N57    O59     1.302   .     A
N60    O62     1.301   .     A
N60    O61     1.302   .     A
N63    O65     1.301   .     A
N63    O64     1.301   .     A
N66    O68     1.301   .     A
N66    O67     1.301   .     A
N69    O70     1.301   .     A
N69    O71     1.301   .     A
N72    O74     1.301   .     A
N72    O73     1.301   .     A
O75    Cu89    1.976   .     S
O75    C81     1.307   .     A
O76    Cu90    1.976   .     S
O76    C82     1.302   .     A
O77    Cu89    1.984   .     S
O77    C82     1.303   .     A
O78    Cu90    1.984   .     S
O78    C81     1.298   .     A
N79    Cu89    2.035   .     S
N79    C94     1.379   .     A
N79    C92     1.378   .     A
N80    C93     1.377   .     A
N80    Cu90    2.035   .     S
N80    C91     1.377   .     A
C81    C116    1.466   .     S
C82    C115    1.465   .     S
O83    Cu89    1.959   .     S
O83    C87     1.299   .     A
O84    Cu90    1.959   .     S
O84    C88     1.308   .     A
O85    C88     1.310   .     A
O85    Cu89    1.968   .     S
O86    Cu90    1.968   .     S
O86    C87     1.303   .     A
C87    C111    1.461   .     S
C88    C112    1.487   .     S
Cu89   Cu90    2.708   .     S
C91    O117    1.373   .     S
C91    C538    1.412   1_545 S
C92    O119    1.371   .     S
C92    C315    1.410   .     S
C93    O121    1.375   .     S
C93    C536    1.410   1_545 S
C94    O123    1.375   .     S
C94    C313    1.412   .     S
C95    C116    1.415   .     A
C95    N137    1.434   .     S
C96    C115    1.412   .     A
C96    N140    1.430   .     S
C96    C172    1.394   .     S
C97    N143    1.437   .     S
C97    C115    1.412   .     A
C97    C169    1.395   .     S
C98    N146    1.436   .     S
C98    C116    1.409   .     A
C99    C113    1.399   .     A
C99    H103    1.084   .     S
C99    C107    1.395   .     A
C100   C114    1.396   .     A
C100   H104    1.083   .     S
C100   C108    1.397   .     A
C101   C114    1.394   .     A
C101   H105    1.084   .     S
C101   C109    1.393   .     A
C102   H106    1.083   .     S
C102   C110    1.396   .     A
C102   C113    1.398   .     A
C107   C111    1.416   .     A
C107   N125    1.438   .     S
C108   N128    1.437   .     S
C108   C112    1.425   .     A
C109   N131    1.431   .     S
C109   C112    1.422   .     A
C110   N134    1.436   .     S
C110   C111    1.414   .     A
C113   C780    1.470   1_554 S
C114   C779    1.470   .     S
O117   H118    0.980   .     S
O119   H120    0.976   .     S
O121   H122    0.980   .     S
O123   H124    0.981   .     S
N125   O126    1.299   .     A
N125   O127    1.301   .     A
N128   O130    1.301   .     A
N128   O129    1.302   .     A
N131   O132    1.301   .     A
N131   O133    1.302   .     A
N134   O136    1.301   .     A
N134   O135    1.302   .     A
N137   O139    1.301   .     A
N137   O138    1.301   .     A
N140   O142    1.301   .     A
N140   O141    1.301   .     A
N143   O144    1.301   .     A
N143   O145    1.301   .     A
N146   O148    1.301   .     A
N146   O147    1.301   .     A
O149   Cu163   1.976   .     S
O149   C155    1.307   .     A
O150   Cu164   1.976   .     S
O150   C156    1.302   .     A
O151   Cu163   1.984   .     S
O151   C156    1.303   .     A
O152   Cu164   1.984   .     S
O152   C155    1.298   .     A
N153   Cu163   2.035   .     S
N153   C168    1.379   .     A
N153   C166    1.378   .     A
N154   C167    1.377   .     A
N154   Cu164   2.035   .     S
N154   C165    1.377   .     A
C155   C190    1.466   .     S
C156   C189    1.465   .     S
O157   Cu163   1.959   .     S
O157   C161    1.299   .     A
O158   Cu164   1.959   .     S
O158   C162    1.308   .     A
O159   C162    1.310   .     A
O159   Cu163   1.968   .     S
O160   Cu164   1.968   .     S
O160   C161    1.303   .     A
C161   C185    1.461   .     S
C162   C186    1.487   .     S
Cu163  Cu164   2.708   .     S
C165   O191    1.373   .     S
C165   C612    1.412   1_545 S
C166   O193    1.371   .     S
C166   C389    1.410   .     S
C167   O195    1.375   .     S
C167   C610    1.410   1_545 S
C168   O197    1.375   .     S
C168   C387    1.412   .     S
C169   C190    1.415   .     A
C169   N211    1.434   .     S
C170   C189    1.412   .     A
C170   N214    1.430   .     S
C170   C24     1.394   1_655 S
C171   N217    1.437   .     S
C171   C189    1.412   .     A
C171   C21     1.395   1_655 S
C172   N220    1.436   .     S
C172   C190    1.409   .     A
C173   C187    1.399   .     A
C173   H177    1.084   .     S
C173   C181    1.395   .     A
C174   C188    1.396   .     A
C174   H178    1.083   .     S
C174   C182    1.397   .     A
C175   C188    1.394   .     A
C175   H179    1.084   .     S
C175   C183    1.393   .     A
C176   H180    1.083   .     S
C176   C184    1.396   .     A
C176   C187    1.398   .     A
C181   C185    1.416   .     A
C181   N199    1.438   .     S
C182   N202    1.437   .     S
C182   C186    1.425   .     A
C183   N205    1.431   .     S
C183   C186    1.422   .     A
C184   N208    1.436   .     S
C184   C185    1.414   .     A
C187   C854    1.470   1_554 S
C188   C853    1.470   .     S
O191   H192    0.980   .     S
O193   H194    0.976   .     S
O195   H196    0.980   .     S
O197   H198    0.981   .     S
N199   O200    1.299   .     A
N199   O201    1.301   .     A
N202   O204    1.301   .     A
N202   O203    1.302   .     A
N205   O206    1.301   .     A
N205   O207    1.302   .     A
N208   O210    1.301   .     A
N208   O209    1.302   .     A
N211   O213    1.301   .     A
N211   O212    1.301   .     A
N214   O216    1.301   .     A
N214   O215    1.301   .     A
N217   O218    1.301   .     A
N217   O219    1.301   .     A
N220   O222    1.301   .     A
N220   O221    1.301   .     A
O223   Cu237   1.976   .     S
O223   C229    1.307   .     A
O224   Cu238   1.976   .     S
O224   C230    1.302   .     A
O225   Cu237   1.984   .     S
O225   C230    1.303   .     A
O226   Cu238   1.984   .     S
O226   C229    1.298   .     A
N227   Cu237   2.035   .     S
N227   C242    1.379   .     A
N227   C240    1.378   .     A
N228   C241    1.377   .     A
N228   Cu238   2.035   .     S
N228   C239    1.377   .     A
C229   C264    1.466   .     S
C230   C263    1.465   .     S
O231   Cu237   1.959   .     S
O231   C235    1.299   .     A
O232   Cu238   1.959   .     S
O232   C236    1.308   .     A
O233   C236    1.310   .     A
O233   Cu237   1.968   .     S
O234   Cu238   1.968   .     S
O234   C235    1.303   .     A
C235   C259    1.461   .     S
C236   C260    1.487   .     S
Cu237  Cu238   2.708   .     S
C239   O265    1.373   .     S
C240   O267    1.371   .     S
C240   C463    1.410   .     S
C241   O269    1.375   .     S
C242   O271    1.375   .     S
C242   C461    1.412   .     S
C243   C264    1.415   .     A
C243   N285    1.434   .     S
C243   C393    1.395   1_455 S
C244   C263    1.412   .     A
C244   N288    1.430   .     S
C244   C320    1.394   .     S
C245   N291    1.437   .     S
C245   C263    1.412   .     A
C245   C317    1.395   .     S
C246   N294    1.436   .     S
C246   C264    1.409   .     A
C246   C392    1.394   1_455 S
C247   C261    1.399   .     A
C247   H251    1.084   .     S
C247   C255    1.395   .     A
C248   C262    1.396   .     A
C248   H252    1.083   .     S
C248   C256    1.397   .     A
C249   C262    1.394   .     A
C249   H253    1.084   .     S
C249   C257    1.393   .     A
C250   H254    1.083   .     S
C250   C258    1.396   .     A
C250   C261    1.398   .     A
C255   C259    1.416   .     A
C255   N273    1.438   .     S
C256   N276    1.437   .     S
C256   C260    1.425   .     A
C257   N279    1.431   .     S
C257   C260    1.422   .     A
C258   N282    1.436   .     S
C258   C259    1.414   .     A
C261   C928    1.470   1_554 S
C262   C927    1.470   .     S
O265   H266    0.980   .     S
O267   H268    0.976   .     S
O269   H270    0.980   .     S
O271   H272    0.981   .     S
N273   O274    1.299   .     A
N273   O275    1.301   .     A
N276   O278    1.301   .     A
N276   O277    1.302   .     A
N279   O280    1.301   .     A
N279   O281    1.302   .     A
N282   O284    1.301   .     A
N282   O283    1.302   .     A
N285   O287    1.301   .     A
N285   O286    1.301   .     A
N288   O290    1.301   .     A
N288   O289    1.301   .     A
N291   O292    1.301   .     A
N291   O293    1.301   .     A
N294   O296    1.301   .     A
N294   O295    1.301   .     A
O297   Cu311   1.976   .     S
O297   C303    1.307   .     A
O298   Cu312   1.976   .     S
O298   C304    1.302   .     A
O299   Cu311   1.984   .     S
O299   C304    1.303   .     A
O300   Cu312   1.984   .     S
O300   C303    1.298   .     A
N301   Cu311   2.035   .     S
N301   C316    1.379   .     A
N301   C314    1.378   .     A
N302   C315    1.377   .     A
N302   Cu312   2.035   .     S
N302   C313    1.377   .     A
C303   C338    1.466   .     S
C304   C337    1.465   .     S
O305   Cu311   1.959   .     S
O305   C309    1.299   .     A
O306   Cu312   1.959   .     S
O306   C310    1.308   .     A
O307   C310    1.310   .     A
O307   Cu311   1.968   .     S
O308   Cu312   1.968   .     S
O308   C309    1.303   .     A
C309   C333    1.461   .     S
C310   C334    1.487   .     S
Cu311  Cu312   2.708   .     S
C313   O339    1.373   .     S
C314   O341    1.371   .     S
C314   C537    1.410   .     S
C315   O343    1.375   .     S
C316   O345    1.375   .     S
C316   C535    1.412   .     S
C317   C338    1.415   .     A
C317   N359    1.434   .     S
C318   C337    1.412   .     A
C318   N362    1.430   .     S
C318   C394    1.394   .     S
C319   N365    1.437   .     S
C319   C337    1.412   .     A
C319   C391    1.395   .     S
C320   N368    1.436   .     S
C320   C338    1.409   .     A
C321   C335    1.399   .     A
C321   H325    1.084   .     S
C321   C329    1.395   .     A
C322   C336    1.396   .     A
C322   H326    1.083   .     S
C322   C330    1.397   .     A
C323   C336    1.394   .     A
C323   H327    1.084   .     S
C323   C331    1.393   .     A
C324   H328    1.083   .     S
C324   C332    1.396   .     A
C324   C335    1.398   .     A
C329   C333    1.416   .     A
C329   N347    1.438   .     S
C330   N350    1.437   .     S
C330   C334    1.425   .     A
C331   N353    1.431   .     S
C331   C334    1.422   .     A
C332   N356    1.436   .     S
C332   C333    1.414   .     A
C335   C1002   1.470   1_554 S
C336   C1001   1.470   .     S
O339   H340    0.980   .     S
O341   H342    0.976   .     S
O343   H344    0.980   .     S
O345   H346    0.981   .     S
N347   O348    1.299   .     A
N347   O349    1.301   .     A
N350   O352    1.301   .     A
N350   O351    1.302   .     A
N353   O354    1.301   .     A
N353   O355    1.302   .     A
N356   O358    1.301   .     A
N356   O357    1.302   .     A
N359   O361    1.301   .     A
N359   O360    1.301   .     A
N362   O364    1.301   .     A
N362   O363    1.301   .     A
N365   O366    1.301   .     A
N365   O367    1.301   .     A
N368   O370    1.301   .     A
N368   O369    1.301   .     A
O371   Cu385   1.976   .     S
O371   C377    1.307   .     A
O372   Cu386   1.976   .     S
O372   C378    1.302   .     A
O373   Cu385   1.984   .     S
O373   C378    1.303   .     A
O374   Cu386   1.984   .     S
O374   C377    1.298   .     A
N375   Cu385   2.035   .     S
N375   C390    1.379   .     A
N375   C388    1.378   .     A
N376   C389    1.377   .     A
N376   Cu386   2.035   .     S
N376   C387    1.377   .     A
C377   C412    1.466   .     S
C378   C411    1.465   .     S
O379   Cu385   1.959   .     S
O379   C383    1.299   .     A
O380   Cu386   1.959   .     S
O380   C384    1.308   .     A
O381   C384    1.310   .     A
O381   Cu385   1.968   .     S
O382   Cu386   1.968   .     S
O382   C383    1.303   .     A
C383   C407    1.461   .     S
C384   C408    1.487   .     S
Cu385  Cu386   2.708   .     S
C387   O413    1.373   .     S
C388   O415    1.371   .     S
C388   C611    1.410   .     S
C389   O417    1.375   .     S
C390   O419    1.375   .     S
C390   C609    1.412   .     S
C391   C412    1.415   .     A
C391   N433    1.434   .     S
C392   C411    1.412   .     A
C392   N436    1.430   .     S
C392   C246    1.394   1_655 S
C393   N439    1.437   .     S
C393   C411    1.412   .     A
C393   C243    1.395   1_655 S
C394   N442    1.436   .     S
C394   C412    1.409   .     A
C395   C409    1.399   .     A
C395   H399    1.084   .     S
C395   C403    1.395   .     A
C396   C410    1.396   .     A
C396   H400    1.083   .     S
C396   C404    1.397   .     A
C397   C410    1.394   .     A
C397   H401    1.084   .     S
C397   C405    1.393   .     A
C398   H402    1.083   .     S
C398   C406    1.396   .     A
C398   C409    1.398   .     A
C403   C407    1.416   .     A
C403   N421    1.438   .     S
C404   N424    1.437   .     S
C404   C408    1.425   .     A
C405   N427    1.431   .     S
C405   C408    1.422   .     A
C406   N430    1.436   .     S
C406   C407    1.414   .     A
C409   C1076   1.470   1_554 S
C410   C1075   1.470   .     S
O413   H414    0.980   .     S
O415   H416    0.976   .     S
O417   H418    0.980   .     S
O419   H420    0.981   .     S
N421   O422    1.299   .     A
N421   O423    1.301   .     A
N424   O426    1.301   .     A
N424   O425    1.302   .     A
N427   O428    1.301   .     A
N427   O429    1.302   .     A
N430   O432    1.301   .     A
N430   O431    1.302   .     A
N433   O435    1.301   .     A
N433   O434    1.301   .     A
N436   O438    1.301   .     A
N436   O437    1.301   .     A
N439   O440    1.301   .     A
N439   O441    1.301   .     A
N442   O444    1.301   .     A
N442   O443    1.301   .     A
O445   Cu459   1.976   .     S
O445   C451    1.307   .     A
O446   Cu460   1.976   .     S
O446   C452    1.302   .     A
O447   Cu459   1.984   .     S
O447   C452    1.303   .     A
O448   Cu460   1.984   .     S
O448   C451    1.298   .     A
N449   Cu459   2.035   .     S
N449   C464    1.379   .     A
N449   C462    1.378   .     A
N450   C463    1.377   .     A
N450   Cu460   2.035   .     S
N450   C461    1.377   .     A
C451   C486    1.466   .     S
C452   C485    1.465   .     S
O453   Cu459   1.959   .     S
O453   C457    1.299   .     A
O454   Cu460   1.959   .     S
O454   C458    1.308   .     A
O455   C458    1.310   .     A
O455   Cu459   1.968   .     S
O456   Cu460   1.968   .     S
O456   C457    1.303   .     A
C457   C481    1.461   .     S
C458   C482    1.487   .     S
Cu459  Cu460   2.708   .     S
C461   O487    1.373   .     S
C462   O489    1.371   .     S
C462   C19     1.410   1_565 S
C463   O491    1.375   .     S
C464   O493    1.375   .     S
C464   C17     1.412   1_565 S
C465   C486    1.415   .     A
C465   N507    1.434   .     S
C465   C615    1.395   1_455 S
C466   C485    1.412   .     A
C466   N510    1.430   .     S
C466   C542    1.394   .     S
C467   N513    1.437   .     S
C467   C485    1.412   .     A
C467   C539    1.395   .     S
C468   N516    1.436   .     S
C468   C486    1.409   .     A
C468   C614    1.394   1_455 S
C469   C483    1.399   .     A
C469   H473    1.084   .     S
C469   C477    1.395   .     A
C470   C484    1.396   .     A
C470   H474    1.083   .     S
C470   C478    1.397   .     A
C471   C484    1.394   .     A
C471   H475    1.084   .     S
C471   C479    1.393   .     A
C472   H476    1.083   .     S
C472   C480    1.396   .     A
C472   C483    1.398   .     A
C477   C481    1.416   .     A
C477   N495    1.438   .     S
C478   N498    1.437   .     S
C478   C482    1.425   .     A
C479   N501    1.431   .     S
C479   C482    1.422   .     A
C480   N504    1.436   .     S
C480   C481    1.414   .     A
C483   C1150   1.470   1_554 S
C484   C1149   1.470   .     S
O487   H488    0.980   .     S
O489   H490    0.976   .     S
O491   H492    0.980   .     S
O493   H494    0.981   .     S
N495   O496    1.299   .     A
N495   O497    1.301   .     A
N498   O500    1.301   .     A
N498   O499    1.302   .     A
N501   O502    1.301   .     A
N501   O503    1.302   .     A
N504   O506    1.301   .     A
N504   O505    1.302   .     A
N507   O509    1.301   .     A
N507   O508    1.301   .     A
N510   O512    1.301   .     A
N510   O511    1.301   .     A
N513   O514    1.301   .     A
N513   O515    1.301   .     A
N516   O518    1.301   .     A
N516   O517    1.301   .     A
O519   Cu533   1.976   .     S
O519   C525    1.307   .     A
O520   Cu534   1.976   .     S
O520   C526    1.302   .     A
O521   Cu533   1.984   .     S
O521   C526    1.303   .     A
O522   Cu534   1.984   .     S
O522   C525    1.298   .     A
N523   Cu533   2.035   .     S
N523   C538    1.379   .     A
N523   C536    1.378   .     A
N524   C537    1.377   .     A
N524   Cu534   2.035   .     S
N524   C535    1.377   .     A
C525   C560    1.466   .     S
C526   C559    1.465   .     S
O527   Cu533   1.959   .     S
O527   C531    1.299   .     A
O528   Cu534   1.959   .     S
O528   C532    1.308   .     A
O529   C532    1.310   .     A
O529   Cu533   1.968   .     S
O530   Cu534   1.968   .     S
O530   C531    1.303   .     A
C531   C555    1.461   .     S
C532   C556    1.487   .     S
Cu533  Cu534   2.708   .     S
C535   O561    1.373   .     S
C536   O563    1.371   .     S
C536   C93     1.410   1_565 S
C537   O565    1.375   .     S
C538   O567    1.375   .     S
C538   C91     1.412   1_565 S
C539   C560    1.415   .     A
C539   N581    1.434   .     S
C540   C559    1.412   .     A
C540   N584    1.430   .     S
C540   C616    1.394   .     S
C541   N587    1.437   .     S
C541   C559    1.412   .     A
C541   C613    1.395   .     S
C542   N590    1.436   .     S
C542   C560    1.409   .     A
C543   C557    1.399   .     A
C543   H547    1.084   .     S
C543   C551    1.395   .     A
C544   C558    1.396   .     A
C544   H548    1.083   .     S
C544   C552    1.397   .     A
C545   C558    1.394   .     A
C545   H549    1.084   .     S
C545   C553    1.393   .     A
C546   H550    1.083   .     S
C546   C554    1.396   .     A
C546   C557    1.398   .     A
C551   C555    1.416   .     A
C551   N569    1.438   .     S
C552   N572    1.437   .     S
C552   C556    1.425   .     A
C553   N575    1.431   .     S
C553   C556    1.422   .     A
C554   N578    1.436   .     S
C554   C555    1.414   .     A
C557   C1224   1.470   1_554 S
C558   C1223   1.470   .     S
O561   H562    0.980   .     S
O563   H564    0.976   .     S
O565   H566    0.980   .     S
O567   H568    0.981   .     S
N569   O570    1.299   .     A
N569   O571    1.301   .     A
N572   O574    1.301   .     A
N572   O573    1.302   .     A
N575   O576    1.301   .     A
N575   O577    1.302   .     A
N578   O580    1.301   .     A
N578   O579    1.302   .     A
N581   O583    1.301   .     A
N581   O582    1.301   .     A
N584   O586    1.301   .     A
N584   O585    1.301   .     A
N587   O588    1.301   .     A
N587   O589    1.301   .     A
N590   O592    1.301   .     A
N590   O591    1.301   .     A
O593   Cu607   1.976   .     S
O593   C599    1.307   .     A
O594   Cu608   1.976   .     S
O594   C600    1.302   .     A
O595   Cu607   1.984   .     S
O595   C600    1.303   .     A
O596   Cu608   1.984   .     S
O596   C599    1.298   .     A
N597   Cu607   2.035   .     S
N597   C612    1.379   .     A
N597   C610    1.378   .     A
N598   C611    1.377   .     A
N598   Cu608   2.035   .     S
N598   C609    1.377   .     A
C599   C634    1.466   .     S
C600   C633    1.465   .     S
O601   Cu607   1.959   .     S
O601   C605    1.299   .     A
O602   Cu608   1.959   .     S
O602   C606    1.308   .     A
O603   C606    1.310   .     A
O603   Cu607   1.968   .     S
O604   Cu608   1.968   .     S
O604   C605    1.303   .     A
C605   C629    1.461   .     S
C606   C630    1.487   .     S
Cu607  Cu608   2.708   .     S
C609   O635    1.373   .     S
C610   O637    1.371   .     S
C610   C167    1.410   1_565 S
C611   O639    1.375   .     S
C612   O641    1.375   .     S
C612   C165    1.412   1_565 S
C613   C634    1.415   .     A
C613   N655    1.434   .     S
C614   C633    1.412   .     A
C614   N658    1.430   .     S
C614   C468    1.394   1_655 S
C615   N661    1.437   .     S
C615   C633    1.412   .     A
C615   C465    1.395   1_655 S
C616   N664    1.436   .     S
C616   C634    1.409   .     A
C617   C631    1.399   .     A
C617   H621    1.084   .     S
C617   C625    1.395   .     A
C618   C632    1.396   .     A
C618   H622    1.083   .     S
C618   C626    1.397   .     A
C619   C632    1.394   .     A
C619   H623    1.084   .     S
C619   C627    1.393   .     A
C620   H624    1.083   .     S
C620   C628    1.396   .     A
C620   C631    1.398   .     A
C625   C629    1.416   .     A
C625   N643    1.438   .     S
C626   N646    1.437   .     S
C626   C630    1.425   .     A
C627   N649    1.431   .     S
C627   C630    1.422   .     A
C628   N652    1.436   .     S
C628   C629    1.414   .     A
C631   C1298   1.470   1_554 S
C632   C1297   1.470   .     S
O635   H636    0.980   .     S
O637   H638    0.976   .     S
O639   H640    0.980   .     S
O641   H642    0.981   .     S
N643   O644    1.299   .     A
N643   O645    1.301   .     A
N646   O648    1.301   .     A
N646   O647    1.302   .     A
N649   O650    1.301   .     A
N649   O651    1.302   .     A
N652   O654    1.301   .     A
N652   O653    1.302   .     A
N655   O657    1.301   .     A
N655   O656    1.301   .     A
N658   O660    1.301   .     A
N658   O659    1.301   .     A
N661   O662    1.301   .     A
N661   O663    1.301   .     A
N664   O666    1.301   .     A
N664   O665    1.301   .     A
O667   Cu681   1.976   .     S
O667   C673    1.307   .     A
O668   Cu682   1.976   .     S
O668   C674    1.302   .     A
O669   Cu681   1.984   .     S
O669   C674    1.303   .     A
O670   Cu682   1.984   .     S
O670   C673    1.298   .     A
N671   Cu681   2.035   .     S
N671   C686    1.379   .     A
N671   C684    1.378   .     A
N672   C685    1.377   .     A
N672   Cu682   2.035   .     S
N672   C683    1.377   .     A
C673   C708    1.466   .     S
C674   C707    1.465   .     S
O675   Cu681   1.959   .     S
O675   C679    1.299   .     A
O676   Cu682   1.959   .     S
O676   C680    1.308   .     A
O677   C680    1.310   .     A
O677   Cu681   1.968   .     S
O678   Cu682   1.968   .     S
O678   C679    1.303   .     A
C679   C703    1.461   .     S
C680   C704    1.487   .     S
Cu681  Cu682   2.708   .     S
C683   O709    1.373   .     S
C683   C1130   1.412   1_545 S
C684   O711    1.371   .     S
C684   C907    1.410   .     S
C685   O713    1.375   .     S
C685   C1128   1.410   1_545 S
C686   O715    1.375   .     S
C686   C905    1.412   .     S
C687   C708    1.415   .     A
C687   N729    1.434   .     S
C687   C837    1.395   1_455 S
C688   C707    1.412   .     A
C688   N732    1.430   .     S
C688   C764    1.394   .     S
C689   N735    1.437   .     S
C689   C707    1.412   .     A
C689   C761    1.395   .     S
C690   N738    1.436   .     S
C690   C708    1.409   .     A
C690   C836    1.394   1_455 S
C691   C705    1.399   .     A
C691   H695    1.084   .     S
C691   C699    1.395   .     A
C692   C706    1.396   .     A
C692   H696    1.083   .     S
C692   C700    1.397   .     A
C693   C706    1.394   .     A
C693   H697    1.084   .     S
C693   C701    1.393   .     A
C694   H698    1.083   .     S
C694   C702    1.396   .     A
C694   C705    1.398   .     A
C699   C703    1.416   .     A
C699   N717    1.438   .     S
C700   N720    1.437   .     S
C700   C704    1.425   .     A
C701   N723    1.431   .     S
C701   C704    1.422   .     A
C702   N726    1.436   .     S
C702   C703    1.414   .     A
C706   C39     1.470   1_556 S
O709   H710    0.980   .     S
O711   H712    0.976   .     S
O713   H714    0.980   .     S
O715   H716    0.981   .     S
N717   O718    1.299   .     A
N717   O719    1.301   .     A
N720   O722    1.301   .     A
N720   O721    1.302   .     A
N723   O724    1.301   .     A
N723   O725    1.302   .     A
N726   O728    1.301   .     A
N726   O727    1.302   .     A
N729   O731    1.301   .     A
N729   O730    1.301   .     A
N732   O734    1.301   .     A
N732   O733    1.301   .     A
N735   O736    1.301   .     A
N735   O737    1.301   .     A
N738   O740    1.301   .     A
N738   O739    1.301   .     A
O741   Cu755   1.976   .     S
O741   C747    1.307   .     A
O742   Cu756   1.976   .     S
O742   C748    1.302   .     A
O743   Cu755   1.984   .     S
O743   C748    1.303   .     A
O744   Cu756   1.984   .     S
O744   C747    1.298   .     A
N745   Cu755   2.035   .     S
N745   C760    1.379   .     A
N745   C758    1.378   .     A
N746   C759    1.377   .     A
N746   Cu756   2.035   .     S
N746   C757    1.377   .     A
C747   C782    1.466   .     S
C748   C781    1.465   .     S
O749   Cu755   1.959   .     S
O749   C753    1.299   .     A
O750   Cu756   1.959   .     S
O750   C754    1.308   .     A
O751   C754    1.310   .     A
O751   Cu755   1.968   .     S
O752   Cu756   1.968   .     S
O752   C753    1.303   .     A
C753   C777    1.461   .     S
C754   C778    1.487   .     S
Cu755  Cu756   2.708   .     S
C757   O783    1.373   .     S
C757   C1204   1.412   1_545 S
C758   O785    1.371   .     S
C758   C981    1.410   .     S
C759   O787    1.375   .     S
C759   C1202   1.410   1_545 S
C760   O789    1.375   .     S
C760   C979    1.412   .     S
C761   C782    1.415   .     A
C761   N803    1.434   .     S
C762   C781    1.412   .     A
C762   N806    1.430   .     S
C762   C838    1.394   .     S
C763   N809    1.437   .     S
C763   C781    1.412   .     A
C763   C835    1.395   .     S
C764   N812    1.436   .     S
C764   C782    1.409   .     A
C765   C779    1.399   .     A
C765   H769    1.084   .     S
C765   C773    1.395   .     A
C766   C780    1.396   .     A
C766   H770    1.083   .     S
C766   C774    1.397   .     A
C767   C780    1.394   .     A
C767   H771    1.084   .     S
C767   C775    1.393   .     A
C768   H772    1.083   .     S
C768   C776    1.396   .     A
C768   C779    1.398   .     A
C773   C777    1.416   .     A
C773   N791    1.438   .     S
C774   N794    1.437   .     S
C774   C778    1.425   .     A
C775   N797    1.431   .     S
C775   C778    1.422   .     A
C776   N800    1.436   .     S
C776   C777    1.414   .     A
C780   C113    1.470   1_556 S
O783   H784    0.980   .     S
O785   H786    0.976   .     S
O787   H788    0.980   .     S
O789   H790    0.981   .     S
N791   O792    1.299   .     A
N791   O793    1.301   .     A
N794   O796    1.301   .     A
N794   O795    1.302   .     A
N797   O798    1.301   .     A
N797   O799    1.302   .     A
N800   O802    1.301   .     A
N800   O801    1.302   .     A
N803   O805    1.301   .     A
N803   O804    1.301   .     A
N806   O808    1.301   .     A
N806   O807    1.301   .     A
N809   O810    1.301   .     A
N809   O811    1.301   .     A
N812   O814    1.301   .     A
N812   O813    1.301   .     A
O815   Cu829   1.976   .     S
O815   C821    1.307   .     A
O816   Cu830   1.976   .     S
O816   C822    1.302   .     A
O817   Cu829   1.984   .     S
O817   C822    1.303   .     A
O818   Cu830   1.984   .     S
O818   C821    1.298   .     A
N819   Cu829   2.035   .     S
N819   C834    1.379   .     A
N819   C832    1.378   .     A
N820   C833    1.377   .     A
N820   Cu830   2.035   .     S
N820   C831    1.377   .     A
C821   C856    1.466   .     S
C822   C855    1.465   .     S
O823   Cu829   1.959   .     S
O823   C827    1.299   .     A
O824   Cu830   1.959   .     S
O824   C828    1.308   .     A
O825   C828    1.310   .     A
O825   Cu829   1.968   .     S
O826   Cu830   1.968   .     S
O826   C827    1.303   .     A
C827   C851    1.461   .     S
C828   C852    1.487   .     S
Cu829  Cu830   2.708   .     S
C831   O857    1.373   .     S
C831   C1278   1.412   1_545 S
C832   O859    1.371   .     S
C832   C1055   1.410   .     S
C833   O861    1.375   .     S
C833   C1276   1.410   1_545 S
C834   O863    1.375   .     S
C834   C1053   1.412   .     S
C835   C856    1.415   .     A
C835   N877    1.434   .     S
C836   C855    1.412   .     A
C836   N880    1.430   .     S
C836   C690    1.394   1_655 S
C837   N883    1.437   .     S
C837   C855    1.412   .     A
C837   C687    1.395   1_655 S
C838   N886    1.436   .     S
C838   C856    1.409   .     A
C839   C853    1.399   .     A
C839   H843    1.084   .     S
C839   C847    1.395   .     A
C840   C854    1.396   .     A
C840   H844    1.083   .     S
C840   C848    1.397   .     A
C841   C854    1.394   .     A
C841   H845    1.084   .     S
C841   C849    1.393   .     A
C842   H846    1.083   .     S
C842   C850    1.396   .     A
C842   C853    1.398   .     A
C847   C851    1.416   .     A
C847   N865    1.438   .     S
C848   N868    1.437   .     S
C848   C852    1.425   .     A
C849   N871    1.431   .     S
C849   C852    1.422   .     A
C850   N874    1.436   .     S
C850   C851    1.414   .     A
C854   C187    1.470   1_556 S
O857   H858    0.980   .     S
O859   H860    0.976   .     S
O861   H862    0.980   .     S
O863   H864    0.981   .     S
N865   O866    1.299   .     A
N865   O867    1.301   .     A
N868   O870    1.301   .     A
N868   O869    1.302   .     A
N871   O872    1.301   .     A
N871   O873    1.302   .     A
N874   O876    1.301   .     A
N874   O875    1.302   .     A
N877   O879    1.301   .     A
N877   O878    1.301   .     A
N880   O882    1.301   .     A
N880   O881    1.301   .     A
N883   O884    1.301   .     A
N883   O885    1.301   .     A
N886   O888    1.301   .     A
N886   O887    1.301   .     A
O889   Cu903   1.976   .     S
O889   C895    1.307   .     A
O890   Cu904   1.976   .     S
O890   C896    1.302   .     A
O891   Cu903   1.984   .     S
O891   C896    1.303   .     A
O892   Cu904   1.984   .     S
O892   C895    1.298   .     A
N893   Cu903   2.035   .     S
N893   C908    1.379   .     A
N893   C906    1.378   .     A
N894   C907    1.377   .     A
N894   Cu904   2.035   .     S
N894   C905    1.377   .     A
C895   C930    1.466   .     S
C896   C929    1.465   .     S
O897   Cu903   1.959   .     S
O897   C901    1.299   .     A
O898   Cu904   1.959   .     S
O898   C902    1.308   .     A
O899   C902    1.310   .     A
O899   Cu903   1.968   .     S
O900   Cu904   1.968   .     S
O900   C901    1.303   .     A
C901   C925    1.461   .     S
C902   C926    1.487   .     S
Cu903  Cu904   2.708   .     S
C905   O931    1.373   .     S
C906   O933    1.371   .     S
C906   C1129   1.410   .     S
C907   O935    1.375   .     S
C908   O937    1.375   .     S
C908   C1127   1.412   .     S
C909   C930    1.415   .     A
C909   N951    1.434   .     S
C909   C1059   1.395   1_455 S
C910   C929    1.412   .     A
C910   N954    1.430   .     S
C910   C986    1.394   .     S
C911   N957    1.437   .     S
C911   C929    1.412   .     A
C911   C983    1.395   .     S
C912   N960    1.436   .     S
C912   C930    1.409   .     A
C912   C1058   1.394   1_455 S
C913   C927    1.399   .     A
C913   H917    1.084   .     S
C913   C921    1.395   .     A
C914   C928    1.396   .     A
C914   H918    1.083   .     S
C914   C922    1.397   .     A
C915   C928    1.394   .     A
C915   H919    1.084   .     S
C915   C923    1.393   .     A
C916   H920    1.083   .     S
C916   C924    1.396   .     A
C916   C927    1.398   .     A
C921   C925    1.416   .     A
C921   N939    1.438   .     S
C922   N942    1.437   .     S
C922   C926    1.425   .     A
C923   N945    1.431   .     S
C923   C926    1.422   .     A
C924   N948    1.436   .     S
C924   C925    1.414   .     A
C928   C261    1.470   1_556 S
O931   H932    0.980   .     S
O933   H934    0.976   .     S
O935   H936    0.980   .     S
O937   H938    0.981   .     S
N939   O940    1.299   .     A
N939   O941    1.301   .     A
N942   O944    1.301   .     A
N942   O943    1.302   .     A
N945   O946    1.301   .     A
N945   O947    1.302   .     A
N948   O950    1.301   .     A
N948   O949    1.302   .     A
N951   O953    1.301   .     A
N951   O952    1.301   .     A
N954   O956    1.301   .     A
N954   O955    1.301   .     A
N957   O958    1.301   .     A
N957   O959    1.301   .     A
N960   O962    1.301   .     A
N960   O961    1.301   .     A
O963   Cu977   1.976   .     S
O963   C969    1.307   .     A
O964   Cu978   1.976   .     S
O964   C970    1.302   .     A
O965   Cu977   1.984   .     S
O965   C970    1.303   .     A
O966   Cu978   1.984   .     S
O966   C969    1.298   .     A
N967   Cu977   2.035   .     S
N967   C982    1.379   .     A
N967   C980    1.378   .     A
N968   C981    1.377   .     A
N968   Cu978   2.035   .     S
N968   C979    1.377   .     A
C969   C1004   1.466   .     S
C970   C1003   1.465   .     S
O971   Cu977   1.959   .     S
O971   C975    1.299   .     A
O972   Cu978   1.959   .     S
O972   C976    1.308   .     A
O973   C976    1.310   .     A
O973   Cu977   1.968   .     S
O974   Cu978   1.968   .     S
O974   C975    1.303   .     A
C975   C999    1.461   .     S
C976   C1000   1.487   .     S
Cu977  Cu978   2.708   .     S
C979   O1005   1.373   .     S
C980   O1007   1.371   .     S
C980   C1203   1.410   .     S
C981   O1009   1.375   .     S
C982   O1011   1.375   .     S
C982   C1201   1.412   .     S
C983   C1004   1.415   .     A
C983   N1025   1.434   .     S
C984   C1003   1.412   .     A
C984   N1028   1.430   .     S
C984   C1060   1.394   .     S
C985   N1031   1.437   .     S
C985   C1003   1.412   .     A
C985   C1057   1.395   .     S
C986   N1034   1.436   .     S
C986   C1004   1.409   .     A
C987   C1001   1.399   .     A
C987   H991    1.084   .     S
C987   C995    1.395   .     A
C988   C1002   1.396   .     A
C988   H992    1.083   .     S
C988   C996    1.397   .     A
C989   C1002   1.394   .     A
C989   H993    1.084   .     S
C989   C997    1.393   .     A
C990   H994    1.083   .     S
C990   C998    1.396   .     A
C990   C1001   1.398   .     A
C995   C999    1.416   .     A
C995   N1013   1.438   .     S
C996   N1016   1.437   .     S
C996   C1000   1.425   .     A
C997   N1019   1.431   .     S
C997   C1000   1.422   .     A
C998   N1022   1.436   .     S
C998   C999    1.414   .     A
C1002  C335    1.470   1_556 S
O1005  H1006   0.980   .     S
O1007  H1008   0.976   .     S
O1009  H1010   0.980   .     S
O1011  H1012   0.981   .     S
N1013  O1014   1.299   .     A
N1013  O1015   1.301   .     A
N1016  O1018   1.301   .     A
N1016  O1017   1.302   .     A
N1019  O1020   1.301   .     A
N1019  O1021   1.302   .     A
N1022  O1024   1.301   .     A
N1022  O1023   1.302   .     A
N1025  O1027   1.301   .     A
N1025  O1026   1.301   .     A
N1028  O1030   1.301   .     A
N1028  O1029   1.301   .     A
N1031  O1032   1.301   .     A
N1031  O1033   1.301   .     A
N1034  O1036   1.301   .     A
N1034  O1035   1.301   .     A
O1037  Cu1051  1.976   .     S
O1037  C1043   1.307   .     A
O1038  Cu1052  1.976   .     S
O1038  C1044   1.302   .     A
O1039  Cu1051  1.984   .     S
O1039  C1044   1.303   .     A
O1040  Cu1052  1.984   .     S
O1040  C1043   1.298   .     A
N1041  Cu1051  2.035   .     S
N1041  C1056   1.379   .     A
N1041  C1054   1.378   .     A
N1042  C1055   1.377   .     A
N1042  Cu1052  2.035   .     S
N1042  C1053   1.377   .     A
C1043  C1078   1.466   .     S
C1044  C1077   1.465   .     S
O1045  Cu1051  1.959   .     S
O1045  C1049   1.299   .     A
O1046  Cu1052  1.959   .     S
O1046  C1050   1.308   .     A
O1047  C1050   1.310   .     A
O1047  Cu1051  1.968   .     S
O1048  Cu1052  1.968   .     S
O1048  C1049   1.303   .     A
C1049  C1073   1.461   .     S
C1050  C1074   1.487   .     S
Cu1051 Cu1052  2.708   .     S
C1053  O1079   1.373   .     S
C1054  O1081   1.371   .     S
C1054  C1277   1.410   .     S
C1055  O1083   1.375   .     S
C1056  O1085   1.375   .     S
C1056  C1275   1.412   .     S
C1057  C1078   1.415   .     A
C1057  N1099   1.434   .     S
C1058  C1077   1.412   .     A
C1058  N1102   1.430   .     S
C1058  C912    1.394   1_655 S
C1059  N1105   1.437   .     S
C1059  C1077   1.412   .     A
C1059  C909    1.395   1_655 S
C1060  N1108   1.436   .     S
C1060  C1078   1.409   .     A
C1061  C1075   1.399   .     A
C1061  H1065   1.084   .     S
C1061  C1069   1.395   .     A
C1062  C1076   1.396   .     A
C1062  H1066   1.083   .     S
C1062  C1070   1.397   .     A
C1063  C1076   1.394   .     A
C1063  H1067   1.084   .     S
C1063  C1071   1.393   .     A
C1064  H1068   1.083   .     S
C1064  C1072   1.396   .     A
C1064  C1075   1.398   .     A
C1069  C1073   1.416   .     A
C1069  N1087   1.438   .     S
C1070  N1090   1.437   .     S
C1070  C1074   1.425   .     A
C1071  N1093   1.431   .     S
C1071  C1074   1.422   .     A
C1072  N1096   1.436   .     S
C1072  C1073   1.414   .     A
C1076  C409    1.470   1_556 S
O1079  H1080   0.980   .     S
O1081  H1082   0.976   .     S
O1083  H1084   0.980   .     S
O1085  H1086   0.981   .     S
N1087  O1088   1.299   .     A
N1087  O1089   1.301   .     A
N1090  O1092   1.301   .     A
N1090  O1091   1.302   .     A
N1093  O1094   1.301   .     A
N1093  O1095   1.302   .     A
N1096  O1098   1.301   .     A
N1096  O1097   1.302   .     A
N1099  O1101   1.301   .     A
N1099  O1100   1.301   .     A
N1102  O1104   1.301   .     A
N1102  O1103   1.301   .     A
N1105  O1106   1.301   .     A
N1105  O1107   1.301   .     A
N1108  O1110   1.301   .     A
N1108  O1109   1.301   .     A
O1111  Cu1125  1.976   .     S
O1111  C1117   1.307   .     A
O1112  Cu1126  1.976   .     S
O1112  C1118   1.302   .     A
O1113  Cu1125  1.984   .     S
O1113  C1118   1.303   .     A
O1114  Cu1126  1.984   .     S
O1114  C1117   1.298   .     A
N1115  Cu1125  2.035   .     S
N1115  C1130   1.379   .     A
N1115  C1128   1.378   .     A
N1116  C1129   1.377   .     A
N1116  Cu1126  2.035   .     S
N1116  C1127   1.377   .     A
C1117  C1152   1.466   .     S
C1118  C1151   1.465   .     S
O1119  Cu1125  1.959   .     S
O1119  C1123   1.299   .     A
O1120  Cu1126  1.959   .     S
O1120  C1124   1.308   .     A
O1121  C1124   1.310   .     A
O1121  Cu1125  1.968   .     S
O1122  Cu1126  1.968   .     S
O1122  C1123   1.303   .     A
C1123  C1147   1.461   .     S
C1124  C1148   1.487   .     S
Cu1125 Cu1126  2.708   .     S
C1127  O1153   1.373   .     S
C1128  O1155   1.371   .     S
C1128  C685    1.410   1_565 S
C1129  O1157   1.375   .     S
C1130  O1159   1.375   .     S
C1130  C683    1.412   1_565 S
C1131  C1152   1.415   .     A
C1131  N1173   1.434   .     S
C1131  C1281   1.395   1_455 S
C1132  C1151   1.412   .     A
C1132  N1176   1.430   .     S
C1132  C1208   1.394   .     S
C1133  N1179   1.437   .     S
C1133  C1151   1.412   .     A
C1133  C1205   1.395   .     S
C1134  N1182   1.436   .     S
C1134  C1152   1.409   .     A
C1134  C1280   1.394   1_455 S
C1135  C1149   1.399   .     A
C1135  H1139   1.084   .     S
C1135  C1143   1.395   .     A
C1136  C1150   1.396   .     A
C1136  H1140   1.083   .     S
C1136  C1144   1.397   .     A
C1137  C1150   1.394   .     A
C1137  H1141   1.084   .     S
C1137  C1145   1.393   .     A
C1138  H1142   1.083   .     S
C1138  C1146   1.396   .     A
C1138  C1149   1.398   .     A
C1143  C1147   1.416   .     A
C1143  N1161   1.438   .     S
C1144  N1164   1.437   .     S
C1144  C1148   1.425   .     A
C1145  N1167   1.431   .     S
C1145  C1148   1.422   .     A
C1146  N1170   1.436   .     S
C1146  C1147   1.414   .     A
C1150  C483    1.470   1_556 S
O1153  H1154   0.980   .     S
O1155  H1156   0.976   .     S
O1157  H1158   0.980   .     S
O1159  H1160   0.981   .     S
N1161  O1162   1.299   .     A
N1161  O1163   1.301   .     A
N1164  O1166   1.301   .     A
N1164  O1165   1.302   .     A
N1167  O1168   1.301   .     A
N1167  O1169   1.302   .     A
N1170  O1172   1.301   .     A
N1170  O1171   1.302   .     A
N1173  O1175   1.301   .     A
N1173  O1174   1.301   .     A
N1176  O1178   1.301   .     A
N1176  O1177   1.301   .     A
N1179  O1180   1.301   .     A
N1179  O1181   1.301   .     A
N1182  O1184   1.301   .     A
N1182  O1183   1.301   .     A
O1185  Cu1199  1.976   .     S
O1185  C1191   1.307   .     A
O1186  Cu1200  1.976   .     S
O1186  C1192   1.302   .     A
O1187  Cu1199  1.984   .     S
O1187  C1192   1.303   .     A
O1188  Cu1200  1.984   .     S
O1188  C1191   1.298   .     A
N1189  Cu1199  2.035   .     S
N1189  C1204   1.379   .     A
N1189  C1202   1.378   .     A
N1190  C1203   1.377   .     A
N1190  Cu1200  2.035   .     S
N1190  C1201   1.377   .     A
C1191  C1226   1.466   .     S
C1192  C1225   1.465   .     S
O1193  Cu1199  1.959   .     S
O1193  C1197   1.299   .     A
O1194  Cu1200  1.959   .     S
O1194  C1198   1.308   .     A
O1195  C1198   1.310   .     A
O1195  Cu1199  1.968   .     S
O1196  Cu1200  1.968   .     S
O1196  C1197   1.303   .     A
C1197  C1221   1.461   .     S
C1198  C1222   1.487   .     S
Cu1199 Cu1200  2.708   .     S
C1201  O1227   1.373   .     S
C1202  O1229   1.371   .     S
C1202  C759    1.410   1_565 S
C1203  O1231   1.375   .     S
C1204  O1233   1.375   .     S
C1204  C757    1.412   1_565 S
C1205  C1226   1.415   .     A
C1205  N1247   1.434   .     S
C1206  C1225   1.412   .     A
C1206  N1250   1.430   .     S
C1206  C1282   1.394   .     S
C1207  N1253   1.437   .     S
C1207  C1225   1.412   .     A
C1207  C1279   1.395   .     S
C1208  N1256   1.436   .     S
C1208  C1226   1.409   .     A
C1209  C1223   1.399   .     A
C1209  H1213   1.084   .     S
C1209  C1217   1.395   .     A
C1210  C1224   1.396   .     A
C1210  H1214   1.083   .     S
C1210  C1218   1.397   .     A
C1211  C1224   1.394   .     A
C1211  H1215   1.084   .     S
C1211  C1219   1.393   .     A
C1212  H1216   1.083   .     S
C1212  C1220   1.396   .     A
C1212  C1223   1.398   .     A
C1217  C1221   1.416   .     A
C1217  N1235   1.438   .     S
C1218  N1238   1.437   .     S
C1218  C1222   1.425   .     A
C1219  N1241   1.431   .     S
C1219  C1222   1.422   .     A
C1220  N1244   1.436   .     S
C1220  C1221   1.414   .     A
C1224  C557    1.470   1_556 S
O1227  H1228   0.980   .     S
O1229  H1230   0.976   .     S
O1231  H1232   0.980   .     S
O1233  H1234   0.981   .     S
N1235  O1236   1.299   .     A
N1235  O1237   1.301   .     A
N1238  O1240   1.301   .     A
N1238  O1239   1.302   .     A
N1241  O1242   1.301   .     A
N1241  O1243   1.302   .     A
N1244  O1246   1.301   .     A
N1244  O1245   1.302   .     A
N1247  O1249   1.301   .     A
N1247  O1248   1.301   .     A
N1250  O1252   1.301   .     A
N1250  O1251   1.301   .     A
N1253  O1254   1.301   .     A
N1253  O1255   1.301   .     A
N1256  O1258   1.301   .     A
N1256  O1257   1.301   .     A
O1259  Cu1273  1.976   .     S
O1259  C1265   1.307   .     A
O1260  Cu1274  1.976   .     S
O1260  C1266   1.302   .     A
O1261  Cu1273  1.984   .     S
O1261  C1266   1.303   .     A
O1262  Cu1274  1.984   .     S
O1262  C1265   1.298   .     A
N1263  Cu1273  2.035   .     S
N1263  C1278   1.379   .     A
N1263  C1276   1.378   .     A
N1264  C1277   1.377   .     A
N1264  Cu1274  2.035   .     S
N1264  C1275   1.377   .     A
C1265  C1300   1.466   .     S
C1266  C1299   1.465   .     S
O1267  Cu1273  1.959   .     S
O1267  C1271   1.299   .     A
O1268  Cu1274  1.959   .     S
O1268  C1272   1.308   .     A
O1269  C1272   1.310   .     A
O1269  Cu1273  1.968   .     S
O1270  Cu1274  1.968   .     S
O1270  C1271   1.303   .     A
C1271  C1295   1.461   .     S
C1272  C1296   1.487   .     S
Cu1273 Cu1274  2.708   .     S
C1275  O1301   1.373   .     S
C1276  O1303   1.371   .     S
C1276  C833    1.410   1_565 S
C1277  O1305   1.375   .     S
C1278  O1307   1.375   .     S
C1278  C831    1.412   1_565 S
C1279  C1300   1.415   .     A
C1279  N1321   1.434   .     S
C1280  C1299   1.412   .     A
C1280  N1324   1.430   .     S
C1280  C1134   1.394   1_655 S
C1281  N1327   1.437   .     S
C1281  C1299   1.412   .     A
C1281  C1131   1.395   1_655 S
C1282  N1330   1.436   .     S
C1282  C1300   1.409   .     A
C1283  C1297   1.399   .     A
C1283  H1287   1.084   .     S
C1283  C1291   1.395   .     A
C1284  C1298   1.396   .     A
C1284  H1288   1.083   .     S
C1284  C1292   1.397   .     A
C1285  C1298   1.394   .     A
C1285  H1289   1.084   .     S
C1285  C1293   1.393   .     A
C1286  H1290   1.083   .     S
C1286  C1294   1.396   .     A
C1286  C1297   1.398   .     A
C1291  C1295   1.416   .     A
C1291  N1309   1.438   .     S
C1292  N1312   1.437   .     S
C1292  C1296   1.425   .     A
C1293  N1315   1.431   .     S
C1293  C1296   1.422   .     A
C1294  N1318   1.436   .     S
C1294  C1295   1.414   .     A
C1298  C631    1.470   1_556 S
O1301  H1302   0.980   .     S
O1303  H1304   0.976   .     S
O1305  H1306   0.980   .     S
O1307  H1308   0.981   .     S
N1309  O1310   1.299   .     A
N1309  O1311   1.301   .     A
N1312  O1314   1.301   .     A
N1312  O1313   1.302   .     A
N1315  O1316   1.301   .     A
N1315  O1317   1.302   .     A
N1318  O1320   1.301   .     A
N1318  O1319   1.302   .     A
N1321  O1323   1.301   .     A
N1321  O1322   1.301   .     A
N1324  O1326   1.301   .     A
N1324  O1325   1.301   .     A
N1327  O1328   1.301   .     A
N1327  O1329   1.301   .     A
N1330  O1332   1.301   .     A
N1330  O1331   1.301   .     A
