data_str_m2_o2_o10_pcu_sym.72
_audit_creation_date              2020-01-03
_audit_creation_method            'Materials Studio'
_symmetry_space_group_name_H-M    'P1'
_symmetry_Int_Tables_number       1
_symmetry_cell_setting            triclinic
loop_
_symmetry_equiv_pos_as_xyz
  x,y,z
_cell_length_a                    26.1619
_cell_length_b                    30.1968
_cell_length_c                    27.7390
_cell_angle_alpha                 90.2813
_cell_angle_beta                  98.0043
_cell_angle_gamma                 90.1539
loop_
_atom_site_label
_atom_site_type_symbol
_atom_site_fract_x
_atom_site_fract_y
_atom_site_fract_z
_atom_site_U_iso_or_equiv
_atom_site_adp_type
_atom_site_occupancy
C1     C     0.16680   0.16505   0.24989   0.00000  Uiso   1.00
C2     C     0.19085   0.28407   0.44938   0.00000  Uiso   1.00
C3     C     0.16663   0.25003   0.02733   0.00000  Uiso   1.00
C4     C     0.16661   0.25004   0.47265   0.00000  Uiso   1.00
C5     C     0.06789   0.24997   0.23753   0.00000  Uiso   1.00
C6     C     0.26544   0.25000   0.26246   0.00000  Uiso   1.00
C7     C     0.01259   0.24996   0.23066   0.00000  Uiso   1.00
C8     C     0.32074   0.24995   0.26933   0.00000  Uiso   1.00
C9     C     0.13602   0.04726   0.27460   0.00000  Uiso   1.00
C10    C     0.15537   0.45326   0.20900   0.00000  Uiso   1.00
C11    C     0.13485   0.09317   0.27505   0.00000  Uiso   1.00
C12    C     0.16697   0.33515   0.25020   0.00000  Uiso   1.00
C13    C     0.15415   0.40734   0.20808   0.00000  Uiso   1.00
C14    C     0.16817   0.11700   0.24970   0.00000  Uiso   1.00
C15    C     0.16825   0.38357   0.25097   0.00000  Uiso   1.00
C16    C     0.20299   0.09496   0.22410   0.00000  Uiso   1.00
C17    C     0.18344   0.40622   0.29490   0.00000  Uiso   1.00
C18    C     0.20615   0.04867   0.22472   0.00000  Uiso   1.00
C19    C     0.18553   0.45256   0.29646   0.00000  Uiso   1.00
C20    C     0.17223   0.02470   0.25088   0.00000  Uiso   1.00
C21    C     0.17202   0.47617   0.25242   0.00000  Uiso   1.00
C22    C     0.24572   0.02659   0.19731   0.00000  Uiso   1.00
C23    C     0.20648   0.27058   0.05928   0.00000  Uiso   1.00
C24    C     0.29121   0.00763   0.23184   0.00000  Uiso   1.00
C25    C     0.00062   0.49120   0.20404   0.00000  Uiso   1.00
C26    C     0.20097   0.47507   0.34551   0.00000  Uiso   1.00
C27    C     0.25422   0.49718   0.34952   0.00000  Uiso   1.00
C28    C     0.27069   0.01592   0.40052   0.00000  Uiso   1.00
C29    C     0.14236   0.21600   0.44267   0.00000  Uiso   1.00
C30    C     0.20555   0.27047   0.10988   0.00000  Uiso   1.00
C31    C     0.14251   0.21679   0.39197   0.00000  Uiso   1.00
C32    C     0.12776   0.22957   0.09948   0.00000  Uiso   1.00
C33    C     0.19074   0.28324   0.39864   0.00000  Uiso   1.00
C34    C     0.12679   0.22948   0.04862   0.00000  Uiso   1.00
Cu35   Cu    0.16667   0.24999   0.29821   0.00000  Uiso   1.00
Cu36   Cu    0.16667   0.25000   0.20178   0.00000  Uiso   1.00
H37    H     0.22861   0.11412   0.20467   0.00000  Uiso   1.00
H38    H     0.14304   0.47112   0.17563   0.00000  Uiso   1.00
H39    H     0.10724   0.11009   0.29428   0.00000  Uiso   1.00
H40    H     0.14149   0.39046   0.17394   0.00000  Uiso   1.00
H41    H     0.31891   0.46496   0.17757   0.00000  Uiso   1.00
H42    H     0.01624   0.01897   0.18434   0.00000  Uiso   1.00
H43    H     0.03256   0.47718   0.23002   0.00000  Uiso   1.00
H44    H     0.30751   0.03362   0.25816   0.00000  Uiso   1.00
H45    H     0.27786   0.47936   0.25224   0.00000  Uiso   1.00
H46    H     0.22737   0.00020   0.17284   0.00000  Uiso   1.00
H47    H     0.26115   0.05109   0.17315   0.00000  Uiso   1.00
H48    H     0.19417   0.38765   0.32808   0.00000  Uiso   1.00
H49    H     0.24246   0.04102   0.40950   0.00000  Uiso   1.00
H50    H     0.27350   0.48901   0.42791   0.00000  Uiso   1.00
H51    H     0.30911   0.03204   0.40215   0.00000  Uiso   1.00
H52    H     0.28334   0.47255   0.34129   0.00000  Uiso   1.00
H53    H     0.25329   0.02484   0.32332   0.00000  Uiso   1.00
H54    H     0.17150   0.49967   0.35253   0.00000  Uiso   1.00
H55    H     0.20199   0.45035   0.37524   0.00000  Uiso   1.00
H56    H     0.23631   0.28676   0.13359   0.00000  Uiso   1.00
H57    H     0.12331   0.19053   0.36971   0.00000  Uiso   1.00
H58    H     0.09701   0.21332   0.11497   0.00000  Uiso   1.00
H59    H     0.23877   0.28624   0.04563   0.00000  Uiso   1.00
H60    H     0.20989   0.30952   0.38167   0.00000  Uiso   1.00
H61    H     0.12386   0.18842   0.45807   0.00000  Uiso   1.00
H62    H     0.09449   0.21383   0.02634   0.00000  Uiso   1.00
H63    H     0.20933   0.31167   0.46992   0.00000  Uiso   1.00
H64    H     0.32588   0.24998   0.19358   0.00000  Uiso   1.00
H65    H     0.00745   0.24992   0.30639   0.00000  Uiso   1.00
H66    H     0.10859   0.02917   0.29293   0.00000  Uiso   1.00
N67    N     0.16667   0.25001   0.12934   0.00000  Uiso   1.00
N68    N     0.16667   0.24999   0.37065   0.00000  Uiso   1.00
O69    O     0.16667   0.18572   0.29071   0.00000  Uiso   1.00
O70    O     0.16666   0.31427   0.20928   0.00000  Uiso   1.00
O71    O     0.16667   0.18573   0.20928   0.00000  Uiso   1.00
O72    O     0.16666   0.31427   0.29072   0.00000  Uiso   1.00
O73    O     0.09161   0.25000   0.28132   0.00000  Uiso   1.00
O74    O     0.24172   0.25000   0.21868   0.00000  Uiso   1.00
O75    O     0.09161   0.25000   0.19988   0.00000  Uiso   1.00
O76    O     0.24172   0.25000   0.30011   0.00000  Uiso   1.00
C77    C     0.50013   0.16505   0.24989   0.00000  Uiso   1.00
C78    C     0.52419   0.28407   0.44938   0.00000  Uiso   1.00
C79    C     0.49996   0.25003   0.02733   0.00000  Uiso   1.00
C80    C     0.49995   0.25004   0.47265   0.00000  Uiso   1.00
C81    C     0.40122   0.24997   0.23753   0.00000  Uiso   1.00
C82    C     0.59878   0.25000   0.26246   0.00000  Uiso   1.00
C83    C     0.34593   0.24996   0.23066   0.00000  Uiso   1.00
C84    C     0.65407   0.24995   0.26933   0.00000  Uiso   1.00
C85    C     0.46936   0.04726   0.27460   0.00000  Uiso   1.00
C86    C     0.48870   0.45326   0.20900   0.00000  Uiso   1.00
C87    C     0.46819   0.09317   0.27505   0.00000  Uiso   1.00
C88    C     0.50030   0.33515   0.25020   0.00000  Uiso   1.00
C89    C     0.48748   0.40734   0.20808   0.00000  Uiso   1.00
C90    C     0.50150   0.11700   0.24970   0.00000  Uiso   1.00
C91    C     0.50158   0.38357   0.25097   0.00000  Uiso   1.00
C92    C     0.53632   0.09496   0.22410   0.00000  Uiso   1.00
C93    C     0.51677   0.40622   0.29490   0.00000  Uiso   1.00
C94    C     0.53948   0.04867   0.22472   0.00000  Uiso   1.00
C95    C     0.51886   0.45256   0.29646   0.00000  Uiso   1.00
C96    C     0.50556   0.02470   0.25088   0.00000  Uiso   1.00
C97    C     0.50536   0.47617   0.25242   0.00000  Uiso   1.00
C98    C     0.57906   0.02659   0.19731   0.00000  Uiso   1.00
C99    C     0.53981   0.27058   0.05928   0.00000  Uiso   1.00
C100   C     0.62454   0.00763   0.23184   0.00000  Uiso   1.00
C101   C     0.33395   0.49120   0.20404   0.00000  Uiso   1.00
C102   C     0.53431   0.47507   0.34551   0.00000  Uiso   1.00
C103   C     0.58755   0.49718   0.34952   0.00000  Uiso   1.00
C104   C     0.60403   0.01592   0.40052   0.00000  Uiso   1.00
C105   C     0.47570   0.21600   0.44267   0.00000  Uiso   1.00
C106   C     0.53888   0.27047   0.10988   0.00000  Uiso   1.00
C107   C     0.47584   0.21679   0.39197   0.00000  Uiso   1.00
C108   C     0.46109   0.22957   0.09948   0.00000  Uiso   1.00
C109   C     0.52407   0.28324   0.39864   0.00000  Uiso   1.00
C110   C     0.46013   0.22948   0.04862   0.00000  Uiso   1.00
Cu111  Cu    0.50000   0.24999   0.29821   0.00000  Uiso   1.00
Cu112  Cu    0.50000   0.25000   0.20178   0.00000  Uiso   1.00
H113   H     0.56194   0.11412   0.20467   0.00000  Uiso   1.00
H114   H     0.47638   0.47112   0.17563   0.00000  Uiso   1.00
H115   H     0.44057   0.11009   0.29428   0.00000  Uiso   1.00
H116   H     0.47483   0.39046   0.17394   0.00000  Uiso   1.00
H117   H     0.65224   0.46496   0.17757   0.00000  Uiso   1.00
H118   H     0.34957   0.01897   0.18434   0.00000  Uiso   1.00
H119   H     0.36589   0.47718   0.23002   0.00000  Uiso   1.00
H120   H     0.64084   0.03362   0.25816   0.00000  Uiso   1.00
H121   H     0.61120   0.47936   0.25224   0.00000  Uiso   1.00
H122   H     0.56071   0.00020   0.17284   0.00000  Uiso   1.00
H123   H     0.59449   0.05109   0.17315   0.00000  Uiso   1.00
H124   H     0.52751   0.38765   0.32808   0.00000  Uiso   1.00
H125   H     0.57579   0.04102   0.40950   0.00000  Uiso   1.00
H126   H     0.60683   0.48901   0.42791   0.00000  Uiso   1.00
H127   H     0.64244   0.03204   0.40215   0.00000  Uiso   1.00
H128   H     0.61667   0.47255   0.34129   0.00000  Uiso   1.00
H129   H     0.58662   0.02484   0.32332   0.00000  Uiso   1.00
H130   H     0.50483   0.49967   0.35253   0.00000  Uiso   1.00
H131   H     0.53532   0.45035   0.37524   0.00000  Uiso   1.00
H132   H     0.56964   0.28676   0.13359   0.00000  Uiso   1.00
H133   H     0.45664   0.19053   0.36971   0.00000  Uiso   1.00
H134   H     0.43034   0.21332   0.11497   0.00000  Uiso   1.00
H135   H     0.57210   0.28624   0.04563   0.00000  Uiso   1.00
H136   H     0.54322   0.30952   0.38167   0.00000  Uiso   1.00
H137   H     0.45719   0.18842   0.45807   0.00000  Uiso   1.00
H138   H     0.42782   0.21383   0.02634   0.00000  Uiso   1.00
H139   H     0.54266   0.31167   0.46992   0.00000  Uiso   1.00
H140   H     0.65921   0.24998   0.19358   0.00000  Uiso   1.00
H141   H     0.34079   0.24992   0.30639   0.00000  Uiso   1.00
H142   H     0.44192   0.02917   0.29293   0.00000  Uiso   1.00
N143   N     0.50000   0.25001   0.12934   0.00000  Uiso   1.00
N144   N     0.50000   0.24999   0.37065   0.00000  Uiso   1.00
O145   O     0.50000   0.18572   0.29071   0.00000  Uiso   1.00
O146   O     0.50000   0.31427   0.20928   0.00000  Uiso   1.00
O147   O     0.50000   0.18573   0.20928   0.00000  Uiso   1.00
O148   O     0.50000   0.31427   0.29072   0.00000  Uiso   1.00
O149   O     0.42495   0.25000   0.28132   0.00000  Uiso   1.00
O150   O     0.57505   0.25000   0.21868   0.00000  Uiso   1.00
O151   O     0.42495   0.25000   0.19988   0.00000  Uiso   1.00
O152   O     0.57505   0.25000   0.30011   0.00000  Uiso   1.00
C153   C     0.83347   0.16505   0.24989   0.00000  Uiso   1.00
C154   C     0.85752   0.28407   0.44938   0.00000  Uiso   1.00
C155   C     0.83329   0.25003   0.02733   0.00000  Uiso   1.00
C156   C     0.83328   0.25004   0.47265   0.00000  Uiso   1.00
C157   C     0.73455   0.24997   0.23753   0.00000  Uiso   1.00
C158   C     0.93211   0.25000   0.26246   0.00000  Uiso   1.00
C159   C     0.67926   0.24996   0.23066   0.00000  Uiso   1.00
C160   C     0.98740   0.24995   0.26933   0.00000  Uiso   1.00
C161   C     0.80269   0.04726   0.27460   0.00000  Uiso   1.00
C162   C     0.82204   0.45326   0.20900   0.00000  Uiso   1.00
C163   C     0.80152   0.09317   0.27505   0.00000  Uiso   1.00
C164   C     0.83363   0.33515   0.25020   0.00000  Uiso   1.00
C165   C     0.82082   0.40734   0.20808   0.00000  Uiso   1.00
C166   C     0.83484   0.11700   0.24970   0.00000  Uiso   1.00
C167   C     0.83491   0.38357   0.25097   0.00000  Uiso   1.00
C168   C     0.86965   0.09496   0.22410   0.00000  Uiso   1.00
C169   C     0.85010   0.40622   0.29490   0.00000  Uiso   1.00
C170   C     0.87282   0.04867   0.22472   0.00000  Uiso   1.00
C171   C     0.85219   0.45256   0.29646   0.00000  Uiso   1.00
C172   C     0.83890   0.02470   0.25088   0.00000  Uiso   1.00
C173   C     0.83869   0.47617   0.25242   0.00000  Uiso   1.00
C174   C     0.91239   0.02659   0.19731   0.00000  Uiso   1.00
C175   C     0.87314   0.27058   0.05928   0.00000  Uiso   1.00
C176   C     0.95788   0.00763   0.23184   0.00000  Uiso   1.00
C177   C     0.66729   0.49120   0.20404   0.00000  Uiso   1.00
C178   C     0.86764   0.47507   0.34551   0.00000  Uiso   1.00
C179   C     0.92089   0.49718   0.34952   0.00000  Uiso   1.00
C180   C     0.93736   0.01592   0.40052   0.00000  Uiso   1.00
C181   C     0.80903   0.21600   0.44267   0.00000  Uiso   1.00
C182   C     0.87222   0.27047   0.10988   0.00000  Uiso   1.00
C183   C     0.80918   0.21679   0.39197   0.00000  Uiso   1.00
C184   C     0.79442   0.22957   0.09948   0.00000  Uiso   1.00
C185   C     0.85741   0.28324   0.39864   0.00000  Uiso   1.00
C186   C     0.79346   0.22948   0.04862   0.00000  Uiso   1.00
Cu187  Cu    0.83333   0.24999   0.29821   0.00000  Uiso   1.00
Cu188  Cu    0.83333   0.25000   0.20178   0.00000  Uiso   1.00
H189   H     0.89527   0.11412   0.20467   0.00000  Uiso   1.00
H190   H     0.80971   0.47112   0.17563   0.00000  Uiso   1.00
H191   H     0.77391   0.11009   0.29428   0.00000  Uiso   1.00
H192   H     0.80816   0.39046   0.17394   0.00000  Uiso   1.00
H193   H     0.98558   0.46496   0.17757   0.00000  Uiso   1.00
H194   H     0.68291   0.01897   0.18434   0.00000  Uiso   1.00
H195   H     0.69922   0.47718   0.23002   0.00000  Uiso   1.00
H196   H     0.97417   0.03362   0.25816   0.00000  Uiso   1.00
H197   H     0.94453   0.47936   0.25224   0.00000  Uiso   1.00
H198   H     0.89404   0.00020   0.17284   0.00000  Uiso   1.00
H199   H     0.92782   0.05109   0.17315   0.00000  Uiso   1.00
H200   H     0.86084   0.38765   0.32808   0.00000  Uiso   1.00
H201   H     0.90912   0.04102   0.40950   0.00000  Uiso   1.00
H202   H     0.94016   0.48901   0.42791   0.00000  Uiso   1.00
H203   H     0.97577   0.03204   0.40215   0.00000  Uiso   1.00
H204   H     0.95001   0.47255   0.34129   0.00000  Uiso   1.00
H205   H     0.91996   0.02484   0.32332   0.00000  Uiso   1.00
H206   H     0.83817   0.49967   0.35253   0.00000  Uiso   1.00
H207   H     0.86865   0.45035   0.37524   0.00000  Uiso   1.00
H208   H     0.90297   0.28676   0.13359   0.00000  Uiso   1.00
H209   H     0.78997   0.19053   0.36971   0.00000  Uiso   1.00
H210   H     0.76367   0.21332   0.11497   0.00000  Uiso   1.00
H211   H     0.90543   0.28624   0.04563   0.00000  Uiso   1.00
H212   H     0.87656   0.30952   0.38167   0.00000  Uiso   1.00
H213   H     0.79053   0.18842   0.45807   0.00000  Uiso   1.00
H214   H     0.76115   0.21383   0.02634   0.00000  Uiso   1.00
H215   H     0.87599   0.31167   0.46992   0.00000  Uiso   1.00
H216   H     0.99255   0.24998   0.19358   0.00000  Uiso   1.00
H217   H     0.67412   0.24992   0.30639   0.00000  Uiso   1.00
H218   H     0.77526   0.02917   0.29293   0.00000  Uiso   1.00
N219   N     0.83333   0.25001   0.12934   0.00000  Uiso   1.00
N220   N     0.83333   0.24999   0.37065   0.00000  Uiso   1.00
O221   O     0.83334   0.18572   0.29071   0.00000  Uiso   1.00
O222   O     0.83333   0.31427   0.20928   0.00000  Uiso   1.00
O223   O     0.83334   0.18573   0.20928   0.00000  Uiso   1.00
O224   O     0.83333   0.31427   0.29072   0.00000  Uiso   1.00
O225   O     0.75828   0.25000   0.28132   0.00000  Uiso   1.00
O226   O     0.90839   0.25000   0.21868   0.00000  Uiso   1.00
O227   O     0.75828   0.25000   0.19988   0.00000  Uiso   1.00
O228   O     0.90839   0.25000   0.30011   0.00000  Uiso   1.00
C229   C     0.16680   0.66505   0.24989   0.00000  Uiso   1.00
C230   C     0.19085   0.78407   0.44938   0.00000  Uiso   1.00
C231   C     0.16663   0.75003   0.02733   0.00000  Uiso   1.00
C232   C     0.16661   0.75004   0.47265   0.00000  Uiso   1.00
C233   C     0.06789   0.74997   0.23753   0.00000  Uiso   1.00
C234   C     0.26544   0.75000   0.26246   0.00000  Uiso   1.00
C235   C     0.01259   0.74996   0.23066   0.00000  Uiso   1.00
C236   C     0.32074   0.74995   0.26933   0.00000  Uiso   1.00
C237   C     0.13602   0.54726   0.27460   0.00000  Uiso   1.00
C238   C     0.15537   0.95326   0.20900   0.00000  Uiso   1.00
C239   C     0.13485   0.59317   0.27505   0.00000  Uiso   1.00
C240   C     0.16697   0.83515   0.25020   0.00000  Uiso   1.00
C241   C     0.15415   0.90734   0.20808   0.00000  Uiso   1.00
C242   C     0.16817   0.61700   0.24970   0.00000  Uiso   1.00
C243   C     0.16825   0.88357   0.25097   0.00000  Uiso   1.00
C244   C     0.20299   0.59496   0.22410   0.00000  Uiso   1.00
C245   C     0.18344   0.90622   0.29490   0.00000  Uiso   1.00
C246   C     0.20615   0.54867   0.22472   0.00000  Uiso   1.00
C247   C     0.18553   0.95256   0.29646   0.00000  Uiso   1.00
C248   C     0.17223   0.52470   0.25088   0.00000  Uiso   1.00
C249   C     0.17202   0.97617   0.25242   0.00000  Uiso   1.00
C250   C     0.24572   0.52659   0.19731   0.00000  Uiso   1.00
C251   C     0.20648   0.77058   0.05928   0.00000  Uiso   1.00
C252   C     0.29121   0.50763   0.23184   0.00000  Uiso   1.00
C253   C     0.00062   0.99120   0.20404   0.00000  Uiso   1.00
C254   C     0.20097   0.97507   0.34551   0.00000  Uiso   1.00
C255   C     0.25422   0.99718   0.34952   0.00000  Uiso   1.00
C256   C     0.27069   0.51592   0.40052   0.00000  Uiso   1.00
C257   C     0.14236   0.71600   0.44267   0.00000  Uiso   1.00
C258   C     0.20555   0.77047   0.10988   0.00000  Uiso   1.00
C259   C     0.14251   0.71679   0.39197   0.00000  Uiso   1.00
C260   C     0.12776   0.72957   0.09948   0.00000  Uiso   1.00
C261   C     0.19074   0.78324   0.39864   0.00000  Uiso   1.00
C262   C     0.12679   0.72948   0.04862   0.00000  Uiso   1.00
Cu263  Cu    0.16667   0.74999   0.29821   0.00000  Uiso   1.00
Cu264  Cu    0.16667   0.75000   0.20178   0.00000  Uiso   1.00
H265   H     0.22861   0.61412   0.20467   0.00000  Uiso   1.00
H266   H     0.14304   0.97112   0.17563   0.00000  Uiso   1.00
H267   H     0.10724   0.61009   0.29428   0.00000  Uiso   1.00
H268   H     0.14149   0.89046   0.17394   0.00000  Uiso   1.00
H269   H     0.31891   0.96496   0.17757   0.00000  Uiso   1.00
H270   H     0.01624   0.51897   0.18434   0.00000  Uiso   1.00
H271   H     0.03256   0.97718   0.23002   0.00000  Uiso   1.00
H272   H     0.30751   0.53362   0.25816   0.00000  Uiso   1.00
H273   H     0.27786   0.97936   0.25224   0.00000  Uiso   1.00
H274   H     0.22737   0.50020   0.17284   0.00000  Uiso   1.00
H275   H     0.26115   0.55109   0.17315   0.00000  Uiso   1.00
H276   H     0.19417   0.88765   0.32808   0.00000  Uiso   1.00
H277   H     0.24246   0.54102   0.40950   0.00000  Uiso   1.00
H278   H     0.27350   0.98901   0.42791   0.00000  Uiso   1.00
H279   H     0.30911   0.53204   0.40215   0.00000  Uiso   1.00
H280   H     0.28334   0.97255   0.34129   0.00000  Uiso   1.00
H281   H     0.25329   0.52484   0.32332   0.00000  Uiso   1.00
H282   H     0.17150   0.99967   0.35253   0.00000  Uiso   1.00
H283   H     0.20199   0.95035   0.37524   0.00000  Uiso   1.00
H284   H     0.23631   0.78676   0.13359   0.00000  Uiso   1.00
H285   H     0.12331   0.69053   0.36971   0.00000  Uiso   1.00
H286   H     0.09701   0.71332   0.11497   0.00000  Uiso   1.00
H287   H     0.23877   0.78624   0.04563   0.00000  Uiso   1.00
H288   H     0.20989   0.80952   0.38167   0.00000  Uiso   1.00
H289   H     0.12386   0.68842   0.45807   0.00000  Uiso   1.00
H290   H     0.09449   0.71383   0.02634   0.00000  Uiso   1.00
H291   H     0.20933   0.81167   0.46992   0.00000  Uiso   1.00
H292   H     0.32588   0.74998   0.19358   0.00000  Uiso   1.00
H293   H     0.00745   0.74992   0.30639   0.00000  Uiso   1.00
H294   H     0.10859   0.52917   0.29293   0.00000  Uiso   1.00
N295   N     0.16667   0.75001   0.12934   0.00000  Uiso   1.00
N296   N     0.16667   0.74999   0.37065   0.00000  Uiso   1.00
O297   O     0.16667   0.68572   0.29071   0.00000  Uiso   1.00
O298   O     0.16666   0.81427   0.20928   0.00000  Uiso   1.00
O299   O     0.16667   0.68573   0.20928   0.00000  Uiso   1.00
O300   O     0.16666   0.81427   0.29072   0.00000  Uiso   1.00
O301   O     0.09161   0.75000   0.28132   0.00000  Uiso   1.00
O302   O     0.24172   0.75000   0.21868   0.00000  Uiso   1.00
O303   O     0.09161   0.75000   0.19988   0.00000  Uiso   1.00
O304   O     0.24172   0.75000   0.30011   0.00000  Uiso   1.00
C305   C     0.50013   0.66505   0.24989   0.00000  Uiso   1.00
C306   C     0.52419   0.78407   0.44938   0.00000  Uiso   1.00
C307   C     0.49996   0.75003   0.02733   0.00000  Uiso   1.00
C308   C     0.49995   0.75004   0.47265   0.00000  Uiso   1.00
C309   C     0.40122   0.74997   0.23753   0.00000  Uiso   1.00
C310   C     0.59878   0.75000   0.26246   0.00000  Uiso   1.00
C311   C     0.34593   0.74996   0.23066   0.00000  Uiso   1.00
C312   C     0.65407   0.74995   0.26933   0.00000  Uiso   1.00
C313   C     0.46936   0.54726   0.27460   0.00000  Uiso   1.00
C314   C     0.48870   0.95326   0.20900   0.00000  Uiso   1.00
C315   C     0.46819   0.59317   0.27505   0.00000  Uiso   1.00
C316   C     0.50030   0.83515   0.25020   0.00000  Uiso   1.00
C317   C     0.48748   0.90734   0.20808   0.00000  Uiso   1.00
C318   C     0.50150   0.61700   0.24970   0.00000  Uiso   1.00
C319   C     0.50158   0.88357   0.25097   0.00000  Uiso   1.00
C320   C     0.53632   0.59496   0.22410   0.00000  Uiso   1.00
C321   C     0.51677   0.90622   0.29490   0.00000  Uiso   1.00
C322   C     0.53948   0.54867   0.22472   0.00000  Uiso   1.00
C323   C     0.51886   0.95256   0.29646   0.00000  Uiso   1.00
C324   C     0.50556   0.52470   0.25088   0.00000  Uiso   1.00
C325   C     0.50536   0.97617   0.25242   0.00000  Uiso   1.00
C326   C     0.57906   0.52659   0.19731   0.00000  Uiso   1.00
C327   C     0.53981   0.77058   0.05928   0.00000  Uiso   1.00
C328   C     0.62454   0.50763   0.23184   0.00000  Uiso   1.00
C329   C     0.33395   0.99120   0.20404   0.00000  Uiso   1.00
C330   C     0.53431   0.97507   0.34551   0.00000  Uiso   1.00
C331   C     0.58755   0.99718   0.34952   0.00000  Uiso   1.00
C332   C     0.60403   0.51592   0.40052   0.00000  Uiso   1.00
C333   C     0.47570   0.71600   0.44267   0.00000  Uiso   1.00
C334   C     0.53888   0.77047   0.10988   0.00000  Uiso   1.00
C335   C     0.47584   0.71679   0.39197   0.00000  Uiso   1.00
C336   C     0.46109   0.72957   0.09948   0.00000  Uiso   1.00
C337   C     0.52407   0.78324   0.39864   0.00000  Uiso   1.00
C338   C     0.46013   0.72948   0.04862   0.00000  Uiso   1.00
Cu339  Cu    0.50000   0.74999   0.29821   0.00000  Uiso   1.00
Cu340  Cu    0.50000   0.75000   0.20178   0.00000  Uiso   1.00
H341   H     0.56194   0.61412   0.20467   0.00000  Uiso   1.00
H342   H     0.47638   0.97112   0.17563   0.00000  Uiso   1.00
H343   H     0.44057   0.61009   0.29428   0.00000  Uiso   1.00
H344   H     0.47483   0.89046   0.17394   0.00000  Uiso   1.00
H345   H     0.65224   0.96496   0.17757   0.00000  Uiso   1.00
H346   H     0.34957   0.51897   0.18434   0.00000  Uiso   1.00
H347   H     0.36589   0.97718   0.23002   0.00000  Uiso   1.00
H348   H     0.64084   0.53362   0.25816   0.00000  Uiso   1.00
H349   H     0.61120   0.97936   0.25224   0.00000  Uiso   1.00
H350   H     0.56071   0.50020   0.17284   0.00000  Uiso   1.00
H351   H     0.59449   0.55109   0.17315   0.00000  Uiso   1.00
H352   H     0.52751   0.88765   0.32808   0.00000  Uiso   1.00
H353   H     0.57579   0.54102   0.40950   0.00000  Uiso   1.00
H354   H     0.60683   0.98901   0.42791   0.00000  Uiso   1.00
H355   H     0.64244   0.53204   0.40215   0.00000  Uiso   1.00
H356   H     0.61667   0.97255   0.34129   0.00000  Uiso   1.00
H357   H     0.58662   0.52484   0.32332   0.00000  Uiso   1.00
H358   H     0.50483   0.99967   0.35253   0.00000  Uiso   1.00
H359   H     0.53532   0.95035   0.37524   0.00000  Uiso   1.00
H360   H     0.56964   0.78676   0.13359   0.00000  Uiso   1.00
H361   H     0.45664   0.69053   0.36971   0.00000  Uiso   1.00
H362   H     0.43034   0.71332   0.11497   0.00000  Uiso   1.00
H363   H     0.57210   0.78624   0.04563   0.00000  Uiso   1.00
H364   H     0.54322   0.80952   0.38167   0.00000  Uiso   1.00
H365   H     0.45719   0.68842   0.45807   0.00000  Uiso   1.00
H366   H     0.42782   0.71383   0.02634   0.00000  Uiso   1.00
H367   H     0.54266   0.81167   0.46992   0.00000  Uiso   1.00
H368   H     0.65921   0.74998   0.19358   0.00000  Uiso   1.00
H369   H     0.34079   0.74992   0.30639   0.00000  Uiso   1.00
H370   H     0.44192   0.52917   0.29293   0.00000  Uiso   1.00
N371   N     0.50000   0.75001   0.12934   0.00000  Uiso   1.00
N372   N     0.50000   0.74999   0.37065   0.00000  Uiso   1.00
O373   O     0.50000   0.68572   0.29071   0.00000  Uiso   1.00
O374   O     0.50000   0.81427   0.20928   0.00000  Uiso   1.00
O375   O     0.50000   0.68573   0.20928   0.00000  Uiso   1.00
O376   O     0.50000   0.81427   0.29072   0.00000  Uiso   1.00
O377   O     0.42495   0.75000   0.28132   0.00000  Uiso   1.00
O378   O     0.57505   0.75000   0.21868   0.00000  Uiso   1.00
O379   O     0.42495   0.75000   0.19988   0.00000  Uiso   1.00
O380   O     0.57505   0.75000   0.30011   0.00000  Uiso   1.00
C381   C     0.83347   0.66505   0.24989   0.00000  Uiso   1.00
C382   C     0.85752   0.78407   0.44938   0.00000  Uiso   1.00
C383   C     0.83329   0.75003   0.02733   0.00000  Uiso   1.00
C384   C     0.83328   0.75004   0.47265   0.00000  Uiso   1.00
C385   C     0.73455   0.74997   0.23753   0.00000  Uiso   1.00
C386   C     0.93211   0.75000   0.26246   0.00000  Uiso   1.00
C387   C     0.67926   0.74996   0.23066   0.00000  Uiso   1.00
C388   C     0.98740   0.74995   0.26933   0.00000  Uiso   1.00
C389   C     0.80269   0.54726   0.27460   0.00000  Uiso   1.00
C390   C     0.82204   0.95326   0.20900   0.00000  Uiso   1.00
C391   C     0.80152   0.59317   0.27505   0.00000  Uiso   1.00
C392   C     0.83363   0.83515   0.25020   0.00000  Uiso   1.00
C393   C     0.82082   0.90734   0.20808   0.00000  Uiso   1.00
C394   C     0.83484   0.61700   0.24970   0.00000  Uiso   1.00
C395   C     0.83491   0.88357   0.25097   0.00000  Uiso   1.00
C396   C     0.86965   0.59496   0.22410   0.00000  Uiso   1.00
C397   C     0.85010   0.90622   0.29490   0.00000  Uiso   1.00
C398   C     0.87282   0.54867   0.22472   0.00000  Uiso   1.00
C399   C     0.85219   0.95256   0.29646   0.00000  Uiso   1.00
C400   C     0.83890   0.52470   0.25088   0.00000  Uiso   1.00
C401   C     0.83869   0.97617   0.25242   0.00000  Uiso   1.00
C402   C     0.91239   0.52659   0.19731   0.00000  Uiso   1.00
C403   C     0.87314   0.77058   0.05928   0.00000  Uiso   1.00
C404   C     0.95788   0.50763   0.23184   0.00000  Uiso   1.00
C405   C     0.66729   0.99120   0.20404   0.00000  Uiso   1.00
C406   C     0.86764   0.97507   0.34551   0.00000  Uiso   1.00
C407   C     0.92089   0.99718   0.34952   0.00000  Uiso   1.00
C408   C     0.93736   0.51592   0.40052   0.00000  Uiso   1.00
C409   C     0.80903   0.71600   0.44267   0.00000  Uiso   1.00
C410   C     0.87222   0.77047   0.10988   0.00000  Uiso   1.00
C411   C     0.80918   0.71679   0.39197   0.00000  Uiso   1.00
C412   C     0.79442   0.72957   0.09948   0.00000  Uiso   1.00
C413   C     0.85741   0.78324   0.39864   0.00000  Uiso   1.00
C414   C     0.79346   0.72948   0.04862   0.00000  Uiso   1.00
Cu415  Cu    0.83333   0.74999   0.29821   0.00000  Uiso   1.00
Cu416  Cu    0.83333   0.75000   0.20178   0.00000  Uiso   1.00
H417   H     0.89527   0.61412   0.20467   0.00000  Uiso   1.00
H418   H     0.80971   0.97112   0.17563   0.00000  Uiso   1.00
H419   H     0.77391   0.61009   0.29428   0.00000  Uiso   1.00
H420   H     0.80816   0.89046   0.17394   0.00000  Uiso   1.00
H421   H     0.98558   0.96496   0.17757   0.00000  Uiso   1.00
H422   H     0.68291   0.51897   0.18434   0.00000  Uiso   1.00
H423   H     0.69922   0.97718   0.23002   0.00000  Uiso   1.00
H424   H     0.97417   0.53362   0.25816   0.00000  Uiso   1.00
H425   H     0.94453   0.97936   0.25224   0.00000  Uiso   1.00
H426   H     0.89404   0.50020   0.17284   0.00000  Uiso   1.00
H427   H     0.92782   0.55109   0.17315   0.00000  Uiso   1.00
H428   H     0.86084   0.88765   0.32808   0.00000  Uiso   1.00
H429   H     0.90912   0.54102   0.40950   0.00000  Uiso   1.00
H430   H     0.94016   0.98901   0.42791   0.00000  Uiso   1.00
H431   H     0.97577   0.53204   0.40215   0.00000  Uiso   1.00
H432   H     0.95001   0.97255   0.34129   0.00000  Uiso   1.00
H433   H     0.91996   0.52484   0.32332   0.00000  Uiso   1.00
H434   H     0.83817   0.99967   0.35253   0.00000  Uiso   1.00
H435   H     0.86865   0.95035   0.37524   0.00000  Uiso   1.00
H436   H     0.90297   0.78676   0.13359   0.00000  Uiso   1.00
H437   H     0.78997   0.69053   0.36971   0.00000  Uiso   1.00
H438   H     0.76367   0.71332   0.11497   0.00000  Uiso   1.00
H439   H     0.90543   0.78624   0.04563   0.00000  Uiso   1.00
H440   H     0.87656   0.80952   0.38167   0.00000  Uiso   1.00
H441   H     0.79053   0.68842   0.45807   0.00000  Uiso   1.00
H442   H     0.76115   0.71383   0.02634   0.00000  Uiso   1.00
H443   H     0.87599   0.81167   0.46992   0.00000  Uiso   1.00
H444   H     0.99255   0.74998   0.19358   0.00000  Uiso   1.00
H445   H     0.67412   0.74992   0.30639   0.00000  Uiso   1.00
H446   H     0.77526   0.52917   0.29293   0.00000  Uiso   1.00
N447   N     0.83333   0.75001   0.12934   0.00000  Uiso   1.00
N448   N     0.83333   0.74999   0.37065   0.00000  Uiso   1.00
O449   O     0.83334   0.68572   0.29071   0.00000  Uiso   1.00
O450   O     0.83333   0.81427   0.20928   0.00000  Uiso   1.00
O451   O     0.83334   0.68573   0.20928   0.00000  Uiso   1.00
O452   O     0.83333   0.81427   0.29072   0.00000  Uiso   1.00
O453   O     0.75828   0.75000   0.28132   0.00000  Uiso   1.00
O454   O     0.90839   0.75000   0.21868   0.00000  Uiso   1.00
O455   O     0.75828   0.75000   0.19988   0.00000  Uiso   1.00
O456   O     0.90839   0.75000   0.30011   0.00000  Uiso   1.00
C457   C     0.16680   0.16505   0.74989   0.00000  Uiso   1.00
C458   C     0.19085   0.28407   0.94938   0.00000  Uiso   1.00
C459   C     0.16663   0.25003   0.52733   0.00000  Uiso   1.00
C460   C     0.16661   0.25004   0.97265   0.00000  Uiso   1.00
C461   C     0.06789   0.24997   0.73753   0.00000  Uiso   1.00
C462   C     0.26544   0.25000   0.76246   0.00000  Uiso   1.00
C463   C     0.01259   0.24996   0.73066   0.00000  Uiso   1.00
C464   C     0.32074   0.24995   0.76933   0.00000  Uiso   1.00
C465   C     0.13602   0.04726   0.77460   0.00000  Uiso   1.00
C466   C     0.15537   0.45326   0.70900   0.00000  Uiso   1.00
C467   C     0.13485   0.09317   0.77505   0.00000  Uiso   1.00
C468   C     0.16697   0.33515   0.75020   0.00000  Uiso   1.00
C469   C     0.15415   0.40734   0.70808   0.00000  Uiso   1.00
C470   C     0.16817   0.11700   0.74970   0.00000  Uiso   1.00
C471   C     0.16825   0.38357   0.75097   0.00000  Uiso   1.00
C472   C     0.20299   0.09496   0.72410   0.00000  Uiso   1.00
C473   C     0.18344   0.40622   0.79490   0.00000  Uiso   1.00
C474   C     0.20615   0.04867   0.72472   0.00000  Uiso   1.00
C475   C     0.18553   0.45256   0.79646   0.00000  Uiso   1.00
C476   C     0.17223   0.02470   0.75088   0.00000  Uiso   1.00
C477   C     0.17202   0.47617   0.75242   0.00000  Uiso   1.00
C478   C     0.24572   0.02659   0.69731   0.00000  Uiso   1.00
C479   C     0.20648   0.27058   0.55928   0.00000  Uiso   1.00
C480   C     0.29121   0.00763   0.73184   0.00000  Uiso   1.00
C481   C     0.00062   0.49120   0.70404   0.00000  Uiso   1.00
C482   C     0.20097   0.47507   0.84551   0.00000  Uiso   1.00
C483   C     0.25422   0.49718   0.84952   0.00000  Uiso   1.00
C484   C     0.27069   0.01592   0.90052   0.00000  Uiso   1.00
C485   C     0.14236   0.21600   0.94267   0.00000  Uiso   1.00
C486   C     0.20555   0.27047   0.60988   0.00000  Uiso   1.00
C487   C     0.14251   0.21679   0.89197   0.00000  Uiso   1.00
C488   C     0.12776   0.22957   0.59948   0.00000  Uiso   1.00
C489   C     0.19074   0.28324   0.89864   0.00000  Uiso   1.00
C490   C     0.12679   0.22948   0.54862   0.00000  Uiso   1.00
Cu491  Cu    0.16667   0.24999   0.79821   0.00000  Uiso   1.00
Cu492  Cu    0.16667   0.25000   0.70178   0.00000  Uiso   1.00
H493   H     0.22861   0.11412   0.70467   0.00000  Uiso   1.00
H494   H     0.14304   0.47112   0.67563   0.00000  Uiso   1.00
H495   H     0.10724   0.11009   0.79428   0.00000  Uiso   1.00
H496   H     0.14149   0.39046   0.67394   0.00000  Uiso   1.00
H497   H     0.31891   0.46496   0.67757   0.00000  Uiso   1.00
H498   H     0.01624   0.01897   0.68434   0.00000  Uiso   1.00
H499   H     0.03256   0.47718   0.73002   0.00000  Uiso   1.00
H500   H     0.30751   0.03362   0.75816   0.00000  Uiso   1.00
H501   H     0.27786   0.47936   0.75224   0.00000  Uiso   1.00
H502   H     0.22737   0.00020   0.67284   0.00000  Uiso   1.00
H503   H     0.26115   0.05109   0.67315   0.00000  Uiso   1.00
H504   H     0.19417   0.38765   0.82808   0.00000  Uiso   1.00
H505   H     0.24246   0.04102   0.90950   0.00000  Uiso   1.00
H506   H     0.27350   0.48901   0.92791   0.00000  Uiso   1.00
H507   H     0.30911   0.03204   0.90215   0.00000  Uiso   1.00
H508   H     0.28334   0.47255   0.84129   0.00000  Uiso   1.00
H509   H     0.25329   0.02484   0.82332   0.00000  Uiso   1.00
H510   H     0.17150   0.49967   0.85253   0.00000  Uiso   1.00
H511   H     0.20199   0.45035   0.87524   0.00000  Uiso   1.00
H512   H     0.23631   0.28676   0.63359   0.00000  Uiso   1.00
H513   H     0.12331   0.19053   0.86971   0.00000  Uiso   1.00
H514   H     0.09701   0.21332   0.61497   0.00000  Uiso   1.00
H515   H     0.23877   0.28624   0.54563   0.00000  Uiso   1.00
H516   H     0.20989   0.30952   0.88167   0.00000  Uiso   1.00
H517   H     0.12386   0.18842   0.95807   0.00000  Uiso   1.00
H518   H     0.09449   0.21383   0.52634   0.00000  Uiso   1.00
H519   H     0.20933   0.31167   0.96992   0.00000  Uiso   1.00
H520   H     0.32588   0.24998   0.69358   0.00000  Uiso   1.00
H521   H     0.00745   0.24992   0.80639   0.00000  Uiso   1.00
H522   H     0.10859   0.02917   0.79293   0.00000  Uiso   1.00
N523   N     0.16667   0.25001   0.62934   0.00000  Uiso   1.00
N524   N     0.16667   0.24999   0.87065   0.00000  Uiso   1.00
O525   O     0.16667   0.18572   0.79071   0.00000  Uiso   1.00
O526   O     0.16666   0.31427   0.70928   0.00000  Uiso   1.00
O527   O     0.16667   0.18573   0.70928   0.00000  Uiso   1.00
O528   O     0.16666   0.31427   0.79072   0.00000  Uiso   1.00
O529   O     0.09161   0.25000   0.78132   0.00000  Uiso   1.00
O530   O     0.24172   0.25000   0.71868   0.00000  Uiso   1.00
O531   O     0.09161   0.25000   0.69988   0.00000  Uiso   1.00
O532   O     0.24172   0.25000   0.80011   0.00000  Uiso   1.00
C533   C     0.50013   0.16505   0.74989   0.00000  Uiso   1.00
C534   C     0.52419   0.28407   0.94938   0.00000  Uiso   1.00
C535   C     0.49996   0.25003   0.52733   0.00000  Uiso   1.00
C536   C     0.49995   0.25004   0.97265   0.00000  Uiso   1.00
C537   C     0.40122   0.24997   0.73753   0.00000  Uiso   1.00
C538   C     0.59878   0.25000   0.76246   0.00000  Uiso   1.00
C539   C     0.34593   0.24996   0.73066   0.00000  Uiso   1.00
C540   C     0.65407   0.24995   0.76933   0.00000  Uiso   1.00
C541   C     0.46936   0.04726   0.77460   0.00000  Uiso   1.00
C542   C     0.48870   0.45326   0.70900   0.00000  Uiso   1.00
C543   C     0.46819   0.09317   0.77505   0.00000  Uiso   1.00
C544   C     0.50030   0.33515   0.75020   0.00000  Uiso   1.00
C545   C     0.48748   0.40734   0.70808   0.00000  Uiso   1.00
C546   C     0.50150   0.11700   0.74970   0.00000  Uiso   1.00
C547   C     0.50158   0.38357   0.75097   0.00000  Uiso   1.00
C548   C     0.53632   0.09496   0.72410   0.00000  Uiso   1.00
C549   C     0.51677   0.40622   0.79490   0.00000  Uiso   1.00
C550   C     0.53948   0.04867   0.72472   0.00000  Uiso   1.00
C551   C     0.51886   0.45256   0.79646   0.00000  Uiso   1.00
C552   C     0.50556   0.02470   0.75088   0.00000  Uiso   1.00
C553   C     0.50536   0.47617   0.75242   0.00000  Uiso   1.00
C554   C     0.57906   0.02659   0.69731   0.00000  Uiso   1.00
C555   C     0.53981   0.27058   0.55928   0.00000  Uiso   1.00
C556   C     0.62454   0.00763   0.73184   0.00000  Uiso   1.00
C557   C     0.33395   0.49120   0.70404   0.00000  Uiso   1.00
C558   C     0.53431   0.47507   0.84551   0.00000  Uiso   1.00
C559   C     0.58755   0.49718   0.84952   0.00000  Uiso   1.00
C560   C     0.60403   0.01592   0.90052   0.00000  Uiso   1.00
C561   C     0.47570   0.21600   0.94267   0.00000  Uiso   1.00
C562   C     0.53888   0.27047   0.60988   0.00000  Uiso   1.00
C563   C     0.47584   0.21679   0.89197   0.00000  Uiso   1.00
C564   C     0.46109   0.22957   0.59948   0.00000  Uiso   1.00
C565   C     0.52407   0.28324   0.89864   0.00000  Uiso   1.00
C566   C     0.46013   0.22948   0.54862   0.00000  Uiso   1.00
Cu567  Cu    0.50000   0.24999   0.79821   0.00000  Uiso   1.00
Cu568  Cu    0.50000   0.25000   0.70178   0.00000  Uiso   1.00
H569   H     0.56194   0.11412   0.70467   0.00000  Uiso   1.00
H570   H     0.47638   0.47112   0.67563   0.00000  Uiso   1.00
H571   H     0.44057   0.11009   0.79428   0.00000  Uiso   1.00
H572   H     0.47483   0.39046   0.67394   0.00000  Uiso   1.00
H573   H     0.65224   0.46496   0.67757   0.00000  Uiso   1.00
H574   H     0.34957   0.01897   0.68434   0.00000  Uiso   1.00
H575   H     0.36589   0.47718   0.73002   0.00000  Uiso   1.00
H576   H     0.64084   0.03362   0.75816   0.00000  Uiso   1.00
H577   H     0.61120   0.47936   0.75224   0.00000  Uiso   1.00
H578   H     0.56071   0.00020   0.67284   0.00000  Uiso   1.00
H579   H     0.59449   0.05109   0.67315   0.00000  Uiso   1.00
H580   H     0.52751   0.38765   0.82808   0.00000  Uiso   1.00
H581   H     0.57579   0.04102   0.90950   0.00000  Uiso   1.00
H582   H     0.60683   0.48901   0.92791   0.00000  Uiso   1.00
H583   H     0.64244   0.03204   0.90215   0.00000  Uiso   1.00
H584   H     0.61667   0.47255   0.84129   0.00000  Uiso   1.00
H585   H     0.58662   0.02484   0.82332   0.00000  Uiso   1.00
H586   H     0.50483   0.49967   0.85253   0.00000  Uiso   1.00
H587   H     0.53532   0.45035   0.87524   0.00000  Uiso   1.00
H588   H     0.56964   0.28676   0.63359   0.00000  Uiso   1.00
H589   H     0.45664   0.19053   0.86971   0.00000  Uiso   1.00
H590   H     0.43034   0.21332   0.61497   0.00000  Uiso   1.00
H591   H     0.57210   0.28624   0.54563   0.00000  Uiso   1.00
H592   H     0.54322   0.30952   0.88167   0.00000  Uiso   1.00
H593   H     0.45719   0.18842   0.95807   0.00000  Uiso   1.00
H594   H     0.42782   0.21383   0.52634   0.00000  Uiso   1.00
H595   H     0.54266   0.31167   0.96992   0.00000  Uiso   1.00
H596   H     0.65921   0.24998   0.69358   0.00000  Uiso   1.00
H597   H     0.34079   0.24992   0.80639   0.00000  Uiso   1.00
H598   H     0.44192   0.02917   0.79293   0.00000  Uiso   1.00
N599   N     0.50000   0.25001   0.62934   0.00000  Uiso   1.00
N600   N     0.50000   0.24999   0.87065   0.00000  Uiso   1.00
O601   O     0.50000   0.18572   0.79071   0.00000  Uiso   1.00
O602   O     0.50000   0.31427   0.70928   0.00000  Uiso   1.00
O603   O     0.50000   0.18573   0.70928   0.00000  Uiso   1.00
O604   O     0.50000   0.31427   0.79072   0.00000  Uiso   1.00
O605   O     0.42495   0.25000   0.78132   0.00000  Uiso   1.00
O606   O     0.57505   0.25000   0.71868   0.00000  Uiso   1.00
O607   O     0.42495   0.25000   0.69988   0.00000  Uiso   1.00
O608   O     0.57505   0.25000   0.80011   0.00000  Uiso   1.00
C609   C     0.83347   0.16505   0.74989   0.00000  Uiso   1.00
C610   C     0.85752   0.28407   0.94938   0.00000  Uiso   1.00
C611   C     0.83329   0.25003   0.52733   0.00000  Uiso   1.00
C612   C     0.83328   0.25004   0.97265   0.00000  Uiso   1.00
C613   C     0.73455   0.24997   0.73753   0.00000  Uiso   1.00
C614   C     0.93211   0.25000   0.76246   0.00000  Uiso   1.00
C615   C     0.67926   0.24996   0.73066   0.00000  Uiso   1.00
C616   C     0.98740   0.24995   0.76933   0.00000  Uiso   1.00
C617   C     0.80269   0.04726   0.77460   0.00000  Uiso   1.00
C618   C     0.82204   0.45326   0.70900   0.00000  Uiso   1.00
C619   C     0.80152   0.09317   0.77505   0.00000  Uiso   1.00
C620   C     0.83363   0.33515   0.75020   0.00000  Uiso   1.00
C621   C     0.82082   0.40734   0.70808   0.00000  Uiso   1.00
C622   C     0.83484   0.11700   0.74970   0.00000  Uiso   1.00
C623   C     0.83491   0.38357   0.75097   0.00000  Uiso   1.00
C624   C     0.86965   0.09496   0.72410   0.00000  Uiso   1.00
C625   C     0.85010   0.40622   0.79490   0.00000  Uiso   1.00
C626   C     0.87282   0.04867   0.72472   0.00000  Uiso   1.00
C627   C     0.85219   0.45256   0.79646   0.00000  Uiso   1.00
C628   C     0.83890   0.02470   0.75088   0.00000  Uiso   1.00
C629   C     0.83869   0.47617   0.75242   0.00000  Uiso   1.00
C630   C     0.91239   0.02659   0.69731   0.00000  Uiso   1.00
C631   C     0.87314   0.27058   0.55928   0.00000  Uiso   1.00
C632   C     0.95788   0.00763   0.73184   0.00000  Uiso   1.00
C633   C     0.66729   0.49120   0.70404   0.00000  Uiso   1.00
C634   C     0.86764   0.47507   0.84551   0.00000  Uiso   1.00
C635   C     0.92089   0.49718   0.84952   0.00000  Uiso   1.00
C636   C     0.93736   0.01592   0.90052   0.00000  Uiso   1.00
C637   C     0.80903   0.21600   0.94267   0.00000  Uiso   1.00
C638   C     0.87222   0.27047   0.60988   0.00000  Uiso   1.00
C639   C     0.80918   0.21679   0.89197   0.00000  Uiso   1.00
C640   C     0.79442   0.22957   0.59948   0.00000  Uiso   1.00
C641   C     0.85741   0.28324   0.89864   0.00000  Uiso   1.00
C642   C     0.79346   0.22948   0.54862   0.00000  Uiso   1.00
Cu643  Cu    0.83333   0.24999   0.79821   0.00000  Uiso   1.00
Cu644  Cu    0.83333   0.25000   0.70178   0.00000  Uiso   1.00
H645   H     0.89527   0.11412   0.70467   0.00000  Uiso   1.00
H646   H     0.80971   0.47112   0.67563   0.00000  Uiso   1.00
H647   H     0.77391   0.11009   0.79428   0.00000  Uiso   1.00
H648   H     0.80816   0.39046   0.67394   0.00000  Uiso   1.00
H649   H     0.98558   0.46496   0.67757   0.00000  Uiso   1.00
H650   H     0.68291   0.01897   0.68434   0.00000  Uiso   1.00
H651   H     0.69922   0.47718   0.73002   0.00000  Uiso   1.00
H652   H     0.97417   0.03362   0.75816   0.00000  Uiso   1.00
H653   H     0.94453   0.47936   0.75224   0.00000  Uiso   1.00
H654   H     0.89404   0.00020   0.67284   0.00000  Uiso   1.00
H655   H     0.92782   0.05109   0.67315   0.00000  Uiso   1.00
H656   H     0.86084   0.38765   0.82808   0.00000  Uiso   1.00
H657   H     0.90912   0.04102   0.90950   0.00000  Uiso   1.00
H658   H     0.94016   0.48901   0.92791   0.00000  Uiso   1.00
H659   H     0.97577   0.03204   0.90215   0.00000  Uiso   1.00
H660   H     0.95001   0.47255   0.84129   0.00000  Uiso   1.00
H661   H     0.91996   0.02484   0.82332   0.00000  Uiso   1.00
H662   H     0.83817   0.49967   0.85253   0.00000  Uiso   1.00
H663   H     0.86865   0.45035   0.87524   0.00000  Uiso   1.00
H664   H     0.90297   0.28676   0.63359   0.00000  Uiso   1.00
H665   H     0.78997   0.19053   0.86971   0.00000  Uiso   1.00
H666   H     0.76367   0.21332   0.61497   0.00000  Uiso   1.00
H667   H     0.90543   0.28624   0.54563   0.00000  Uiso   1.00
H668   H     0.87656   0.30952   0.88167   0.00000  Uiso   1.00
H669   H     0.79053   0.18842   0.95807   0.00000  Uiso   1.00
H670   H     0.76115   0.21383   0.52634   0.00000  Uiso   1.00
H671   H     0.87599   0.31167   0.96992   0.00000  Uiso   1.00
H672   H     0.99255   0.24998   0.69358   0.00000  Uiso   1.00
H673   H     0.67412   0.24992   0.80639   0.00000  Uiso   1.00
H674   H     0.77526   0.02917   0.79293   0.00000  Uiso   1.00
N675   N     0.83333   0.25001   0.62934   0.00000  Uiso   1.00
N676   N     0.83333   0.24999   0.87065   0.00000  Uiso   1.00
O677   O     0.83334   0.18572   0.79071   0.00000  Uiso   1.00
O678   O     0.83333   0.31427   0.70928   0.00000  Uiso   1.00
O679   O     0.83334   0.18573   0.70928   0.00000  Uiso   1.00
O680   O     0.83333   0.31427   0.79072   0.00000  Uiso   1.00
O681   O     0.75828   0.25000   0.78132   0.00000  Uiso   1.00
O682   O     0.90839   0.25000   0.71868   0.00000  Uiso   1.00
O683   O     0.75828   0.25000   0.69988   0.00000  Uiso   1.00
O684   O     0.90839   0.25000   0.80011   0.00000  Uiso   1.00
C685   C     0.16680   0.66505   0.74989   0.00000  Uiso   1.00
C686   C     0.19085   0.78407   0.94938   0.00000  Uiso   1.00
C687   C     0.16663   0.75003   0.52733   0.00000  Uiso   1.00
C688   C     0.16661   0.75004   0.97265   0.00000  Uiso   1.00
C689   C     0.06789   0.74997   0.73753   0.00000  Uiso   1.00
C690   C     0.26544   0.75000   0.76246   0.00000  Uiso   1.00
C691   C     0.01259   0.74996   0.73066   0.00000  Uiso   1.00
C692   C     0.32074   0.74995   0.76933   0.00000  Uiso   1.00
C693   C     0.13602   0.54726   0.77460   0.00000  Uiso   1.00
C694   C     0.15537   0.95326   0.70900   0.00000  Uiso   1.00
C695   C     0.13485   0.59317   0.77505   0.00000  Uiso   1.00
C696   C     0.16697   0.83515   0.75020   0.00000  Uiso   1.00
C697   C     0.15415   0.90734   0.70808   0.00000  Uiso   1.00
C698   C     0.16817   0.61700   0.74970   0.00000  Uiso   1.00
C699   C     0.16825   0.88357   0.75097   0.00000  Uiso   1.00
C700   C     0.20299   0.59496   0.72410   0.00000  Uiso   1.00
C701   C     0.18344   0.90622   0.79490   0.00000  Uiso   1.00
C702   C     0.20615   0.54867   0.72472   0.00000  Uiso   1.00
C703   C     0.18553   0.95256   0.79646   0.00000  Uiso   1.00
C704   C     0.17223   0.52470   0.75088   0.00000  Uiso   1.00
C705   C     0.17202   0.97617   0.75242   0.00000  Uiso   1.00
C706   C     0.24572   0.52659   0.69731   0.00000  Uiso   1.00
C707   C     0.20648   0.77058   0.55928   0.00000  Uiso   1.00
C708   C     0.29121   0.50763   0.73184   0.00000  Uiso   1.00
C709   C     0.00062   0.99120   0.70404   0.00000  Uiso   1.00
C710   C     0.20097   0.97507   0.84551   0.00000  Uiso   1.00
C711   C     0.25422   0.99718   0.84952   0.00000  Uiso   1.00
C712   C     0.27069   0.51592   0.90052   0.00000  Uiso   1.00
C713   C     0.14236   0.71600   0.94267   0.00000  Uiso   1.00
C714   C     0.20555   0.77047   0.60988   0.00000  Uiso   1.00
C715   C     0.14251   0.71679   0.89197   0.00000  Uiso   1.00
C716   C     0.12776   0.72957   0.59948   0.00000  Uiso   1.00
C717   C     0.19074   0.78324   0.89864   0.00000  Uiso   1.00
C718   C     0.12679   0.72948   0.54862   0.00000  Uiso   1.00
Cu719  Cu    0.16667   0.74999   0.79821   0.00000  Uiso   1.00
Cu720  Cu    0.16667   0.75000   0.70178   0.00000  Uiso   1.00
H721   H     0.22861   0.61412   0.70467   0.00000  Uiso   1.00
H722   H     0.14304   0.97112   0.67563   0.00000  Uiso   1.00
H723   H     0.10724   0.61009   0.79428   0.00000  Uiso   1.00
H724   H     0.14149   0.89046   0.67394   0.00000  Uiso   1.00
H725   H     0.31891   0.96496   0.67757   0.00000  Uiso   1.00
H726   H     0.01624   0.51897   0.68434   0.00000  Uiso   1.00
H727   H     0.03256   0.97718   0.73002   0.00000  Uiso   1.00
H728   H     0.30751   0.53362   0.75816   0.00000  Uiso   1.00
H729   H     0.27786   0.97936   0.75224   0.00000  Uiso   1.00
H730   H     0.22737   0.50020   0.67284   0.00000  Uiso   1.00
H731   H     0.26115   0.55109   0.67315   0.00000  Uiso   1.00
H732   H     0.19417   0.88765   0.82808   0.00000  Uiso   1.00
H733   H     0.24246   0.54102   0.90950   0.00000  Uiso   1.00
H734   H     0.27350   0.98901   0.92791   0.00000  Uiso   1.00
H735   H     0.30911   0.53204   0.90215   0.00000  Uiso   1.00
H736   H     0.28334   0.97255   0.84129   0.00000  Uiso   1.00
H737   H     0.25329   0.52484   0.82332   0.00000  Uiso   1.00
H738   H     0.17150   0.99967   0.85253   0.00000  Uiso   1.00
H739   H     0.20199   0.95035   0.87524   0.00000  Uiso   1.00
H740   H     0.23631   0.78676   0.63359   0.00000  Uiso   1.00
H741   H     0.12331   0.69053   0.86971   0.00000  Uiso   1.00
H742   H     0.09701   0.71332   0.61497   0.00000  Uiso   1.00
H743   H     0.23877   0.78624   0.54563   0.00000  Uiso   1.00
H744   H     0.20989   0.80952   0.88167   0.00000  Uiso   1.00
H745   H     0.12386   0.68842   0.95807   0.00000  Uiso   1.00
H746   H     0.09449   0.71383   0.52634   0.00000  Uiso   1.00
H747   H     0.20933   0.81167   0.96992   0.00000  Uiso   1.00
H748   H     0.32588   0.74998   0.69358   0.00000  Uiso   1.00
H749   H     0.00745   0.74992   0.80639   0.00000  Uiso   1.00
H750   H     0.10859   0.52917   0.79293   0.00000  Uiso   1.00
N751   N     0.16667   0.75001   0.62934   0.00000  Uiso   1.00
N752   N     0.16667   0.74999   0.87065   0.00000  Uiso   1.00
O753   O     0.16667   0.68572   0.79071   0.00000  Uiso   1.00
O754   O     0.16666   0.81427   0.70928   0.00000  Uiso   1.00
O755   O     0.16667   0.68573   0.70928   0.00000  Uiso   1.00
O756   O     0.16666   0.81427   0.79072   0.00000  Uiso   1.00
O757   O     0.09161   0.75000   0.78132   0.00000  Uiso   1.00
O758   O     0.24172   0.75000   0.71868   0.00000  Uiso   1.00
O759   O     0.09161   0.75000   0.69988   0.00000  Uiso   1.00
O760   O     0.24172   0.75000   0.80011   0.00000  Uiso   1.00
C761   C     0.50013   0.66505   0.74989   0.00000  Uiso   1.00
C762   C     0.52419   0.78407   0.94938   0.00000  Uiso   1.00
C763   C     0.49996   0.75003   0.52733   0.00000  Uiso   1.00
C764   C     0.49995   0.75004   0.97265   0.00000  Uiso   1.00
C765   C     0.40122   0.74997   0.73753   0.00000  Uiso   1.00
C766   C     0.59878   0.75000   0.76246   0.00000  Uiso   1.00
C767   C     0.34593   0.74996   0.73066   0.00000  Uiso   1.00
C768   C     0.65407   0.74995   0.76933   0.00000  Uiso   1.00
C769   C     0.46936   0.54726   0.77460   0.00000  Uiso   1.00
C770   C     0.48870   0.95326   0.70900   0.00000  Uiso   1.00
C771   C     0.46819   0.59317   0.77505   0.00000  Uiso   1.00
C772   C     0.50030   0.83515   0.75020   0.00000  Uiso   1.00
C773   C     0.48748   0.90734   0.70808   0.00000  Uiso   1.00
C774   C     0.50150   0.61700   0.74970   0.00000  Uiso   1.00
C775   C     0.50158   0.88357   0.75097   0.00000  Uiso   1.00
C776   C     0.53632   0.59496   0.72410   0.00000  Uiso   1.00
C777   C     0.51677   0.90622   0.79490   0.00000  Uiso   1.00
C778   C     0.53948   0.54867   0.72472   0.00000  Uiso   1.00
C779   C     0.51886   0.95256   0.79646   0.00000  Uiso   1.00
C780   C     0.50556   0.52470   0.75088   0.00000  Uiso   1.00
C781   C     0.50536   0.97617   0.75242   0.00000  Uiso   1.00
C782   C     0.57906   0.52659   0.69731   0.00000  Uiso   1.00
C783   C     0.53981   0.77058   0.55928   0.00000  Uiso   1.00
C784   C     0.62454   0.50763   0.73184   0.00000  Uiso   1.00
C785   C     0.33395   0.99120   0.70404   0.00000  Uiso   1.00
C786   C     0.53431   0.97507   0.84551   0.00000  Uiso   1.00
C787   C     0.58755   0.99718   0.84952   0.00000  Uiso   1.00
C788   C     0.60403   0.51592   0.90052   0.00000  Uiso   1.00
C789   C     0.47570   0.71600   0.94267   0.00000  Uiso   1.00
C790   C     0.53888   0.77047   0.60988   0.00000  Uiso   1.00
C791   C     0.47584   0.71679   0.89197   0.00000  Uiso   1.00
C792   C     0.46109   0.72957   0.59948   0.00000  Uiso   1.00
C793   C     0.52407   0.78324   0.89864   0.00000  Uiso   1.00
C794   C     0.46013   0.72948   0.54862   0.00000  Uiso   1.00
Cu795  Cu    0.50000   0.74999   0.79821   0.00000  Uiso   1.00
Cu796  Cu    0.50000   0.75000   0.70178   0.00000  Uiso   1.00
H797   H     0.56194   0.61412   0.70467   0.00000  Uiso   1.00
H798   H     0.47638   0.97112   0.67563   0.00000  Uiso   1.00
H799   H     0.44057   0.61009   0.79428   0.00000  Uiso   1.00
H800   H     0.47483   0.89046   0.67394   0.00000  Uiso   1.00
H801   H     0.65224   0.96496   0.67757   0.00000  Uiso   1.00
H802   H     0.34957   0.51897   0.68434   0.00000  Uiso   1.00
H803   H     0.36589   0.97718   0.73002   0.00000  Uiso   1.00
H804   H     0.64084   0.53362   0.75816   0.00000  Uiso   1.00
H805   H     0.61120   0.97936   0.75224   0.00000  Uiso   1.00
H806   H     0.56071   0.50020   0.67284   0.00000  Uiso   1.00
H807   H     0.59449   0.55109   0.67315   0.00000  Uiso   1.00
H808   H     0.52751   0.88765   0.82808   0.00000  Uiso   1.00
H809   H     0.57579   0.54102   0.90950   0.00000  Uiso   1.00
H810   H     0.60683   0.98901   0.92791   0.00000  Uiso   1.00
H811   H     0.64244   0.53204   0.90215   0.00000  Uiso   1.00
H812   H     0.61667   0.97255   0.84129   0.00000  Uiso   1.00
H813   H     0.58662   0.52484   0.82332   0.00000  Uiso   1.00
H814   H     0.50483   0.99967   0.85253   0.00000  Uiso   1.00
H815   H     0.53532   0.95035   0.87524   0.00000  Uiso   1.00
H816   H     0.56964   0.78676   0.63359   0.00000  Uiso   1.00
H817   H     0.45664   0.69053   0.86971   0.00000  Uiso   1.00
H818   H     0.43034   0.71332   0.61497   0.00000  Uiso   1.00
H819   H     0.57210   0.78624   0.54563   0.00000  Uiso   1.00
H820   H     0.54322   0.80952   0.88167   0.00000  Uiso   1.00
H821   H     0.45719   0.68842   0.95807   0.00000  Uiso   1.00
H822   H     0.42782   0.71383   0.52634   0.00000  Uiso   1.00
H823   H     0.54266   0.81167   0.96992   0.00000  Uiso   1.00
H824   H     0.65921   0.74998   0.69358   0.00000  Uiso   1.00
H825   H     0.34079   0.74992   0.80639   0.00000  Uiso   1.00
H826   H     0.44192   0.52917   0.79293   0.00000  Uiso   1.00
N827   N     0.50000   0.75001   0.62934   0.00000  Uiso   1.00
N828   N     0.50000   0.74999   0.87065   0.00000  Uiso   1.00
O829   O     0.50000   0.68572   0.79071   0.00000  Uiso   1.00
O830   O     0.50000   0.81427   0.70928   0.00000  Uiso   1.00
O831   O     0.50000   0.68573   0.70928   0.00000  Uiso   1.00
O832   O     0.50000   0.81427   0.79072   0.00000  Uiso   1.00
O833   O     0.42495   0.75000   0.78132   0.00000  Uiso   1.00
O834   O     0.57505   0.75000   0.71868   0.00000  Uiso   1.00
O835   O     0.42495   0.75000   0.69988   0.00000  Uiso   1.00
O836   O     0.57505   0.75000   0.80011   0.00000  Uiso   1.00
C837   C     0.83347   0.66505   0.74989   0.00000  Uiso   1.00
C838   C     0.85752   0.78407   0.94938   0.00000  Uiso   1.00
C839   C     0.83329   0.75003   0.52733   0.00000  Uiso   1.00
C840   C     0.83328   0.75004   0.97265   0.00000  Uiso   1.00
C841   C     0.73455   0.74997   0.73753   0.00000  Uiso   1.00
C842   C     0.93211   0.75000   0.76246   0.00000  Uiso   1.00
C843   C     0.67926   0.74996   0.73066   0.00000  Uiso   1.00
C844   C     0.98740   0.74995   0.76933   0.00000  Uiso   1.00
C845   C     0.80269   0.54726   0.77460   0.00000  Uiso   1.00
C846   C     0.82204   0.95326   0.70900   0.00000  Uiso   1.00
C847   C     0.80152   0.59317   0.77505   0.00000  Uiso   1.00
C848   C     0.83363   0.83515   0.75020   0.00000  Uiso   1.00
C849   C     0.82082   0.90734   0.70808   0.00000  Uiso   1.00
C850   C     0.83484   0.61700   0.74970   0.00000  Uiso   1.00
C851   C     0.83491   0.88357   0.75097   0.00000  Uiso   1.00
C852   C     0.86965   0.59496   0.72410   0.00000  Uiso   1.00
C853   C     0.85010   0.90622   0.79490   0.00000  Uiso   1.00
C854   C     0.87282   0.54867   0.72472   0.00000  Uiso   1.00
C855   C     0.85219   0.95256   0.79646   0.00000  Uiso   1.00
C856   C     0.83890   0.52470   0.75088   0.00000  Uiso   1.00
C857   C     0.83869   0.97617   0.75242   0.00000  Uiso   1.00
C858   C     0.91239   0.52659   0.69731   0.00000  Uiso   1.00
C859   C     0.87314   0.77058   0.55928   0.00000  Uiso   1.00
C860   C     0.95788   0.50763   0.73184   0.00000  Uiso   1.00
C861   C     0.66729   0.99120   0.70404   0.00000  Uiso   1.00
C862   C     0.86764   0.97507   0.84551   0.00000  Uiso   1.00
C863   C     0.92089   0.99718   0.84952   0.00000  Uiso   1.00
C864   C     0.93736   0.51592   0.90052   0.00000  Uiso   1.00
C865   C     0.80903   0.71600   0.94267   0.00000  Uiso   1.00
C866   C     0.87222   0.77047   0.60988   0.00000  Uiso   1.00
C867   C     0.80918   0.71679   0.89197   0.00000  Uiso   1.00
C868   C     0.79442   0.72957   0.59948   0.00000  Uiso   1.00
C869   C     0.85741   0.78324   0.89864   0.00000  Uiso   1.00
C870   C     0.79346   0.72948   0.54862   0.00000  Uiso   1.00
Cu871  Cu    0.83333   0.74999   0.79821   0.00000  Uiso   1.00
Cu872  Cu    0.83333   0.75000   0.70178   0.00000  Uiso   1.00
H873   H     0.89527   0.61412   0.70467   0.00000  Uiso   1.00
H874   H     0.80971   0.97112   0.67563   0.00000  Uiso   1.00
H875   H     0.77391   0.61009   0.79428   0.00000  Uiso   1.00
H876   H     0.80816   0.89046   0.67394   0.00000  Uiso   1.00
H877   H     0.98558   0.96496   0.67757   0.00000  Uiso   1.00
H878   H     0.68291   0.51897   0.68434   0.00000  Uiso   1.00
H879   H     0.69922   0.97718   0.73002   0.00000  Uiso   1.00
H880   H     0.97417   0.53362   0.75816   0.00000  Uiso   1.00
H881   H     0.94453   0.97936   0.75224   0.00000  Uiso   1.00
H882   H     0.89404   0.50020   0.67284   0.00000  Uiso   1.00
H883   H     0.92782   0.55109   0.67315   0.00000  Uiso   1.00
H884   H     0.86084   0.88765   0.82808   0.00000  Uiso   1.00
H885   H     0.90912   0.54102   0.90950   0.00000  Uiso   1.00
H886   H     0.94016   0.98901   0.92791   0.00000  Uiso   1.00
H887   H     0.97577   0.53204   0.90215   0.00000  Uiso   1.00
H888   H     0.95001   0.97255   0.84129   0.00000  Uiso   1.00
H889   H     0.91996   0.52484   0.82332   0.00000  Uiso   1.00
H890   H     0.83817   0.99967   0.85253   0.00000  Uiso   1.00
H891   H     0.86865   0.95035   0.87524   0.00000  Uiso   1.00
H892   H     0.90297   0.78676   0.63359   0.00000  Uiso   1.00
H893   H     0.78997   0.69053   0.86971   0.00000  Uiso   1.00
H894   H     0.76367   0.71332   0.61497   0.00000  Uiso   1.00
H895   H     0.90543   0.78624   0.54563   0.00000  Uiso   1.00
H896   H     0.87656   0.80952   0.88167   0.00000  Uiso   1.00
H897   H     0.79053   0.68842   0.95807   0.00000  Uiso   1.00
H898   H     0.76115   0.71383   0.52634   0.00000  Uiso   1.00
H899   H     0.87599   0.81167   0.96992   0.00000  Uiso   1.00
H900   H     0.99255   0.74998   0.69358   0.00000  Uiso   1.00
H901   H     0.67412   0.74992   0.80639   0.00000  Uiso   1.00
H902   H     0.77526   0.52917   0.79293   0.00000  Uiso   1.00
N903   N     0.83333   0.75001   0.62934   0.00000  Uiso   1.00
N904   N     0.83333   0.74999   0.87065   0.00000  Uiso   1.00
O905   O     0.83334   0.68572   0.79071   0.00000  Uiso   1.00
O906   O     0.83333   0.81427   0.70928   0.00000  Uiso   1.00
O907   O     0.83334   0.68573   0.70928   0.00000  Uiso   1.00
O908   O     0.83333   0.81427   0.79072   0.00000  Uiso   1.00
O909   O     0.75828   0.75000   0.78132   0.00000  Uiso   1.00
O910   O     0.90839   0.75000   0.71868   0.00000  Uiso   1.00
O911   O     0.75828   0.75000   0.69988   0.00000  Uiso   1.00
O912   O     0.90839   0.75000   0.80011   0.00000  Uiso   1.00
loop_
_geom_bond_atom_site_label_1
_geom_bond_atom_site_label_2
_geom_bond_distance
_geom_bond_site_symmetry_2
_ccdc_geom_bond_type
C1     O71     1.290   .     A
C1     O69     1.291   .     A
C1     C14     1.451   .     S
C2     H63     1.081   .     S
C2     C4      1.411   .     A
C2     C33     1.407   .     A
C3     C23     1.411   .     A
C3     C34     1.411   .     A
C3     C460    1.517   1_554 S
C4     C29     1.411   .     A
C4     C459    1.517   .     S
C5     C7      1.433   .     S
C5     O75     1.287   .     A
C5     O73     1.285   .     A
C6     O74     1.285   .     A
C6     C8      1.433   .     S
C6     O76     1.287   .     A
C7     C160    1.335   1_455 S
C7     H216    1.087   1_455 S
C8     C83     1.335   .     S
C8     H141    1.087   .     S
C9     H66     1.084   .     S
C9     C20     1.403   .     A
C9     C11     1.387   .     A
C10    C21     1.401   .     A
C10    C13     1.387   .     A
C10    H38     1.084   .     S
C11    C14     1.394   .     A
C11    H39     1.084   .     S
C12    O72     1.292   .     A
C12    C15     1.463   .     S
C12    O70     1.294   .     A
C13    H40     1.083   .     S
C13    C15     1.398   .     A
C14    C16     1.398   .     A
C15    C17     1.402   .     A
C16    H37     1.084   .     S
C16    C18     1.401   .     A
C17    H48     1.084   .     S
C17    C19     1.400   .     A
C18    C22     1.521   .     S
C18    C20     1.421   .     A
C19    C21     1.420   .     A
C19    C26     1.521   .     S
C20    C249    1.466   1_545 S
C21    C248    1.466   .     S
C22    H47     1.113   .     S
C22    H46     1.108   .     S
C22    C24     1.534   .     S
C23    H59     1.081   .     S
C23    C30     1.407   .     A
C24    H44     1.112   .     S
C24    C329    1.527   1_545 S
C24    H273    1.109   1_545 S
C25    H43     1.111   .     S
C25    C404    1.527   1_455 S
C25    H193    1.111   1_455 S
C25    H270    1.111   .     S
C26    H55     1.113   .     S
C26    C27     1.533   .     S
C26    H54     1.108   .     S
C27    H52     1.112   .     S
C27    C256    1.526   .     S
C27    H281    1.108   .     S
C28    H51     1.110   .     S
C28    H49     1.111   .     S
C28    C255    1.526   1_545 S
C28    H278    1.111   1_545 S
C29    H61     1.081   .     S
C29    C31     1.407   .     A
C30    H56     1.081   .     S
C30    N67     1.364   .     A
C31    N68     1.364   .     A
C31    H57     1.081   .     S
C32    H58     1.081   .     S
C32    C34     1.407   .     A
C32    N67     1.364   .     A
C33    H60     1.081   .     S
C33    N68     1.364   .     A
C34    H62     1.081   .     S
Cu35   Cu36    2.675   .     S
Cu35   O76     1.957   .     S
Cu35   O72     1.953   .     S
Cu35   O73     1.954   .     S
Cu35   N68     2.009   .     S
Cu35   O69     1.951   .     S
Cu36   N67     2.009   .     S
Cu36   O71     1.953   .     S
Cu36   O70     1.951   .     S
Cu36   O75     1.957   .     S
Cu36   O74     1.954   .     S
H41    C101    1.111   .     S
H42    C253    1.111   1_545 S
H45    C252    1.109   .     S
H50    C256    1.111   .     S
H53    C255    1.108   1_545 S
H64    C83     1.087   .     S
H65    C160    1.087   1_455 S
C77    O147    1.290   .     A
C77    O145    1.291   .     A
C77    C90     1.451   .     S
C78    H139    1.081   .     S
C78    C80     1.411   .     A
C78    C109    1.407   .     A
C79    C99     1.411   .     A
C79    C110    1.411   .     A
C79    C536    1.517   1_554 S
C80    C105    1.411   .     A
C80    C535    1.517   .     S
C81    C83     1.433   .     S
C81    O151    1.287   .     A
C81    O149    1.285   .     A
C82    O150    1.285   .     A
C82    C84     1.433   .     S
C82    O152    1.287   .     A
C84    C159    1.335   .     S
C84    H217    1.087   .     S
C85    H142    1.084   .     S
C85    C96     1.403   .     A
C85    C87     1.387   .     A
C86    C97     1.401   .     A
C86    C89     1.387   .     A
C86    H114    1.084   .     S
C87    C90     1.394   .     A
C87    H115    1.084   .     S
C88    O148    1.292   .     A
C88    C91     1.463   .     S
C88    O146    1.294   .     A
C89    H116    1.083   .     S
C89    C91     1.398   .     A
C90    C92     1.398   .     A
C91    C93     1.402   .     A
C92    H113    1.084   .     S
C92    C94     1.401   .     A
C93    H124    1.084   .     S
C93    C95     1.400   .     A
C94    C98     1.521   .     S
C94    C96     1.421   .     A
C95    C97     1.420   .     A
C95    C102    1.521   .     S
C96    C325    1.466   1_545 S
C97    C324    1.466   .     S
C98    H123    1.113   .     S
C98    H122    1.108   .     S
C98    C100    1.534   .     S
C99    H135    1.081   .     S
C99    C106    1.407   .     A
C100   H120    1.112   .     S
C100   C405    1.527   1_545 S
C100   H349    1.109   1_545 S
C101   H119    1.111   .     S
C101   C252    1.527   .     S
C101   H346    1.111   .     S
C102   H131    1.113   .     S
C102   C103    1.533   .     S
C102   H130    1.108   .     S
C103   H128    1.112   .     S
C103   C332    1.526   .     S
C103   H357    1.108   .     S
C104   H127    1.110   .     S
C104   H125    1.111   .     S
C104   C331    1.526   1_545 S
C104   H354    1.111   1_545 S
C105   H137    1.081   .     S
C105   C107    1.407   .     A
C106   H132    1.081   .     S
C106   N143    1.364   .     A
C107   N144    1.364   .     A
C107   H133    1.081   .     S
C108   H134    1.081   .     S
C108   C110    1.407   .     A
C108   N143    1.364   .     A
C109   H136    1.081   .     S
C109   N144    1.364   .     A
C110   H138    1.081   .     S
Cu111  Cu112   2.675   .     S
Cu111  O152    1.957   .     S
Cu111  O148    1.953   .     S
Cu111  O149    1.954   .     S
Cu111  N144    2.009   .     S
Cu111  O145    1.951   .     S
Cu112  N143    2.009   .     S
Cu112  O147    1.953   .     S
Cu112  O146    1.951   .     S
Cu112  O151    1.957   .     S
Cu112  O150    1.954   .     S
H117   C177    1.111   .     S
H118   C329    1.111   1_545 S
H121   C328    1.109   .     S
H126   C332    1.111   .     S
H129   C331    1.108   1_545 S
H140   C159    1.087   .     S
C153   O223    1.290   .     A
C153   O221    1.291   .     A
C153   C166    1.451   .     S
C154   H215    1.081   .     S
C154   C156    1.411   .     A
C154   C185    1.407   .     A
C155   C175    1.411   .     A
C155   C186    1.411   .     A
C155   C612    1.517   1_554 S
C156   C181    1.411   .     A
C156   C611    1.517   .     S
C157   C159    1.433   .     S
C157   O227    1.287   .     A
C157   O225    1.285   .     A
C158   O226    1.285   .     A
C158   C160    1.433   .     S
C158   O228    1.287   .     A
C160   C7      1.335   1_655 S
C160   H65     1.087   1_655 S
C161   H218    1.084   .     S
C161   C172    1.403   .     A
C161   C163    1.387   .     A
C162   C173    1.401   .     A
C162   C165    1.387   .     A
C162   H190    1.084   .     S
C163   C166    1.394   .     A
C163   H191    1.084   .     S
C164   O224    1.292   .     A
C164   C167    1.463   .     S
C164   O222    1.294   .     A
C165   H192    1.083   .     S
C165   C167    1.398   .     A
C166   C168    1.398   .     A
C167   C169    1.402   .     A
C168   H189    1.084   .     S
C168   C170    1.401   .     A
C169   H200    1.084   .     S
C169   C171    1.400   .     A
C170   C174    1.521   .     S
C170   C172    1.421   .     A
C171   C173    1.420   .     A
C171   C178    1.521   .     S
C172   C401    1.466   1_545 S
C173   C400    1.466   .     S
C174   H199    1.113   .     S
C174   H198    1.108   .     S
C174   C176    1.534   .     S
C175   H211    1.081   .     S
C175   C182    1.407   .     A
C176   H196    1.112   .     S
C176   C253    1.527   1_645 S
C176   H425    1.109   1_545 S
C177   H195    1.111   .     S
C177   C328    1.527   .     S
C177   H422    1.111   .     S
C178   H207    1.113   .     S
C178   C179    1.533   .     S
C178   H206    1.108   .     S
C179   H204    1.112   .     S
C179   C408    1.526   .     S
C179   H433    1.108   .     S
C180   H203    1.110   .     S
C180   H201    1.111   .     S
C180   C407    1.526   1_545 S
C180   H430    1.111   1_545 S
C181   H213    1.081   .     S
C181   C183    1.407   .     A
C182   H208    1.081   .     S
C182   N219    1.364   .     A
C183   N220    1.364   .     A
C183   H209    1.081   .     S
C184   H210    1.081   .     S
C184   C186    1.407   .     A
C184   N219    1.364   .     A
C185   H212    1.081   .     S
C185   N220    1.364   .     A
C186   H214    1.081   .     S
Cu187  Cu188   2.675   .     S
Cu187  O228    1.957   .     S
Cu187  O224    1.953   .     S
Cu187  O225    1.954   .     S
Cu187  N220    2.009   .     S
Cu187  O221    1.951   .     S
Cu188  N219    2.009   .     S
Cu188  O223    1.953   .     S
Cu188  O222    1.951   .     S
Cu188  O227    1.957   .     S
Cu188  O226    1.954   .     S
H193   C25     1.111   1_655 S
H194   C405    1.111   1_545 S
H197   C404    1.109   .     S
H202   C408    1.111   .     S
H205   C407    1.108   1_545 S
H216   C7      1.087   1_655 S
C229   O299    1.290   .     A
C229   O297    1.291   .     A
C229   C242    1.451   .     S
C230   H291    1.081   .     S
C230   C232    1.411   .     A
C230   C261    1.407   .     A
C231   C251    1.411   .     A
C231   C262    1.411   .     A
C231   C688    1.517   1_554 S
C232   C257    1.411   .     A
C232   C687    1.517   .     S
C233   C235    1.433   .     S
C233   O303    1.287   .     A
C233   O301    1.285   .     A
C234   O302    1.285   .     A
C234   C236    1.433   .     S
C234   O304    1.287   .     A
C235   C388    1.335   1_455 S
C235   H444    1.087   1_455 S
C236   C311    1.335   .     S
C236   H369    1.087   .     S
C237   H294    1.084   .     S
C237   C248    1.403   .     A
C237   C239    1.387   .     A
C238   C249    1.401   .     A
C238   C241    1.387   .     A
C238   H266    1.084   .     S
C239   C242    1.394   .     A
C239   H267    1.084   .     S
C240   O300    1.292   .     A
C240   C243    1.463   .     S
C240   O298    1.294   .     A
C241   H268    1.083   .     S
C241   C243    1.398   .     A
C242   C244    1.398   .     A
C243   C245    1.402   .     A
C244   H265    1.084   .     S
C244   C246    1.401   .     A
C245   H276    1.084   .     S
C245   C247    1.400   .     A
C246   C250    1.521   .     S
C246   C248    1.421   .     A
C247   C249    1.420   .     A
C247   C254    1.521   .     S
C249   C20     1.466   1_565 S
C250   H275    1.113   .     S
C250   H274    1.108   .     S
C250   C252    1.534   .     S
C251   H287    1.081   .     S
C251   C258    1.407   .     A
C252   H272    1.112   .     S
C253   H271    1.111   .     S
C253   C176    1.527   1_465 S
C253   H421    1.111   1_455 S
C253   H42     1.111   1_565 S
C254   H283    1.113   .     S
C254   C255    1.533   .     S
C254   H282    1.108   .     S
C255   H280    1.112   .     S
C255   C28     1.526   1_565 S
C255   H53     1.108   1_565 S
C256   H279    1.110   .     S
C256   H277    1.111   .     S
C257   H289    1.081   .     S
C257   C259    1.407   .     A
C258   H284    1.081   .     S
C258   N295    1.364   .     A
C259   N296    1.364   .     A
C259   H285    1.081   .     S
C260   H286    1.081   .     S
C260   C262    1.407   .     A
C260   N295    1.364   .     A
C261   H288    1.081   .     S
C261   N296    1.364   .     A
C262   H290    1.081   .     S
Cu263  Cu264   2.675   .     S
Cu263  O304    1.957   .     S
Cu263  O300    1.953   .     S
Cu263  O301    1.954   .     S
Cu263  N296    2.009   .     S
Cu263  O297    1.951   .     S
Cu264  N295    2.009   .     S
Cu264  O299    1.953   .     S
Cu264  O298    1.951   .     S
Cu264  O303    1.957   .     S
Cu264  O302    1.954   .     S
H269   C329    1.111   .     S
H273   C24     1.109   1_565 S
H278   C28     1.111   1_565 S
H292   C311    1.087   .     S
H293   C388    1.087   1_455 S
C305   O375    1.290   .     A
C305   O373    1.291   .     A
C305   C318    1.451   .     S
C306   H367    1.081   .     S
C306   C308    1.411   .     A
C306   C337    1.407   .     A
C307   C327    1.411   .     A
C307   C338    1.411   .     A
C307   C764    1.517   1_554 S
C308   C333    1.411   .     A
C308   C763    1.517   .     S
C309   C311    1.433   .     S
C309   O379    1.287   .     A
C309   O377    1.285   .     A
C310   O378    1.285   .     A
C310   C312    1.433   .     S
C310   O380    1.287   .     A
C312   C387    1.335   .     S
C312   H445    1.087   .     S
C313   H370    1.084   .     S
C313   C324    1.403   .     A
C313   C315    1.387   .     A
C314   C325    1.401   .     A
C314   C317    1.387   .     A
C314   H342    1.084   .     S
C315   C318    1.394   .     A
C315   H343    1.084   .     S
C316   O376    1.292   .     A
C316   C319    1.463   .     S
C316   O374    1.294   .     A
C317   H344    1.083   .     S
C317   C319    1.398   .     A
C318   C320    1.398   .     A
C319   C321    1.402   .     A
C320   H341    1.084   .     S
C320   C322    1.401   .     A
C321   H352    1.084   .     S
C321   C323    1.400   .     A
C322   C326    1.521   .     S
C322   C324    1.421   .     A
C323   C325    1.420   .     A
C323   C330    1.521   .     S
C325   C96     1.466   1_565 S
C326   H351    1.113   .     S
C326   H350    1.108   .     S
C326   C328    1.534   .     S
C327   H363    1.081   .     S
C327   C334    1.407   .     A
C328   H348    1.112   .     S
C329   H347    1.111   .     S
C329   C24     1.527   1_565 S
C329   H118    1.111   1_565 S
C330   H359    1.113   .     S
C330   C331    1.533   .     S
C330   H358    1.108   .     S
C331   H356    1.112   .     S
C331   C104    1.526   1_565 S
C331   H129    1.108   1_565 S
C332   H355    1.110   .     S
C332   H353    1.111   .     S
C333   H365    1.081   .     S
C333   C335    1.407   .     A
C334   H360    1.081   .     S
C334   N371    1.364   .     A
C335   N372    1.364   .     A
C335   H361    1.081   .     S
C336   H362    1.081   .     S
C336   C338    1.407   .     A
C336   N371    1.364   .     A
C337   H364    1.081   .     S
C337   N372    1.364   .     A
C338   H366    1.081   .     S
Cu339  Cu340   2.675   .     S
Cu339  O380    1.957   .     S
Cu339  O376    1.953   .     S
Cu339  O377    1.954   .     S
Cu339  N372    2.009   .     S
Cu339  O373    1.951   .     S
Cu340  N371    2.009   .     S
Cu340  O375    1.953   .     S
Cu340  O374    1.951   .     S
Cu340  O379    1.957   .     S
Cu340  O378    1.954   .     S
H345   C405    1.111   .     S
H349   C100    1.109   1_565 S
H354   C104    1.111   1_565 S
H368   C387    1.087   .     S
C381   O451    1.290   .     A
C381   O449    1.291   .     A
C381   C394    1.451   .     S
C382   H443    1.081   .     S
C382   C384    1.411   .     A
C382   C413    1.407   .     A
C383   C403    1.411   .     A
C383   C414    1.411   .     A
C383   C840    1.517   1_554 S
C384   C409    1.411   .     A
C384   C839    1.517   .     S
C385   C387    1.433   .     S
C385   O455    1.287   .     A
C385   O453    1.285   .     A
C386   O454    1.285   .     A
C386   C388    1.433   .     S
C386   O456    1.287   .     A
C388   C235    1.335   1_655 S
C388   H293    1.087   1_655 S
C389   H446    1.084   .     S
C389   C400    1.403   .     A
C389   C391    1.387   .     A
C390   C401    1.401   .     A
C390   C393    1.387   .     A
C390   H418    1.084   .     S
C391   C394    1.394   .     A
C391   H419    1.084   .     S
C392   O452    1.292   .     A
C392   C395    1.463   .     S
C392   O450    1.294   .     A
C393   H420    1.083   .     S
C393   C395    1.398   .     A
C394   C396    1.398   .     A
C395   C397    1.402   .     A
C396   H417    1.084   .     S
C396   C398    1.401   .     A
C397   H428    1.084   .     S
C397   C399    1.400   .     A
C398   C402    1.521   .     S
C398   C400    1.421   .     A
C399   C401    1.420   .     A
C399   C406    1.521   .     S
C401   C172    1.466   1_565 S
C402   H427    1.113   .     S
C402   H426    1.108   .     S
C402   C404    1.534   .     S
C403   H439    1.081   .     S
C403   C410    1.407   .     A
C404   H424    1.112   .     S
C404   C25     1.527   1_655 S
C405   H423    1.111   .     S
C405   C100    1.527   1_565 S
C405   H194    1.111   1_565 S
C406   H435    1.113   .     S
C406   C407    1.533   .     S
C406   H434    1.108   .     S
C407   H432    1.112   .     S
C407   C180    1.526   1_565 S
C407   H205    1.108   1_565 S
C408   H431    1.110   .     S
C408   H429    1.111   .     S
C409   H441    1.081   .     S
C409   C411    1.407   .     A
C410   H436    1.081   .     S
C410   N447    1.364   .     A
C411   N448    1.364   .     A
C411   H437    1.081   .     S
C412   H438    1.081   .     S
C412   C414    1.407   .     A
C412   N447    1.364   .     A
C413   H440    1.081   .     S
C413   N448    1.364   .     A
C414   H442    1.081   .     S
Cu415  Cu416   2.675   .     S
Cu415  O456    1.957   .     S
Cu415  O452    1.953   .     S
Cu415  O453    1.954   .     S
Cu415  N448    2.009   .     S
Cu415  O449    1.951   .     S
Cu416  N447    2.009   .     S
Cu416  O451    1.953   .     S
Cu416  O450    1.951   .     S
Cu416  O455    1.957   .     S
Cu416  O454    1.954   .     S
H421   C253    1.111   1_655 S
H425   C176    1.109   1_565 S
H430   C180    1.111   1_565 S
H444   C235    1.087   1_655 S
C457   O527    1.290   .     A
C457   O525    1.291   .     A
C457   C470    1.451   .     S
C458   H519    1.081   .     S
C458   C460    1.411   .     A
C458   C489    1.407   .     A
C459   C479    1.411   .     A
C459   C490    1.411   .     A
C460   C485    1.411   .     A
C460   C3      1.517   1_556 S
C461   C463    1.433   .     S
C461   O531    1.287   .     A
C461   O529    1.285   .     A
C462   O530    1.285   .     A
C462   C464    1.433   .     S
C462   O532    1.287   .     A
C463   C616    1.335   1_455 S
C463   H672    1.087   1_455 S
C464   C539    1.335   .     S
C464   H597    1.087   .     S
C465   H522    1.084   .     S
C465   C476    1.403   .     A
C465   C467    1.387   .     A
C466   C477    1.401   .     A
C466   C469    1.387   .     A
C466   H494    1.084   .     S
C467   C470    1.394   .     A
C467   H495    1.084   .     S
C468   O528    1.292   .     A
C468   C471    1.463   .     S
C468   O526    1.294   .     A
C469   H496    1.083   .     S
C469   C471    1.398   .     A
C470   C472    1.398   .     A
C471   C473    1.402   .     A
C472   H493    1.084   .     S
C472   C474    1.401   .     A
C473   H504    1.084   .     S
C473   C475    1.400   .     A
C474   C478    1.521   .     S
C474   C476    1.421   .     A
C475   C477    1.420   .     A
C475   C482    1.521   .     S
C476   C705    1.466   1_545 S
C477   C704    1.466   .     S
C478   H503    1.113   .     S
C478   H502    1.108   .     S
C478   C480    1.534   .     S
C479   H515    1.081   .     S
C479   C486    1.407   .     A
C480   H500    1.112   .     S
C480   C785    1.527   1_545 S
C480   H729    1.109   1_545 S
C481   H499    1.111   .     S
C481   C860    1.527   1_455 S
C481   H649    1.111   1_455 S
C481   H726    1.111   .     S
C482   H511    1.113   .     S
C482   C483    1.533   .     S
C482   H510    1.108   .     S
C483   H508    1.112   .     S
C483   C712    1.526   .     S
C483   H737    1.108   .     S
C484   H507    1.110   .     S
C484   H505    1.111   .     S
C484   C711    1.526   1_545 S
C484   H734    1.111   1_545 S
C485   H517    1.081   .     S
C485   C487    1.407   .     A
C486   H512    1.081   .     S
C486   N523    1.364   .     A
C487   N524    1.364   .     A
C487   H513    1.081   .     S
C488   H514    1.081   .     S
C488   C490    1.407   .     A
C488   N523    1.364   .     A
C489   H516    1.081   .     S
C489   N524    1.364   .     A
C490   H518    1.081   .     S
Cu491  Cu492   2.675   .     S
Cu491  O532    1.957   .     S
Cu491  O528    1.953   .     S
Cu491  O529    1.954   .     S
Cu491  N524    2.009   .     S
Cu491  O525    1.951   .     S
Cu492  N523    2.009   .     S
Cu492  O527    1.953   .     S
Cu492  O526    1.951   .     S
Cu492  O531    1.957   .     S
Cu492  O530    1.954   .     S
H497   C557    1.111   .     S
H498   C709    1.111   1_545 S
H501   C708    1.109   .     S
H506   C712    1.111   .     S
H509   C711    1.108   1_545 S
H520   C539    1.087   .     S
H521   C616    1.087   1_455 S
C533   O603    1.290   .     A
C533   O601    1.291   .     A
C533   C546    1.451   .     S
C534   H595    1.081   .     S
C534   C536    1.411   .     A
C534   C565    1.407   .     A
C535   C555    1.411   .     A
C535   C566    1.411   .     A
C536   C561    1.411   .     A
C536   C79     1.517   1_556 S
C537   C539    1.433   .     S
C537   O607    1.287   .     A
C537   O605    1.285   .     A
C538   O606    1.285   .     A
C538   C540    1.433   .     S
C538   O608    1.287   .     A
C540   C615    1.335   .     S
C540   H673    1.087   .     S
C541   H598    1.084   .     S
C541   C552    1.403   .     A
C541   C543    1.387   .     A
C542   C553    1.401   .     A
C542   C545    1.387   .     A
C542   H570    1.084   .     S
C543   C546    1.394   .     A
C543   H571    1.084   .     S
C544   O604    1.292   .     A
C544   C547    1.463   .     S
C544   O602    1.294   .     A
C545   H572    1.083   .     S
C545   C547    1.398   .     A
C546   C548    1.398   .     A
C547   C549    1.402   .     A
C548   H569    1.084   .     S
C548   C550    1.401   .     A
C549   H580    1.084   .     S
C549   C551    1.400   .     A
C550   C554    1.521   .     S
C550   C552    1.421   .     A
C551   C553    1.420   .     A
C551   C558    1.521   .     S
C552   C781    1.466   1_545 S
C553   C780    1.466   .     S
C554   H579    1.113   .     S
C554   H578    1.108   .     S
C554   C556    1.534   .     S
C555   H591    1.081   .     S
C555   C562    1.407   .     A
C556   H576    1.112   .     S
C556   C861    1.527   1_545 S
C556   H805    1.109   1_545 S
C557   H575    1.111   .     S
C557   C708    1.527   .     S
C557   H802    1.111   .     S
C558   H587    1.113   .     S
C558   C559    1.533   .     S
C558   H586    1.108   .     S
C559   H584    1.112   .     S
C559   C788    1.526   .     S
C559   H813    1.108   .     S
C560   H583    1.110   .     S
C560   H581    1.111   .     S
C560   C787    1.526   1_545 S
C560   H810    1.111   1_545 S
C561   H593    1.081   .     S
C561   C563    1.407   .     A
C562   H588    1.081   .     S
C562   N599    1.364   .     A
C563   N600    1.364   .     A
C563   H589    1.081   .     S
C564   H590    1.081   .     S
C564   C566    1.407   .     A
C564   N599    1.364   .     A
C565   H592    1.081   .     S
C565   N600    1.364   .     A
C566   H594    1.081   .     S
Cu567  Cu568   2.675   .     S
Cu567  O608    1.957   .     S
Cu567  O604    1.953   .     S
Cu567  O605    1.954   .     S
Cu567  N600    2.009   .     S
Cu567  O601    1.951   .     S
Cu568  N599    2.009   .     S
Cu568  O603    1.953   .     S
Cu568  O602    1.951   .     S
Cu568  O607    1.957   .     S
Cu568  O606    1.954   .     S
H573   C633    1.111   .     S
H574   C785    1.111   1_545 S
H577   C784    1.109   .     S
H582   C788    1.111   .     S
H585   C787    1.108   1_545 S
H596   C615    1.087   .     S
C609   O679    1.290   .     A
C609   O677    1.291   .     A
C609   C622    1.451   .     S
C610   H671    1.081   .     S
C610   C612    1.411   .     A
C610   C641    1.407   .     A
C611   C631    1.411   .     A
C611   C642    1.411   .     A
C612   C637    1.411   .     A
C612   C155    1.517   1_556 S
C613   C615    1.433   .     S
C613   O683    1.287   .     A
C613   O681    1.285   .     A
C614   O682    1.285   .     A
C614   C616    1.433   .     S
C614   O684    1.287   .     A
C616   C463    1.335   1_655 S
C616   H521    1.087   1_655 S
C617   H674    1.084   .     S
C617   C628    1.403   .     A
C617   C619    1.387   .     A
C618   C629    1.401   .     A
C618   C621    1.387   .     A
C618   H646    1.084   .     S
C619   C622    1.394   .     A
C619   H647    1.084   .     S
C620   O680    1.292   .     A
C620   C623    1.463   .     S
C620   O678    1.294   .     A
C621   H648    1.083   .     S
C621   C623    1.398   .     A
C622   C624    1.398   .     A
C623   C625    1.402   .     A
C624   H645    1.084   .     S
C624   C626    1.401   .     A
C625   H656    1.084   .     S
C625   C627    1.400   .     A
C626   C630    1.521   .     S
C626   C628    1.421   .     A
C627   C629    1.420   .     A
C627   C634    1.521   .     S
C628   C857    1.466   1_545 S
C629   C856    1.466   .     S
C630   H655    1.113   .     S
C630   H654    1.108   .     S
C630   C632    1.534   .     S
C631   H667    1.081   .     S
C631   C638    1.407   .     A
C632   H652    1.112   .     S
C632   C709    1.527   1_645 S
C632   H881    1.109   1_545 S
C633   H651    1.111   .     S
C633   C784    1.527   .     S
C633   H878    1.111   .     S
C634   H663    1.113   .     S
C634   C635    1.533   .     S
C634   H662    1.108   .     S
C635   H660    1.112   .     S
C635   C864    1.526   .     S
C635   H889    1.108   .     S
C636   H659    1.110   .     S
C636   H657    1.111   .     S
C636   C863    1.526   1_545 S
C636   H886    1.111   1_545 S
C637   H669    1.081   .     S
C637   C639    1.407   .     A
C638   H664    1.081   .     S
C638   N675    1.364   .     A
C639   N676    1.364   .     A
C639   H665    1.081   .     S
C640   H666    1.081   .     S
C640   C642    1.407   .     A
C640   N675    1.364   .     A
C641   H668    1.081   .     S
C641   N676    1.364   .     A
C642   H670    1.081   .     S
Cu643  Cu644   2.675   .     S
Cu643  O684    1.957   .     S
Cu643  O680    1.953   .     S
Cu643  O681    1.954   .     S
Cu643  N676    2.009   .     S
Cu643  O677    1.951   .     S
Cu644  N675    2.009   .     S
Cu644  O679    1.953   .     S
Cu644  O678    1.951   .     S
Cu644  O683    1.957   .     S
Cu644  O682    1.954   .     S
H649   C481    1.111   1_655 S
H650   C861    1.111   1_545 S
H653   C860    1.109   .     S
H658   C864    1.111   .     S
H661   C863    1.108   1_545 S
H672   C463    1.087   1_655 S
C685   O755    1.290   .     A
C685   O753    1.291   .     A
C685   C698    1.451   .     S
C686   H747    1.081   .     S
C686   C688    1.411   .     A
C686   C717    1.407   .     A
C687   C707    1.411   .     A
C687   C718    1.411   .     A
C688   C713    1.411   .     A
C688   C231    1.517   1_556 S
C689   C691    1.433   .     S
C689   O759    1.287   .     A
C689   O757    1.285   .     A
C690   O758    1.285   .     A
C690   C692    1.433   .     S
C690   O760    1.287   .     A
C691   C844    1.335   1_455 S
C691   H900    1.087   1_455 S
C692   C767    1.335   .     S
C692   H825    1.087   .     S
C693   H750    1.084   .     S
C693   C704    1.403   .     A
C693   C695    1.387   .     A
C694   C705    1.401   .     A
C694   C697    1.387   .     A
C694   H722    1.084   .     S
C695   C698    1.394   .     A
C695   H723    1.084   .     S
C696   O756    1.292   .     A
C696   C699    1.463   .     S
C696   O754    1.294   .     A
C697   H724    1.083   .     S
C697   C699    1.398   .     A
C698   C700    1.398   .     A
C699   C701    1.402   .     A
C700   H721    1.084   .     S
C700   C702    1.401   .     A
C701   H732    1.084   .     S
C701   C703    1.400   .     A
C702   C706    1.521   .     S
C702   C704    1.421   .     A
C703   C705    1.420   .     A
C703   C710    1.521   .     S
C705   C476    1.466   1_565 S
C706   H731    1.113   .     S
C706   H730    1.108   .     S
C706   C708    1.534   .     S
C707   H743    1.081   .     S
C707   C714    1.407   .     A
C708   H728    1.112   .     S
C709   H727    1.111   .     S
C709   C632    1.527   1_465 S
C709   H877    1.111   1_455 S
C709   H498    1.111   1_565 S
C710   H739    1.113   .     S
C710   C711    1.533   .     S
C710   H738    1.108   .     S
C711   H736    1.112   .     S
C711   C484    1.526   1_565 S
C711   H509    1.108   1_565 S
C712   H735    1.110   .     S
C712   H733    1.111   .     S
C713   H745    1.081   .     S
C713   C715    1.407   .     A
C714   H740    1.081   .     S
C714   N751    1.364   .     A
C715   N752    1.364   .     A
C715   H741    1.081   .     S
C716   H742    1.081   .     S
C716   C718    1.407   .     A
C716   N751    1.364   .     A
C717   H744    1.081   .     S
C717   N752    1.364   .     A
C718   H746    1.081   .     S
Cu719  Cu720   2.675   .     S
Cu719  O760    1.957   .     S
Cu719  O756    1.953   .     S
Cu719  O757    1.954   .     S
Cu719  N752    2.009   .     S
Cu719  O753    1.951   .     S
Cu720  N751    2.009   .     S
Cu720  O755    1.953   .     S
Cu720  O754    1.951   .     S
Cu720  O759    1.957   .     S
Cu720  O758    1.954   .     S
H725   C785    1.111   .     S
H729   C480    1.109   1_565 S
H734   C484    1.111   1_565 S
H748   C767    1.087   .     S
H749   C844    1.087   1_455 S
C761   O831    1.290   .     A
C761   O829    1.291   .     A
C761   C774    1.451   .     S
C762   H823    1.081   .     S
C762   C764    1.411   .     A
C762   C793    1.407   .     A
C763   C783    1.411   .     A
C763   C794    1.411   .     A
C764   C789    1.411   .     A
C764   C307    1.517   1_556 S
C765   C767    1.433   .     S
C765   O835    1.287   .     A
C765   O833    1.285   .     A
C766   O834    1.285   .     A
C766   C768    1.433   .     S
C766   O836    1.287   .     A
C768   C843    1.335   .     S
C768   H901    1.087   .     S
C769   H826    1.084   .     S
C769   C780    1.403   .     A
C769   C771    1.387   .     A
C770   C781    1.401   .     A
C770   C773    1.387   .     A
C770   H798    1.084   .     S
C771   C774    1.394   .     A
C771   H799    1.084   .     S
C772   O832    1.292   .     A
C772   C775    1.463   .     S
C772   O830    1.294   .     A
C773   H800    1.083   .     S
C773   C775    1.398   .     A
C774   C776    1.398   .     A
C775   C777    1.402   .     A
C776   H797    1.084   .     S
C776   C778    1.401   .     A
C777   H808    1.084   .     S
C777   C779    1.400   .     A
C778   C782    1.521   .     S
C778   C780    1.421   .     A
C779   C781    1.420   .     A
C779   C786    1.521   .     S
C781   C552    1.466   1_565 S
C782   H807    1.113   .     S
C782   H806    1.108   .     S
C782   C784    1.534   .     S
C783   H819    1.081   .     S
C783   C790    1.407   .     A
C784   H804    1.112   .     S
C785   H803    1.111   .     S
C785   C480    1.527   1_565 S
C785   H574    1.111   1_565 S
C786   H815    1.113   .     S
C786   C787    1.533   .     S
C786   H814    1.108   .     S
C787   H812    1.112   .     S
C787   C560    1.526   1_565 S
C787   H585    1.108   1_565 S
C788   H811    1.110   .     S
C788   H809    1.111   .     S
C789   H821    1.081   .     S
C789   C791    1.407   .     A
C790   H816    1.081   .     S
C790   N827    1.364   .     A
C791   N828    1.364   .     A
C791   H817    1.081   .     S
C792   H818    1.081   .     S
C792   C794    1.407   .     A
C792   N827    1.364   .     A
C793   H820    1.081   .     S
C793   N828    1.364   .     A
C794   H822    1.081   .     S
Cu795  Cu796   2.675   .     S
Cu795  O836    1.957   .     S
Cu795  O832    1.953   .     S
Cu795  O833    1.954   .     S
Cu795  N828    2.009   .     S
Cu795  O829    1.951   .     S
Cu796  N827    2.009   .     S
Cu796  O831    1.953   .     S
Cu796  O830    1.951   .     S
Cu796  O835    1.957   .     S
Cu796  O834    1.954   .     S
H801   C861    1.111   .     S
H805   C556    1.109   1_565 S
H810   C560    1.111   1_565 S
H824   C843    1.087   .     S
C837   O907    1.290   .     A
C837   O905    1.291   .     A
C837   C850    1.451   .     S
C838   H899    1.081   .     S
C838   C840    1.411   .     A
C838   C869    1.407   .     A
C839   C859    1.411   .     A
C839   C870    1.411   .     A
C840   C865    1.411   .     A
C840   C383    1.517   1_556 S
C841   C843    1.433   .     S
C841   O911    1.287   .     A
C841   O909    1.285   .     A
C842   O910    1.285   .     A
C842   C844    1.433   .     S
C842   O912    1.287   .     A
C844   C691    1.335   1_655 S
C844   H749    1.087   1_655 S
C845   H902    1.084   .     S
C845   C856    1.403   .     A
C845   C847    1.387   .     A
C846   C857    1.401   .     A
C846   C849    1.387   .     A
C846   H874    1.084   .     S
C847   C850    1.394   .     A
C847   H875    1.084   .     S
C848   O908    1.292   .     A
C848   C851    1.463   .     S
C848   O906    1.294   .     A
C849   H876    1.083   .     S
C849   C851    1.398   .     A
C850   C852    1.398   .     A
C851   C853    1.402   .     A
C852   H873    1.084   .     S
C852   C854    1.401   .     A
C853   H884    1.084   .     S
C853   C855    1.400   .     A
C854   C858    1.521   .     S
C854   C856    1.421   .     A
C855   C857    1.420   .     A
C855   C862    1.521   .     S
C857   C628    1.466   1_565 S
C858   H883    1.113   .     S
C858   H882    1.108   .     S
C858   C860    1.534   .     S
C859   H895    1.081   .     S
C859   C866    1.407   .     A
C860   H880    1.112   .     S
C860   C481    1.527   1_655 S
C861   H879    1.111   .     S
C861   C556    1.527   1_565 S
C861   H650    1.111   1_565 S
C862   H891    1.113   .     S
C862   C863    1.533   .     S
C862   H890    1.108   .     S
C863   H888    1.112   .     S
C863   C636    1.526   1_565 S
C863   H661    1.108   1_565 S
C864   H887    1.110   .     S
C864   H885    1.111   .     S
C865   H897    1.081   .     S
C865   C867    1.407   .     A
C866   H892    1.081   .     S
C866   N903    1.364   .     A
C867   N904    1.364   .     A
C867   H893    1.081   .     S
C868   H894    1.081   .     S
C868   C870    1.407   .     A
C868   N903    1.364   .     A
C869   H896    1.081   .     S
C869   N904    1.364   .     A
C870   H898    1.081   .     S
Cu871  Cu872   2.675   .     S
Cu871  O912    1.957   .     S
Cu871  O908    1.953   .     S
Cu871  O909    1.954   .     S
Cu871  N904    2.009   .     S
Cu871  O905    1.951   .     S
Cu872  N903    2.009   .     S
Cu872  O907    1.953   .     S
Cu872  O906    1.951   .     S
Cu872  O911    1.957   .     S
Cu872  O910    1.954   .     S
H877   C709    1.111   1_655 S
H881   C632    1.109   1_565 S
H886   C636    1.111   1_565 S
H900   C691    1.087   1_655 S
