data_str_m2_o1_o17_pcu_sym.25
_audit_creation_date              2020-01-03
_audit_creation_method            'Materials Studio'
_symmetry_space_group_name_H-M    'P1'
_symmetry_Int_Tables_number       1
_symmetry_cell_setting            triclinic
loop_
_symmetry_equiv_pos_as_xyz
  x,y,z
_cell_length_a                    32.5024
_cell_length_b                    28.5271
_cell_length_c                    30.1628
_cell_angle_alpha                 89.9396
_cell_angle_beta                  90.1574
_cell_angle_gamma                 89.9803
loop_
_atom_site_label
_atom_site_type_symbol
_atom_site_fract_x
_atom_site_fract_y
_atom_site_fract_z
_atom_site_U_iso_or_equiv
_atom_site_adp_type
_atom_site_occupancy
O1     O     0.10655   0.20625   0.25000   0.00000  Uiso   1.00
O2     O     0.22679   0.12709   0.25001   0.00000  Uiso   1.00
O3     O     0.22679   0.20625   0.25001   0.00000  Uiso   1.00
O4     O     0.10655   0.12709   0.25000   0.00000  Uiso   1.00
C5     C     0.08734   0.16667   0.24996   0.00000  Uiso   1.00
C6     C     0.24599   0.16666   0.25004   0.00000  Uiso   1.00
O7     O     0.16666   0.20627   0.18513   0.00000  Uiso   1.00
O8     O     0.16668   0.12707   0.31487   0.00000  Uiso   1.00
O9     O     0.16668   0.20627   0.31487   0.00000  Uiso   1.00
O10    O     0.16666   0.12707   0.18513   0.00000  Uiso   1.00
C11    C     0.16660   0.16669   0.16433   0.00000  Uiso   1.00
C12    C     0.16673   0.16664   0.33567   0.00000  Uiso   1.00
Cu13   Cu    0.16667   0.21355   0.25000   0.00000  Uiso   1.00
Cu14   Cu    0.16667   0.11978   0.25000   0.00000  Uiso   1.00
C15    C     0.18148   0.20556   0.40701   0.00000  Uiso   1.00
C16    C     0.15186   0.12778   0.09299   0.00000  Uiso   1.00
C17    C     0.16693   0.16654   0.38400   0.00000  Uiso   1.00
C18    C     0.16641   0.16679   0.11600   0.00000  Uiso   1.00
C19    C     0.15253   0.12742   0.40697   0.00000  Uiso   1.00
C20    C     0.18082   0.20590   0.09303   0.00000  Uiso   1.00
C21    C     0.15167   0.12698   0.45341   0.00000  Uiso   1.00
C22    C     0.18169   0.20635   0.04659   0.00000  Uiso   1.00
C23    C     0.16695   0.16650   0.47673   0.00000  Uiso   1.00
C24    C     0.16640   0.16683   0.02327   0.00000  Uiso   1.00
C25    C     0.18265   0.20576   0.45337   0.00000  Uiso   1.00
C26    C     0.15069   0.12757   0.04663   0.00000  Uiso   1.00
C27    C     0.13543   0.08824   0.47683   0.00000  Uiso   1.00
C28    C     0.19794   0.24508   0.02317   0.00000  Uiso   1.00
C29    C     0.13472   0.08860   0.02340   0.00000  Uiso   1.00
C30    C     0.19864   0.24472   0.47660   0.00000  Uiso   1.00
H31    H     0.19206   0.23561   0.38833   0.00000  Uiso   1.00
H32    H     0.14127   0.09772   0.11167   0.00000  Uiso   1.00
H33    H     0.14122   0.09773   0.38821   0.00000  Uiso   1.00
H34    H     0.19213   0.23560   0.11179   0.00000  Uiso   1.00
C35    C     0.02130   0.12407   0.24989   0.00000  Uiso   1.00
C36    C     0.31204   0.20926   0.25011   0.00000  Uiso   1.00
C37    C     0.31206   0.12406   0.24995   0.00000  Uiso   1.00
C38    C     0.02127   0.20927   0.25005   0.00000  Uiso   1.00
H39    H     0.03732   0.09076   0.24981   0.00000  Uiso   1.00
H40    H     0.29602   0.24257   0.25019   0.00000  Uiso   1.00
H41    H     0.29607   0.09076   0.24991   0.00000  Uiso   1.00
H42    H     0.03727   0.24258   0.25009   0.00000  Uiso   1.00
C43    C     0.29060   0.16666   0.25004   0.00000  Uiso   1.00
C44    C     0.04273   0.16667   0.24996   0.00000  Uiso   1.00
C45    C     0.14146   0.02486   0.22201   0.00000  Uiso   1.00
C46    C     0.19187   0.30847   0.27799   0.00000  Uiso   1.00
C47    C     0.19187   0.02478   0.27799   0.00000  Uiso   1.00
C48    C     0.14146   0.30856   0.22201   0.00000  Uiso   1.00
H49    H     0.12128   0.04362   0.19960   0.00000  Uiso   1.00
H50    H     0.21205   0.28971   0.30041   0.00000  Uiso   1.00
H51    H     0.21206   0.04347   0.30039   0.00000  Uiso   1.00
H52    H     0.12128   0.28986   0.19961   0.00000  Uiso   1.00
N53    N     0.16667   0.28402   0.25000   0.00000  Uiso   1.00
N54    N     0.16667   0.04931   0.25000   0.00000  Uiso   1.00
C55    C     0.11780   0.04856   0.45348   0.00000  Uiso   1.00
N56    N     0.10374   0.01689   0.43487   0.00000  Uiso   1.00
C57    C     0.21562   0.28474   0.04652   0.00000  Uiso   1.00
N58    N     0.22971   0.31639   0.06514   0.00000  Uiso   1.00
N59    N     0.11654   0.04997   0.04696   0.00000  Uiso   1.00
O60    O     0.13014   0.00753   0.04111   0.00000  Uiso   1.00
O61    O     0.08391   0.05665   0.07106   0.00000  Uiso   1.00
N62    N     0.21684   0.28333   0.45304   0.00000  Uiso   1.00
O63    O     0.20328   0.32578   0.45893   0.00000  Uiso   1.00
O64    O     0.24944   0.27663   0.42892   0.00000  Uiso   1.00
O65    O     0.43988   0.20625   0.25000   0.00000  Uiso   1.00
O66    O     0.56012   0.12709   0.25001   0.00000  Uiso   1.00
O67    O     0.56012   0.20625   0.25001   0.00000  Uiso   1.00
O68    O     0.43988   0.12709   0.25000   0.00000  Uiso   1.00
C69    C     0.42068   0.16667   0.24996   0.00000  Uiso   1.00
C70    C     0.57932   0.16666   0.25004   0.00000  Uiso   1.00
O71    O     0.49999   0.20627   0.18513   0.00000  Uiso   1.00
O72    O     0.50001   0.12707   0.31487   0.00000  Uiso   1.00
O73    O     0.50001   0.20627   0.31487   0.00000  Uiso   1.00
O74    O     0.49999   0.12707   0.18513   0.00000  Uiso   1.00
C75    C     0.49994   0.16669   0.16433   0.00000  Uiso   1.00
C76    C     0.50006   0.16664   0.33567   0.00000  Uiso   1.00
Cu77   Cu    0.50000   0.21355   0.25000   0.00000  Uiso   1.00
Cu78   Cu    0.50000   0.11978   0.25000   0.00000  Uiso   1.00
C79    C     0.51481   0.20556   0.40701   0.00000  Uiso   1.00
C80    C     0.48519   0.12778   0.09299   0.00000  Uiso   1.00
C81    C     0.50026   0.16654   0.38400   0.00000  Uiso   1.00
C82    C     0.49974   0.16679   0.11600   0.00000  Uiso   1.00
C83    C     0.48586   0.12742   0.40697   0.00000  Uiso   1.00
C84    C     0.51415   0.20590   0.09303   0.00000  Uiso   1.00
C85    C     0.48500   0.12698   0.45341   0.00000  Uiso   1.00
C86    C     0.51502   0.20635   0.04659   0.00000  Uiso   1.00
C87    C     0.50028   0.16650   0.47673   0.00000  Uiso   1.00
C88    C     0.49973   0.16683   0.02327   0.00000  Uiso   1.00
C89    C     0.51599   0.20576   0.45337   0.00000  Uiso   1.00
C90    C     0.48402   0.12757   0.04663   0.00000  Uiso   1.00
C91    C     0.46876   0.08824   0.47683   0.00000  Uiso   1.00
C92    C     0.53127   0.24508   0.02317   0.00000  Uiso   1.00
C93    C     0.46805   0.08860   0.02340   0.00000  Uiso   1.00
C94    C     0.53198   0.24472   0.47660   0.00000  Uiso   1.00
H95    H     0.52539   0.23561   0.38833   0.00000  Uiso   1.00
H96    H     0.47460   0.09772   0.11167   0.00000  Uiso   1.00
H97    H     0.47456   0.09773   0.38821   0.00000  Uiso   1.00
H98    H     0.52546   0.23560   0.11179   0.00000  Uiso   1.00
C99    C     0.35463   0.12407   0.24989   0.00000  Uiso   1.00
C100   C     0.64537   0.20926   0.25011   0.00000  Uiso   1.00
C101   C     0.64540   0.12406   0.24995   0.00000  Uiso   1.00
C102   C     0.35460   0.20927   0.25005   0.00000  Uiso   1.00
H103   H     0.37065   0.09076   0.24981   0.00000  Uiso   1.00
H104   H     0.62935   0.24257   0.25019   0.00000  Uiso   1.00
H105   H     0.62940   0.09076   0.24991   0.00000  Uiso   1.00
H106   H     0.37060   0.24258   0.25009   0.00000  Uiso   1.00
C107   C     0.62393   0.16666   0.25004   0.00000  Uiso   1.00
C108   C     0.37607   0.16667   0.24996   0.00000  Uiso   1.00
C109   C     0.47480   0.02486   0.22201   0.00000  Uiso   1.00
C110   C     0.52520   0.30847   0.27799   0.00000  Uiso   1.00
C111   C     0.52520   0.02478   0.27799   0.00000  Uiso   1.00
C112   C     0.47480   0.30856   0.22201   0.00000  Uiso   1.00
H113   H     0.45462   0.04362   0.19960   0.00000  Uiso   1.00
H114   H     0.54538   0.28971   0.30041   0.00000  Uiso   1.00
H115   H     0.54539   0.04347   0.30039   0.00000  Uiso   1.00
H116   H     0.45461   0.28986   0.19961   0.00000  Uiso   1.00
N117   N     0.50000   0.28402   0.25000   0.00000  Uiso   1.00
N118   N     0.50000   0.04931   0.25000   0.00000  Uiso   1.00
C119   C     0.45113   0.04856   0.45348   0.00000  Uiso   1.00
N120   N     0.43708   0.01689   0.43487   0.00000  Uiso   1.00
C121   C     0.54895   0.28474   0.04652   0.00000  Uiso   1.00
N122   N     0.56305   0.31639   0.06514   0.00000  Uiso   1.00
N123   N     0.44987   0.04997   0.04696   0.00000  Uiso   1.00
O124   O     0.46348   0.00753   0.04111   0.00000  Uiso   1.00
O125   O     0.41725   0.05665   0.07106   0.00000  Uiso   1.00
N126   N     0.55017   0.28333   0.45304   0.00000  Uiso   1.00
O127   O     0.53662   0.32578   0.45893   0.00000  Uiso   1.00
O128   O     0.58277   0.27663   0.42892   0.00000  Uiso   1.00
O129   O     0.77321   0.20625   0.25000   0.00000  Uiso   1.00
O130   O     0.89345   0.12709   0.25001   0.00000  Uiso   1.00
O131   O     0.89345   0.20625   0.25001   0.00000  Uiso   1.00
O132   O     0.77321   0.12709   0.25000   0.00000  Uiso   1.00
C133   C     0.75401   0.16667   0.24996   0.00000  Uiso   1.00
C134   C     0.91266   0.16666   0.25004   0.00000  Uiso   1.00
O135   O     0.83332   0.20627   0.18513   0.00000  Uiso   1.00
O136   O     0.83334   0.12707   0.31487   0.00000  Uiso   1.00
O137   O     0.83334   0.20627   0.31487   0.00000  Uiso   1.00
O138   O     0.83332   0.12707   0.18513   0.00000  Uiso   1.00
C139   C     0.83327   0.16669   0.16433   0.00000  Uiso   1.00
C140   C     0.83340   0.16664   0.33567   0.00000  Uiso   1.00
Cu141  Cu    0.83333   0.21355   0.25000   0.00000  Uiso   1.00
Cu142  Cu    0.83333   0.11978   0.25000   0.00000  Uiso   1.00
C143   C     0.84815   0.20556   0.40701   0.00000  Uiso   1.00
C144   C     0.81852   0.12778   0.09299   0.00000  Uiso   1.00
C145   C     0.83359   0.16654   0.38400   0.00000  Uiso   1.00
C146   C     0.83308   0.16679   0.11600   0.00000  Uiso   1.00
C147   C     0.81920   0.12742   0.40697   0.00000  Uiso   1.00
C148   C     0.84749   0.20590   0.09303   0.00000  Uiso   1.00
C149   C     0.81833   0.12698   0.45341   0.00000  Uiso   1.00
C150   C     0.84835   0.20635   0.04659   0.00000  Uiso   1.00
C151   C     0.83361   0.16650   0.47673   0.00000  Uiso   1.00
C152   C     0.83307   0.16683   0.02327   0.00000  Uiso   1.00
C153   C     0.84932   0.20576   0.45337   0.00000  Uiso   1.00
C154   C     0.81736   0.12757   0.04663   0.00000  Uiso   1.00
C155   C     0.80210   0.08824   0.47683   0.00000  Uiso   1.00
C156   C     0.86461   0.24508   0.02317   0.00000  Uiso   1.00
C157   C     0.80138   0.08860   0.02340   0.00000  Uiso   1.00
C158   C     0.86531   0.24472   0.47660   0.00000  Uiso   1.00
H159   H     0.85873   0.23561   0.38833   0.00000  Uiso   1.00
H160   H     0.80793   0.09772   0.11167   0.00000  Uiso   1.00
H161   H     0.80789   0.09773   0.38821   0.00000  Uiso   1.00
H162   H     0.85880   0.23560   0.11179   0.00000  Uiso   1.00
C163   C     0.68796   0.12407   0.24989   0.00000  Uiso   1.00
C164   C     0.97870   0.20926   0.25011   0.00000  Uiso   1.00
C165   C     0.97873   0.12406   0.24995   0.00000  Uiso   1.00
C166   C     0.68793   0.20927   0.25005   0.00000  Uiso   1.00
H167   H     0.70398   0.09076   0.24981   0.00000  Uiso   1.00
H168   H     0.96268   0.24257   0.25019   0.00000  Uiso   1.00
H169   H     0.96273   0.09076   0.24991   0.00000  Uiso   1.00
H170   H     0.70393   0.24258   0.25009   0.00000  Uiso   1.00
C171   C     0.95727   0.16666   0.25004   0.00000  Uiso   1.00
C172   C     0.70940   0.16667   0.24996   0.00000  Uiso   1.00
C173   C     0.80813   0.02486   0.22201   0.00000  Uiso   1.00
C174   C     0.85854   0.30847   0.27799   0.00000  Uiso   1.00
C175   C     0.85854   0.02478   0.27799   0.00000  Uiso   1.00
C176   C     0.80813   0.30856   0.22201   0.00000  Uiso   1.00
H177   H     0.78795   0.04362   0.19960   0.00000  Uiso   1.00
H178   H     0.87872   0.28971   0.30041   0.00000  Uiso   1.00
H179   H     0.87872   0.04347   0.30039   0.00000  Uiso   1.00
H180   H     0.78794   0.28986   0.19961   0.00000  Uiso   1.00
N181   N     0.83333   0.28402   0.25000   0.00000  Uiso   1.00
N182   N     0.83333   0.04931   0.25000   0.00000  Uiso   1.00
C183   C     0.78446   0.04856   0.45348   0.00000  Uiso   1.00
N184   N     0.77041   0.01689   0.43487   0.00000  Uiso   1.00
C185   C     0.88228   0.28474   0.04652   0.00000  Uiso   1.00
N186   N     0.89638   0.31639   0.06514   0.00000  Uiso   1.00
N187   N     0.78321   0.04997   0.04696   0.00000  Uiso   1.00
O188   O     0.79681   0.00753   0.04111   0.00000  Uiso   1.00
O189   O     0.75058   0.05665   0.07106   0.00000  Uiso   1.00
N190   N     0.88350   0.28333   0.45304   0.00000  Uiso   1.00
O191   O     0.86995   0.32578   0.45893   0.00000  Uiso   1.00
O192   O     0.91611   0.27663   0.42892   0.00000  Uiso   1.00
O193   O     0.10655   0.53958   0.25000   0.00000  Uiso   1.00
O194   O     0.22679   0.46042   0.25001   0.00000  Uiso   1.00
O195   O     0.22679   0.53958   0.25001   0.00000  Uiso   1.00
O196   O     0.10655   0.46042   0.25000   0.00000  Uiso   1.00
C197   C     0.08734   0.50000   0.24996   0.00000  Uiso   1.00
C198   C     0.24599   0.50000   0.25004   0.00000  Uiso   1.00
O199   O     0.16666   0.53960   0.18513   0.00000  Uiso   1.00
O200   O     0.16668   0.46040   0.31487   0.00000  Uiso   1.00
O201   O     0.16668   0.53960   0.31487   0.00000  Uiso   1.00
O202   O     0.16666   0.46040   0.18513   0.00000  Uiso   1.00
C203   C     0.16660   0.50003   0.16433   0.00000  Uiso   1.00
C204   C     0.16673   0.49997   0.33567   0.00000  Uiso   1.00
Cu205  Cu    0.16667   0.54689   0.25000   0.00000  Uiso   1.00
Cu206  Cu    0.16667   0.45311   0.25000   0.00000  Uiso   1.00
C207   C     0.18148   0.53889   0.40701   0.00000  Uiso   1.00
C208   C     0.15186   0.46111   0.09299   0.00000  Uiso   1.00
C209   C     0.16693   0.49988   0.38400   0.00000  Uiso   1.00
C210   C     0.16641   0.50012   0.11600   0.00000  Uiso   1.00
C211   C     0.15253   0.46076   0.40697   0.00000  Uiso   1.00
C212   C     0.18082   0.53924   0.09303   0.00000  Uiso   1.00
C213   C     0.15167   0.46031   0.45341   0.00000  Uiso   1.00
C214   C     0.18169   0.53968   0.04659   0.00000  Uiso   1.00
C215   C     0.16695   0.49983   0.47673   0.00000  Uiso   1.00
C216   C     0.16640   0.50016   0.02327   0.00000  Uiso   1.00
C217   C     0.18265   0.53909   0.45337   0.00000  Uiso   1.00
C218   C     0.15069   0.46090   0.04663   0.00000  Uiso   1.00
C219   C     0.13543   0.42157   0.47683   0.00000  Uiso   1.00
C220   C     0.19794   0.57841   0.02317   0.00000  Uiso   1.00
C221   C     0.13472   0.42194   0.02340   0.00000  Uiso   1.00
C222   C     0.19864   0.57805   0.47660   0.00000  Uiso   1.00
H223   H     0.19206   0.56895   0.38833   0.00000  Uiso   1.00
H224   H     0.14127   0.43105   0.11167   0.00000  Uiso   1.00
H225   H     0.14122   0.43106   0.38821   0.00000  Uiso   1.00
H226   H     0.19213   0.56893   0.11179   0.00000  Uiso   1.00
C227   C     0.02130   0.45740   0.24989   0.00000  Uiso   1.00
C228   C     0.31204   0.54260   0.25011   0.00000  Uiso   1.00
C229   C     0.31206   0.45740   0.24995   0.00000  Uiso   1.00
C230   C     0.02127   0.54260   0.25005   0.00000  Uiso   1.00
H231   H     0.03732   0.42410   0.24981   0.00000  Uiso   1.00
H232   H     0.29602   0.57590   0.25019   0.00000  Uiso   1.00
H233   H     0.29607   0.42409   0.24991   0.00000  Uiso   1.00
H234   H     0.03727   0.57591   0.25009   0.00000  Uiso   1.00
C235   C     0.29060   0.49999   0.25004   0.00000  Uiso   1.00
C236   C     0.04273   0.50001   0.24996   0.00000  Uiso   1.00
C237   C     0.14146   0.35819   0.22201   0.00000  Uiso   1.00
C238   C     0.19187   0.64181   0.27799   0.00000  Uiso   1.00
C239   C     0.19187   0.35811   0.27799   0.00000  Uiso   1.00
C240   C     0.14146   0.64189   0.22201   0.00000  Uiso   1.00
H241   H     0.12128   0.37696   0.19960   0.00000  Uiso   1.00
H242   H     0.21205   0.62304   0.30041   0.00000  Uiso   1.00
H243   H     0.21206   0.37681   0.30039   0.00000  Uiso   1.00
H244   H     0.12128   0.62319   0.19961   0.00000  Uiso   1.00
N245   N     0.16667   0.61736   0.25000   0.00000  Uiso   1.00
N246   N     0.16667   0.38264   0.25000   0.00000  Uiso   1.00
C247   C     0.11780   0.38189   0.45348   0.00000  Uiso   1.00
N248   N     0.10374   0.35023   0.43487   0.00000  Uiso   1.00
C249   C     0.21562   0.61807   0.04652   0.00000  Uiso   1.00
N250   N     0.22971   0.64972   0.06514   0.00000  Uiso   1.00
N251   N     0.11654   0.38330   0.04696   0.00000  Uiso   1.00
O252   O     0.13014   0.34087   0.04111   0.00000  Uiso   1.00
O253   O     0.08391   0.38998   0.07106   0.00000  Uiso   1.00
N254   N     0.21684   0.61667   0.45304   0.00000  Uiso   1.00
O255   O     0.20328   0.65912   0.45893   0.00000  Uiso   1.00
O256   O     0.24944   0.60996   0.42892   0.00000  Uiso   1.00
O257   O     0.43988   0.53958   0.25000   0.00000  Uiso   1.00
O258   O     0.56012   0.46042   0.25001   0.00000  Uiso   1.00
O259   O     0.56012   0.53958   0.25001   0.00000  Uiso   1.00
O260   O     0.43988   0.46042   0.25000   0.00000  Uiso   1.00
C261   C     0.42068   0.50000   0.24996   0.00000  Uiso   1.00
C262   C     0.57932   0.50000   0.25004   0.00000  Uiso   1.00
O263   O     0.49999   0.53960   0.18513   0.00000  Uiso   1.00
O264   O     0.50001   0.46040   0.31487   0.00000  Uiso   1.00
O265   O     0.50001   0.53960   0.31487   0.00000  Uiso   1.00
O266   O     0.49999   0.46040   0.18513   0.00000  Uiso   1.00
C267   C     0.49994   0.50003   0.16433   0.00000  Uiso   1.00
C268   C     0.50006   0.49997   0.33567   0.00000  Uiso   1.00
Cu269  Cu    0.50000   0.54689   0.25000   0.00000  Uiso   1.00
Cu270  Cu    0.50000   0.45311   0.25000   0.00000  Uiso   1.00
C271   C     0.51481   0.53889   0.40701   0.00000  Uiso   1.00
C272   C     0.48519   0.46111   0.09299   0.00000  Uiso   1.00
C273   C     0.50026   0.49988   0.38400   0.00000  Uiso   1.00
C274   C     0.49974   0.50012   0.11600   0.00000  Uiso   1.00
C275   C     0.48586   0.46076   0.40697   0.00000  Uiso   1.00
C276   C     0.51415   0.53924   0.09303   0.00000  Uiso   1.00
C277   C     0.48500   0.46031   0.45341   0.00000  Uiso   1.00
C278   C     0.51502   0.53968   0.04659   0.00000  Uiso   1.00
C279   C     0.50028   0.49983   0.47673   0.00000  Uiso   1.00
C280   C     0.49973   0.50016   0.02327   0.00000  Uiso   1.00
C281   C     0.51599   0.53909   0.45337   0.00000  Uiso   1.00
C282   C     0.48402   0.46090   0.04663   0.00000  Uiso   1.00
C283   C     0.46876   0.42157   0.47683   0.00000  Uiso   1.00
C284   C     0.53127   0.57841   0.02317   0.00000  Uiso   1.00
C285   C     0.46805   0.42194   0.02340   0.00000  Uiso   1.00
C286   C     0.53198   0.57805   0.47660   0.00000  Uiso   1.00
H287   H     0.52539   0.56895   0.38833   0.00000  Uiso   1.00
H288   H     0.47460   0.43105   0.11167   0.00000  Uiso   1.00
H289   H     0.47456   0.43106   0.38821   0.00000  Uiso   1.00
H290   H     0.52546   0.56893   0.11179   0.00000  Uiso   1.00
C291   C     0.35463   0.45740   0.24989   0.00000  Uiso   1.00
C292   C     0.64537   0.54260   0.25011   0.00000  Uiso   1.00
C293   C     0.64540   0.45740   0.24995   0.00000  Uiso   1.00
C294   C     0.35460   0.54260   0.25005   0.00000  Uiso   1.00
H295   H     0.37065   0.42410   0.24981   0.00000  Uiso   1.00
H296   H     0.62935   0.57590   0.25019   0.00000  Uiso   1.00
H297   H     0.62940   0.42409   0.24991   0.00000  Uiso   1.00
H298   H     0.37060   0.57591   0.25009   0.00000  Uiso   1.00
C299   C     0.62393   0.49999   0.25004   0.00000  Uiso   1.00
C300   C     0.37607   0.50001   0.24996   0.00000  Uiso   1.00
C301   C     0.47480   0.35819   0.22201   0.00000  Uiso   1.00
C302   C     0.52520   0.64181   0.27799   0.00000  Uiso   1.00
C303   C     0.52520   0.35811   0.27799   0.00000  Uiso   1.00
C304   C     0.47480   0.64189   0.22201   0.00000  Uiso   1.00
H305   H     0.45462   0.37696   0.19960   0.00000  Uiso   1.00
H306   H     0.54538   0.62304   0.30041   0.00000  Uiso   1.00
H307   H     0.54539   0.37681   0.30039   0.00000  Uiso   1.00
H308   H     0.45461   0.62319   0.19961   0.00000  Uiso   1.00
N309   N     0.50000   0.61736   0.25000   0.00000  Uiso   1.00
N310   N     0.50000   0.38264   0.25000   0.00000  Uiso   1.00
C311   C     0.45113   0.38189   0.45348   0.00000  Uiso   1.00
N312   N     0.43708   0.35023   0.43487   0.00000  Uiso   1.00
C313   C     0.54895   0.61807   0.04652   0.00000  Uiso   1.00
N314   N     0.56305   0.64972   0.06514   0.00000  Uiso   1.00
N315   N     0.44987   0.38330   0.04696   0.00000  Uiso   1.00
O316   O     0.46348   0.34087   0.04111   0.00000  Uiso   1.00
O317   O     0.41725   0.38998   0.07106   0.00000  Uiso   1.00
N318   N     0.55017   0.61667   0.45304   0.00000  Uiso   1.00
O319   O     0.53662   0.65912   0.45893   0.00000  Uiso   1.00
O320   O     0.58277   0.60996   0.42892   0.00000  Uiso   1.00
O321   O     0.77321   0.53958   0.25000   0.00000  Uiso   1.00
O322   O     0.89345   0.46042   0.25001   0.00000  Uiso   1.00
O323   O     0.89345   0.53958   0.25001   0.00000  Uiso   1.00
O324   O     0.77321   0.46042   0.25000   0.00000  Uiso   1.00
C325   C     0.75401   0.50000   0.24996   0.00000  Uiso   1.00
C326   C     0.91266   0.50000   0.25004   0.00000  Uiso   1.00
O327   O     0.83332   0.53960   0.18513   0.00000  Uiso   1.00
O328   O     0.83334   0.46040   0.31487   0.00000  Uiso   1.00
O329   O     0.83334   0.53960   0.31487   0.00000  Uiso   1.00
O330   O     0.83332   0.46040   0.18513   0.00000  Uiso   1.00
C331   C     0.83327   0.50003   0.16433   0.00000  Uiso   1.00
C332   C     0.83340   0.49997   0.33567   0.00000  Uiso   1.00
Cu333  Cu    0.83333   0.54689   0.25000   0.00000  Uiso   1.00
Cu334  Cu    0.83333   0.45311   0.25000   0.00000  Uiso   1.00
C335   C     0.84815   0.53889   0.40701   0.00000  Uiso   1.00
C336   C     0.81852   0.46111   0.09299   0.00000  Uiso   1.00
C337   C     0.83359   0.49988   0.38400   0.00000  Uiso   1.00
C338   C     0.83308   0.50012   0.11600   0.00000  Uiso   1.00
C339   C     0.81920   0.46076   0.40697   0.00000  Uiso   1.00
C340   C     0.84749   0.53924   0.09303   0.00000  Uiso   1.00
C341   C     0.81833   0.46031   0.45341   0.00000  Uiso   1.00
C342   C     0.84835   0.53968   0.04659   0.00000  Uiso   1.00
C343   C     0.83361   0.49983   0.47673   0.00000  Uiso   1.00
C344   C     0.83307   0.50016   0.02327   0.00000  Uiso   1.00
C345   C     0.84932   0.53909   0.45337   0.00000  Uiso   1.00
C346   C     0.81736   0.46090   0.04663   0.00000  Uiso   1.00
C347   C     0.80210   0.42157   0.47683   0.00000  Uiso   1.00
C348   C     0.86461   0.57841   0.02317   0.00000  Uiso   1.00
C349   C     0.80138   0.42194   0.02340   0.00000  Uiso   1.00
C350   C     0.86531   0.57805   0.47660   0.00000  Uiso   1.00
H351   H     0.85873   0.56895   0.38833   0.00000  Uiso   1.00
H352   H     0.80793   0.43105   0.11167   0.00000  Uiso   1.00
H353   H     0.80789   0.43106   0.38821   0.00000  Uiso   1.00
H354   H     0.85880   0.56893   0.11179   0.00000  Uiso   1.00
C355   C     0.68796   0.45740   0.24989   0.00000  Uiso   1.00
C356   C     0.97870   0.54260   0.25011   0.00000  Uiso   1.00
C357   C     0.97873   0.45740   0.24995   0.00000  Uiso   1.00
C358   C     0.68793   0.54260   0.25005   0.00000  Uiso   1.00
H359   H     0.70398   0.42410   0.24981   0.00000  Uiso   1.00
H360   H     0.96268   0.57590   0.25019   0.00000  Uiso   1.00
H361   H     0.96273   0.42409   0.24991   0.00000  Uiso   1.00
H362   H     0.70393   0.57591   0.25009   0.00000  Uiso   1.00
C363   C     0.95727   0.49999   0.25004   0.00000  Uiso   1.00
C364   C     0.70940   0.50001   0.24996   0.00000  Uiso   1.00
C365   C     0.80813   0.35819   0.22201   0.00000  Uiso   1.00
C366   C     0.85854   0.64181   0.27799   0.00000  Uiso   1.00
C367   C     0.85854   0.35811   0.27799   0.00000  Uiso   1.00
C368   C     0.80813   0.64189   0.22201   0.00000  Uiso   1.00
H369   H     0.78795   0.37696   0.19960   0.00000  Uiso   1.00
H370   H     0.87872   0.62304   0.30041   0.00000  Uiso   1.00
H371   H     0.87872   0.37681   0.30039   0.00000  Uiso   1.00
H372   H     0.78794   0.62319   0.19961   0.00000  Uiso   1.00
N373   N     0.83333   0.61736   0.25000   0.00000  Uiso   1.00
N374   N     0.83333   0.38264   0.25000   0.00000  Uiso   1.00
C375   C     0.78446   0.38189   0.45348   0.00000  Uiso   1.00
N376   N     0.77041   0.35023   0.43487   0.00000  Uiso   1.00
C377   C     0.88228   0.61807   0.04652   0.00000  Uiso   1.00
N378   N     0.89638   0.64972   0.06514   0.00000  Uiso   1.00
N379   N     0.78321   0.38330   0.04696   0.00000  Uiso   1.00
O380   O     0.79681   0.34087   0.04111   0.00000  Uiso   1.00
O381   O     0.75058   0.38998   0.07106   0.00000  Uiso   1.00
N382   N     0.88350   0.61667   0.45304   0.00000  Uiso   1.00
O383   O     0.86995   0.65912   0.45893   0.00000  Uiso   1.00
O384   O     0.91611   0.60996   0.42892   0.00000  Uiso   1.00
O385   O     0.10655   0.87291   0.25000   0.00000  Uiso   1.00
O386   O     0.22679   0.79375   0.25001   0.00000  Uiso   1.00
O387   O     0.22679   0.87291   0.25001   0.00000  Uiso   1.00
O388   O     0.10655   0.79375   0.25000   0.00000  Uiso   1.00
C389   C     0.08734   0.83334   0.24996   0.00000  Uiso   1.00
C390   C     0.24599   0.83333   0.25004   0.00000  Uiso   1.00
O391   O     0.16666   0.87293   0.18513   0.00000  Uiso   1.00
O392   O     0.16668   0.79373   0.31487   0.00000  Uiso   1.00
O393   O     0.16668   0.87293   0.31487   0.00000  Uiso   1.00
O394   O     0.16666   0.79373   0.18513   0.00000  Uiso   1.00
C395   C     0.16660   0.83336   0.16433   0.00000  Uiso   1.00
C396   C     0.16673   0.83331   0.33567   0.00000  Uiso   1.00
Cu397  Cu    0.16667   0.88022   0.25000   0.00000  Uiso   1.00
Cu398  Cu    0.16667   0.78645   0.25000   0.00000  Uiso   1.00
C399   C     0.18148   0.87222   0.40701   0.00000  Uiso   1.00
C400   C     0.15186   0.79444   0.09299   0.00000  Uiso   1.00
C401   C     0.16693   0.83321   0.38400   0.00000  Uiso   1.00
C402   C     0.16641   0.83346   0.11600   0.00000  Uiso   1.00
C403   C     0.15253   0.79409   0.40697   0.00000  Uiso   1.00
C404   C     0.18082   0.87257   0.09303   0.00000  Uiso   1.00
C405   C     0.15167   0.79364   0.45341   0.00000  Uiso   1.00
C406   C     0.18169   0.87302   0.04659   0.00000  Uiso   1.00
C407   C     0.16695   0.83316   0.47673   0.00000  Uiso   1.00
C408   C     0.16640   0.83350   0.02327   0.00000  Uiso   1.00
C409   C     0.18265   0.87243   0.45337   0.00000  Uiso   1.00
C410   C     0.15069   0.79423   0.04663   0.00000  Uiso   1.00
C411   C     0.13543   0.75490   0.47683   0.00000  Uiso   1.00
C412   C     0.19794   0.91175   0.02317   0.00000  Uiso   1.00
C413   C     0.13472   0.75527   0.02340   0.00000  Uiso   1.00
C414   C     0.19864   0.91138   0.47660   0.00000  Uiso   1.00
H415   H     0.19206   0.90228   0.38833   0.00000  Uiso   1.00
H416   H     0.14127   0.76439   0.11167   0.00000  Uiso   1.00
H417   H     0.14122   0.76440   0.38821   0.00000  Uiso   1.00
H418   H     0.19213   0.90227   0.11179   0.00000  Uiso   1.00
C419   C     0.02130   0.79074   0.24989   0.00000  Uiso   1.00
C420   C     0.31204   0.87593   0.25011   0.00000  Uiso   1.00
C421   C     0.31206   0.79073   0.24995   0.00000  Uiso   1.00
C422   C     0.02127   0.87594   0.25005   0.00000  Uiso   1.00
H423   H     0.03732   0.75743   0.24981   0.00000  Uiso   1.00
H424   H     0.29602   0.90924   0.25019   0.00000  Uiso   1.00
H425   H     0.29607   0.75742   0.24991   0.00000  Uiso   1.00
H426   H     0.03727   0.90924   0.25009   0.00000  Uiso   1.00
C427   C     0.29060   0.83333   0.25004   0.00000  Uiso   1.00
C428   C     0.04273   0.83334   0.24996   0.00000  Uiso   1.00
C429   C     0.14146   0.69153   0.22201   0.00000  Uiso   1.00
C430   C     0.19187   0.97514   0.27799   0.00000  Uiso   1.00
C431   C     0.19187   0.69144   0.27799   0.00000  Uiso   1.00
C432   C     0.14146   0.97522   0.22201   0.00000  Uiso   1.00
H433   H     0.12128   0.71029   0.19960   0.00000  Uiso   1.00
H434   H     0.21205   0.95638   0.30041   0.00000  Uiso   1.00
H435   H     0.21206   0.71014   0.30039   0.00000  Uiso   1.00
H436   H     0.12128   0.95653   0.19961   0.00000  Uiso   1.00
N437   N     0.16667   0.95069   0.25000   0.00000  Uiso   1.00
N438   N     0.16667   0.71598   0.25000   0.00000  Uiso   1.00
C439   C     0.11780   0.71523   0.45348   0.00000  Uiso   1.00
N440   N     0.10374   0.68356   0.43487   0.00000  Uiso   1.00
C441   C     0.21562   0.95141   0.04652   0.00000  Uiso   1.00
N442   N     0.22971   0.98305   0.06514   0.00000  Uiso   1.00
N443   N     0.11654   0.71664   0.04696   0.00000  Uiso   1.00
O444   O     0.13014   0.67420   0.04111   0.00000  Uiso   1.00
O445   O     0.08391   0.72331   0.07106   0.00000  Uiso   1.00
N446   N     0.21684   0.95000   0.45304   0.00000  Uiso   1.00
O447   O     0.20328   0.99245   0.45893   0.00000  Uiso   1.00
O448   O     0.24944   0.94330   0.42892   0.00000  Uiso   1.00
O449   O     0.43988   0.87291   0.25000   0.00000  Uiso   1.00
O450   O     0.56012   0.79375   0.25001   0.00000  Uiso   1.00
O451   O     0.56012   0.87291   0.25001   0.00000  Uiso   1.00
O452   O     0.43988   0.79375   0.25000   0.00000  Uiso   1.00
C453   C     0.42068   0.83334   0.24996   0.00000  Uiso   1.00
C454   C     0.57932   0.83333   0.25004   0.00000  Uiso   1.00
O455   O     0.49999   0.87293   0.18513   0.00000  Uiso   1.00
O456   O     0.50001   0.79373   0.31487   0.00000  Uiso   1.00
O457   O     0.50001   0.87293   0.31487   0.00000  Uiso   1.00
O458   O     0.49999   0.79373   0.18513   0.00000  Uiso   1.00
C459   C     0.49994   0.83336   0.16433   0.00000  Uiso   1.00
C460   C     0.50006   0.83331   0.33567   0.00000  Uiso   1.00
Cu461  Cu    0.50000   0.88022   0.25000   0.00000  Uiso   1.00
Cu462  Cu    0.50000   0.78645   0.25000   0.00000  Uiso   1.00
C463   C     0.51481   0.87222   0.40701   0.00000  Uiso   1.00
C464   C     0.48519   0.79444   0.09299   0.00000  Uiso   1.00
C465   C     0.50026   0.83321   0.38400   0.00000  Uiso   1.00
C466   C     0.49974   0.83346   0.11600   0.00000  Uiso   1.00
C467   C     0.48586   0.79409   0.40697   0.00000  Uiso   1.00
C468   C     0.51415   0.87257   0.09303   0.00000  Uiso   1.00
C469   C     0.48500   0.79364   0.45341   0.00000  Uiso   1.00
C470   C     0.51502   0.87302   0.04659   0.00000  Uiso   1.00
C471   C     0.50028   0.83316   0.47673   0.00000  Uiso   1.00
C472   C     0.49973   0.83350   0.02327   0.00000  Uiso   1.00
C473   C     0.51599   0.87243   0.45337   0.00000  Uiso   1.00
C474   C     0.48402   0.79423   0.04663   0.00000  Uiso   1.00
C475   C     0.46876   0.75490   0.47683   0.00000  Uiso   1.00
C476   C     0.53127   0.91175   0.02317   0.00000  Uiso   1.00
C477   C     0.46805   0.75527   0.02340   0.00000  Uiso   1.00
C478   C     0.53198   0.91138   0.47660   0.00000  Uiso   1.00
H479   H     0.52539   0.90228   0.38833   0.00000  Uiso   1.00
H480   H     0.47460   0.76439   0.11167   0.00000  Uiso   1.00
H481   H     0.47456   0.76440   0.38821   0.00000  Uiso   1.00
H482   H     0.52546   0.90227   0.11179   0.00000  Uiso   1.00
C483   C     0.35463   0.79074   0.24989   0.00000  Uiso   1.00
C484   C     0.64537   0.87593   0.25011   0.00000  Uiso   1.00
C485   C     0.64540   0.79073   0.24995   0.00000  Uiso   1.00
C486   C     0.35460   0.87594   0.25005   0.00000  Uiso   1.00
H487   H     0.37065   0.75743   0.24981   0.00000  Uiso   1.00
H488   H     0.62935   0.90924   0.25019   0.00000  Uiso   1.00
H489   H     0.62940   0.75742   0.24991   0.00000  Uiso   1.00
H490   H     0.37060   0.90924   0.25009   0.00000  Uiso   1.00
C491   C     0.62393   0.83333   0.25004   0.00000  Uiso   1.00
C492   C     0.37607   0.83334   0.24996   0.00000  Uiso   1.00
C493   C     0.47480   0.69153   0.22201   0.00000  Uiso   1.00
C494   C     0.52520   0.97514   0.27799   0.00000  Uiso   1.00
C495   C     0.52520   0.69144   0.27799   0.00000  Uiso   1.00
C496   C     0.47480   0.97522   0.22201   0.00000  Uiso   1.00
H497   H     0.45462   0.71029   0.19960   0.00000  Uiso   1.00
H498   H     0.54538   0.95638   0.30041   0.00000  Uiso   1.00
H499   H     0.54539   0.71014   0.30039   0.00000  Uiso   1.00
H500   H     0.45461   0.95653   0.19961   0.00000  Uiso   1.00
N501   N     0.50000   0.95069   0.25000   0.00000  Uiso   1.00
N502   N     0.50000   0.71598   0.25000   0.00000  Uiso   1.00
C503   C     0.45113   0.71523   0.45348   0.00000  Uiso   1.00
N504   N     0.43708   0.68356   0.43487   0.00000  Uiso   1.00
C505   C     0.54895   0.95141   0.04652   0.00000  Uiso   1.00
N506   N     0.56305   0.98305   0.06514   0.00000  Uiso   1.00
N507   N     0.44987   0.71664   0.04696   0.00000  Uiso   1.00
O508   O     0.46348   0.67420   0.04111   0.00000  Uiso   1.00
O509   O     0.41725   0.72331   0.07106   0.00000  Uiso   1.00
N510   N     0.55017   0.95000   0.45304   0.00000  Uiso   1.00
O511   O     0.53662   0.99245   0.45893   0.00000  Uiso   1.00
O512   O     0.58277   0.94330   0.42892   0.00000  Uiso   1.00
O513   O     0.77321   0.87291   0.25000   0.00000  Uiso   1.00
O514   O     0.89345   0.79375   0.25001   0.00000  Uiso   1.00
O515   O     0.89345   0.87291   0.25001   0.00000  Uiso   1.00
O516   O     0.77321   0.79375   0.25000   0.00000  Uiso   1.00
C517   C     0.75401   0.83334   0.24996   0.00000  Uiso   1.00
C518   C     0.91266   0.83333   0.25004   0.00000  Uiso   1.00
O519   O     0.83332   0.87293   0.18513   0.00000  Uiso   1.00
O520   O     0.83334   0.79373   0.31487   0.00000  Uiso   1.00
O521   O     0.83334   0.87293   0.31487   0.00000  Uiso   1.00
O522   O     0.83332   0.79373   0.18513   0.00000  Uiso   1.00
C523   C     0.83327   0.83336   0.16433   0.00000  Uiso   1.00
C524   C     0.83340   0.83331   0.33567   0.00000  Uiso   1.00
Cu525  Cu    0.83333   0.88022   0.25000   0.00000  Uiso   1.00
Cu526  Cu    0.83333   0.78645   0.25000   0.00000  Uiso   1.00
C527   C     0.84815   0.87222   0.40701   0.00000  Uiso   1.00
C528   C     0.81852   0.79444   0.09299   0.00000  Uiso   1.00
C529   C     0.83359   0.83321   0.38400   0.00000  Uiso   1.00
C530   C     0.83308   0.83346   0.11600   0.00000  Uiso   1.00
C531   C     0.81920   0.79409   0.40697   0.00000  Uiso   1.00
C532   C     0.84749   0.87257   0.09303   0.00000  Uiso   1.00
C533   C     0.81833   0.79364   0.45341   0.00000  Uiso   1.00
C534   C     0.84835   0.87302   0.04659   0.00000  Uiso   1.00
C535   C     0.83361   0.83316   0.47673   0.00000  Uiso   1.00
C536   C     0.83307   0.83350   0.02327   0.00000  Uiso   1.00
C537   C     0.84932   0.87243   0.45337   0.00000  Uiso   1.00
C538   C     0.81736   0.79423   0.04663   0.00000  Uiso   1.00
C539   C     0.80210   0.75490   0.47683   0.00000  Uiso   1.00
C540   C     0.86461   0.91175   0.02317   0.00000  Uiso   1.00
C541   C     0.80138   0.75527   0.02340   0.00000  Uiso   1.00
C542   C     0.86531   0.91138   0.47660   0.00000  Uiso   1.00
H543   H     0.85873   0.90228   0.38833   0.00000  Uiso   1.00
H544   H     0.80793   0.76439   0.11167   0.00000  Uiso   1.00
H545   H     0.80789   0.76440   0.38821   0.00000  Uiso   1.00
H546   H     0.85880   0.90227   0.11179   0.00000  Uiso   1.00
C547   C     0.68796   0.79074   0.24989   0.00000  Uiso   1.00
C548   C     0.97870   0.87593   0.25011   0.00000  Uiso   1.00
C549   C     0.97873   0.79073   0.24995   0.00000  Uiso   1.00
C550   C     0.68793   0.87594   0.25005   0.00000  Uiso   1.00
H551   H     0.70398   0.75743   0.24981   0.00000  Uiso   1.00
H552   H     0.96268   0.90924   0.25019   0.00000  Uiso   1.00
H553   H     0.96273   0.75742   0.24991   0.00000  Uiso   1.00
H554   H     0.70393   0.90924   0.25009   0.00000  Uiso   1.00
C555   C     0.95727   0.83333   0.25004   0.00000  Uiso   1.00
C556   C     0.70940   0.83334   0.24996   0.00000  Uiso   1.00
C557   C     0.80813   0.69153   0.22201   0.00000  Uiso   1.00
C558   C     0.85854   0.97514   0.27799   0.00000  Uiso   1.00
C559   C     0.85854   0.69144   0.27799   0.00000  Uiso   1.00
C560   C     0.80813   0.97522   0.22201   0.00000  Uiso   1.00
H561   H     0.78795   0.71029   0.19960   0.00000  Uiso   1.00
H562   H     0.87872   0.95638   0.30041   0.00000  Uiso   1.00
H563   H     0.87872   0.71014   0.30039   0.00000  Uiso   1.00
H564   H     0.78794   0.95653   0.19961   0.00000  Uiso   1.00
N565   N     0.83333   0.95069   0.25000   0.00000  Uiso   1.00
N566   N     0.83333   0.71598   0.25000   0.00000  Uiso   1.00
C567   C     0.78446   0.71523   0.45348   0.00000  Uiso   1.00
N568   N     0.77041   0.68356   0.43487   0.00000  Uiso   1.00
C569   C     0.88228   0.95141   0.04652   0.00000  Uiso   1.00
N570   N     0.89638   0.98305   0.06514   0.00000  Uiso   1.00
N571   N     0.78321   0.71664   0.04696   0.00000  Uiso   1.00
O572   O     0.79681   0.67420   0.04111   0.00000  Uiso   1.00
O573   O     0.75058   0.72331   0.07106   0.00000  Uiso   1.00
N574   N     0.88350   0.95000   0.45304   0.00000  Uiso   1.00
O575   O     0.86995   0.99245   0.45893   0.00000  Uiso   1.00
O576   O     0.91611   0.94330   0.42892   0.00000  Uiso   1.00
O577   O     0.10655   0.20625   0.75000   0.00000  Uiso   1.00
O578   O     0.22679   0.12709   0.75001   0.00000  Uiso   1.00
O579   O     0.22679   0.20625   0.75001   0.00000  Uiso   1.00
O580   O     0.10655   0.12709   0.75000   0.00000  Uiso   1.00
C581   C     0.08734   0.16667   0.74996   0.00000  Uiso   1.00
C582   C     0.24599   0.16666   0.75004   0.00000  Uiso   1.00
O583   O     0.16666   0.20627   0.68513   0.00000  Uiso   1.00
O584   O     0.16668   0.12707   0.81487   0.00000  Uiso   1.00
O585   O     0.16668   0.20627   0.81487   0.00000  Uiso   1.00
O586   O     0.16666   0.12707   0.68513   0.00000  Uiso   1.00
C587   C     0.16660   0.16669   0.66433   0.00000  Uiso   1.00
C588   C     0.16673   0.16664   0.83567   0.00000  Uiso   1.00
Cu589  Cu    0.16667   0.21355   0.75000   0.00000  Uiso   1.00
Cu590  Cu    0.16667   0.11978   0.75000   0.00000  Uiso   1.00
C591   C     0.18148   0.20556   0.90701   0.00000  Uiso   1.00
C592   C     0.15186   0.12778   0.59299   0.00000  Uiso   1.00
C593   C     0.16693   0.16654   0.88400   0.00000  Uiso   1.00
C594   C     0.16641   0.16679   0.61600   0.00000  Uiso   1.00
C595   C     0.15253   0.12742   0.90697   0.00000  Uiso   1.00
C596   C     0.18082   0.20590   0.59303   0.00000  Uiso   1.00
C597   C     0.15167   0.12698   0.95341   0.00000  Uiso   1.00
C598   C     0.18169   0.20635   0.54659   0.00000  Uiso   1.00
C599   C     0.16695   0.16650   0.97673   0.00000  Uiso   1.00
C600   C     0.16640   0.16683   0.52327   0.00000  Uiso   1.00
C601   C     0.18265   0.20576   0.95337   0.00000  Uiso   1.00
C602   C     0.15069   0.12757   0.54663   0.00000  Uiso   1.00
C603   C     0.13543   0.08824   0.97683   0.00000  Uiso   1.00
C604   C     0.19794   0.24508   0.52317   0.00000  Uiso   1.00
C605   C     0.13472   0.08860   0.52340   0.00000  Uiso   1.00
C606   C     0.19864   0.24472   0.97660   0.00000  Uiso   1.00
H607   H     0.19206   0.23561   0.88833   0.00000  Uiso   1.00
H608   H     0.14127   0.09772   0.61167   0.00000  Uiso   1.00
H609   H     0.14122   0.09773   0.88821   0.00000  Uiso   1.00
H610   H     0.19213   0.23560   0.61179   0.00000  Uiso   1.00
C611   C     0.02130   0.12407   0.74989   0.00000  Uiso   1.00
C612   C     0.31204   0.20926   0.75011   0.00000  Uiso   1.00
C613   C     0.31206   0.12406   0.74995   0.00000  Uiso   1.00
C614   C     0.02127   0.20927   0.75005   0.00000  Uiso   1.00
H615   H     0.03732   0.09076   0.74981   0.00000  Uiso   1.00
H616   H     0.29602   0.24257   0.75019   0.00000  Uiso   1.00
H617   H     0.29607   0.09076   0.74991   0.00000  Uiso   1.00
H618   H     0.03727   0.24258   0.75009   0.00000  Uiso   1.00
C619   C     0.29060   0.16666   0.75004   0.00000  Uiso   1.00
C620   C     0.04273   0.16667   0.74996   0.00000  Uiso   1.00
C621   C     0.14146   0.02486   0.72201   0.00000  Uiso   1.00
C622   C     0.19187   0.30847   0.77799   0.00000  Uiso   1.00
C623   C     0.19187   0.02478   0.77799   0.00000  Uiso   1.00
C624   C     0.14146   0.30856   0.72201   0.00000  Uiso   1.00
H625   H     0.12128   0.04362   0.69960   0.00000  Uiso   1.00
H626   H     0.21205   0.28971   0.80041   0.00000  Uiso   1.00
H627   H     0.21206   0.04347   0.80039   0.00000  Uiso   1.00
H628   H     0.12128   0.28986   0.69961   0.00000  Uiso   1.00
N629   N     0.16667   0.28402   0.75000   0.00000  Uiso   1.00
N630   N     0.16667   0.04931   0.75000   0.00000  Uiso   1.00
C631   C     0.11780   0.04856   0.95348   0.00000  Uiso   1.00
N632   N     0.10374   0.01689   0.93487   0.00000  Uiso   1.00
C633   C     0.21562   0.28474   0.54652   0.00000  Uiso   1.00
N634   N     0.22971   0.31639   0.56514   0.00000  Uiso   1.00
N635   N     0.11654   0.04997   0.54696   0.00000  Uiso   1.00
O636   O     0.13014   0.00753   0.54111   0.00000  Uiso   1.00
O637   O     0.08391   0.05665   0.57106   0.00000  Uiso   1.00
N638   N     0.21684   0.28333   0.95304   0.00000  Uiso   1.00
O639   O     0.20328   0.32578   0.95893   0.00000  Uiso   1.00
O640   O     0.24944   0.27663   0.92892   0.00000  Uiso   1.00
O641   O     0.43988   0.20625   0.75000   0.00000  Uiso   1.00
O642   O     0.56012   0.12709   0.75001   0.00000  Uiso   1.00
O643   O     0.56012   0.20625   0.75001   0.00000  Uiso   1.00
O644   O     0.43988   0.12709   0.75000   0.00000  Uiso   1.00
C645   C     0.42068   0.16667   0.74996   0.00000  Uiso   1.00
C646   C     0.57932   0.16666   0.75004   0.00000  Uiso   1.00
O647   O     0.49999   0.20627   0.68513   0.00000  Uiso   1.00
O648   O     0.50001   0.12707   0.81487   0.00000  Uiso   1.00
O649   O     0.50001   0.20627   0.81487   0.00000  Uiso   1.00
O650   O     0.49999   0.12707   0.68513   0.00000  Uiso   1.00
C651   C     0.49994   0.16669   0.66433   0.00000  Uiso   1.00
C652   C     0.50006   0.16664   0.83567   0.00000  Uiso   1.00
Cu653  Cu    0.50000   0.21355   0.75000   0.00000  Uiso   1.00
Cu654  Cu    0.50000   0.11978   0.75000   0.00000  Uiso   1.00
C655   C     0.51481   0.20556   0.90701   0.00000  Uiso   1.00
C656   C     0.48519   0.12778   0.59299   0.00000  Uiso   1.00
C657   C     0.50026   0.16654   0.88400   0.00000  Uiso   1.00
C658   C     0.49974   0.16679   0.61600   0.00000  Uiso   1.00
C659   C     0.48586   0.12742   0.90697   0.00000  Uiso   1.00
C660   C     0.51415   0.20590   0.59303   0.00000  Uiso   1.00
C661   C     0.48500   0.12698   0.95341   0.00000  Uiso   1.00
C662   C     0.51502   0.20635   0.54659   0.00000  Uiso   1.00
C663   C     0.50028   0.16650   0.97673   0.00000  Uiso   1.00
C664   C     0.49973   0.16683   0.52327   0.00000  Uiso   1.00
C665   C     0.51599   0.20576   0.95337   0.00000  Uiso   1.00
C666   C     0.48402   0.12757   0.54663   0.00000  Uiso   1.00
C667   C     0.46876   0.08824   0.97683   0.00000  Uiso   1.00
C668   C     0.53127   0.24508   0.52317   0.00000  Uiso   1.00
C669   C     0.46805   0.08860   0.52340   0.00000  Uiso   1.00
C670   C     0.53198   0.24472   0.97660   0.00000  Uiso   1.00
H671   H     0.52539   0.23561   0.88833   0.00000  Uiso   1.00
H672   H     0.47460   0.09772   0.61167   0.00000  Uiso   1.00
H673   H     0.47456   0.09773   0.88821   0.00000  Uiso   1.00
H674   H     0.52546   0.23560   0.61179   0.00000  Uiso   1.00
C675   C     0.35463   0.12407   0.74989   0.00000  Uiso   1.00
C676   C     0.64537   0.20926   0.75011   0.00000  Uiso   1.00
C677   C     0.64540   0.12406   0.74995   0.00000  Uiso   1.00
C678   C     0.35460   0.20927   0.75005   0.00000  Uiso   1.00
H679   H     0.37065   0.09076   0.74981   0.00000  Uiso   1.00
H680   H     0.62935   0.24257   0.75019   0.00000  Uiso   1.00
H681   H     0.62940   0.09076   0.74991   0.00000  Uiso   1.00
H682   H     0.37060   0.24258   0.75009   0.00000  Uiso   1.00
C683   C     0.62393   0.16666   0.75004   0.00000  Uiso   1.00
C684   C     0.37607   0.16667   0.74996   0.00000  Uiso   1.00
C685   C     0.47480   0.02486   0.72201   0.00000  Uiso   1.00
C686   C     0.52520   0.30847   0.77799   0.00000  Uiso   1.00
C687   C     0.52520   0.02478   0.77799   0.00000  Uiso   1.00
C688   C     0.47480   0.30856   0.72201   0.00000  Uiso   1.00
H689   H     0.45462   0.04362   0.69960   0.00000  Uiso   1.00
H690   H     0.54538   0.28971   0.80041   0.00000  Uiso   1.00
H691   H     0.54539   0.04347   0.80039   0.00000  Uiso   1.00
H692   H     0.45461   0.28986   0.69961   0.00000  Uiso   1.00
N693   N     0.50000   0.28402   0.75000   0.00000  Uiso   1.00
N694   N     0.50000   0.04931   0.75000   0.00000  Uiso   1.00
C695   C     0.45113   0.04856   0.95348   0.00000  Uiso   1.00
N696   N     0.43708   0.01689   0.93487   0.00000  Uiso   1.00
C697   C     0.54895   0.28474   0.54652   0.00000  Uiso   1.00
N698   N     0.56305   0.31639   0.56514   0.00000  Uiso   1.00
N699   N     0.44987   0.04997   0.54696   0.00000  Uiso   1.00
O700   O     0.46348   0.00753   0.54111   0.00000  Uiso   1.00
O701   O     0.41725   0.05665   0.57106   0.00000  Uiso   1.00
N702   N     0.55017   0.28333   0.95304   0.00000  Uiso   1.00
O703   O     0.53662   0.32578   0.95893   0.00000  Uiso   1.00
O704   O     0.58277   0.27663   0.92892   0.00000  Uiso   1.00
O705   O     0.77321   0.20625   0.75000   0.00000  Uiso   1.00
O706   O     0.89345   0.12709   0.75001   0.00000  Uiso   1.00
O707   O     0.89345   0.20625   0.75001   0.00000  Uiso   1.00
O708   O     0.77321   0.12709   0.75000   0.00000  Uiso   1.00
C709   C     0.75401   0.16667   0.74996   0.00000  Uiso   1.00
C710   C     0.91266   0.16666   0.75004   0.00000  Uiso   1.00
O711   O     0.83332   0.20627   0.68513   0.00000  Uiso   1.00
O712   O     0.83334   0.12707   0.81487   0.00000  Uiso   1.00
O713   O     0.83334   0.20627   0.81487   0.00000  Uiso   1.00
O714   O     0.83332   0.12707   0.68513   0.00000  Uiso   1.00
C715   C     0.83327   0.16669   0.66433   0.00000  Uiso   1.00
C716   C     0.83340   0.16664   0.83567   0.00000  Uiso   1.00
Cu717  Cu    0.83333   0.21355   0.75000   0.00000  Uiso   1.00
Cu718  Cu    0.83333   0.11978   0.75000   0.00000  Uiso   1.00
C719   C     0.84815   0.20556   0.90701   0.00000  Uiso   1.00
C720   C     0.81852   0.12778   0.59299   0.00000  Uiso   1.00
C721   C     0.83359   0.16654   0.88400   0.00000  Uiso   1.00
C722   C     0.83308   0.16679   0.61600   0.00000  Uiso   1.00
C723   C     0.81920   0.12742   0.90697   0.00000  Uiso   1.00
C724   C     0.84749   0.20590   0.59303   0.00000  Uiso   1.00
C725   C     0.81833   0.12698   0.95341   0.00000  Uiso   1.00
C726   C     0.84835   0.20635   0.54659   0.00000  Uiso   1.00
C727   C     0.83361   0.16650   0.97673   0.00000  Uiso   1.00
C728   C     0.83307   0.16683   0.52327   0.00000  Uiso   1.00
C729   C     0.84932   0.20576   0.95337   0.00000  Uiso   1.00
C730   C     0.81736   0.12757   0.54663   0.00000  Uiso   1.00
C731   C     0.80210   0.08824   0.97683   0.00000  Uiso   1.00
C732   C     0.86461   0.24508   0.52317   0.00000  Uiso   1.00
C733   C     0.80138   0.08860   0.52340   0.00000  Uiso   1.00
C734   C     0.86531   0.24472   0.97660   0.00000  Uiso   1.00
H735   H     0.85873   0.23561   0.88833   0.00000  Uiso   1.00
H736   H     0.80793   0.09772   0.61167   0.00000  Uiso   1.00
H737   H     0.80789   0.09773   0.88821   0.00000  Uiso   1.00
H738   H     0.85880   0.23560   0.61179   0.00000  Uiso   1.00
C739   C     0.68796   0.12407   0.74989   0.00000  Uiso   1.00
C740   C     0.97870   0.20926   0.75011   0.00000  Uiso   1.00
C741   C     0.97873   0.12406   0.74995   0.00000  Uiso   1.00
C742   C     0.68793   0.20927   0.75005   0.00000  Uiso   1.00
H743   H     0.70398   0.09076   0.74981   0.00000  Uiso   1.00
H744   H     0.96268   0.24257   0.75019   0.00000  Uiso   1.00
H745   H     0.96273   0.09076   0.74991   0.00000  Uiso   1.00
H746   H     0.70393   0.24258   0.75009   0.00000  Uiso   1.00
C747   C     0.95727   0.16666   0.75004   0.00000  Uiso   1.00
C748   C     0.70940   0.16667   0.74996   0.00000  Uiso   1.00
C749   C     0.80813   0.02486   0.72201   0.00000  Uiso   1.00
C750   C     0.85854   0.30847   0.77799   0.00000  Uiso   1.00
C751   C     0.85854   0.02478   0.77799   0.00000  Uiso   1.00
C752   C     0.80813   0.30856   0.72201   0.00000  Uiso   1.00
H753   H     0.78795   0.04362   0.69960   0.00000  Uiso   1.00
H754   H     0.87872   0.28971   0.80041   0.00000  Uiso   1.00
H755   H     0.87872   0.04347   0.80039   0.00000  Uiso   1.00
H756   H     0.78794   0.28986   0.69961   0.00000  Uiso   1.00
N757   N     0.83333   0.28402   0.75000   0.00000  Uiso   1.00
N758   N     0.83333   0.04931   0.75000   0.00000  Uiso   1.00
C759   C     0.78446   0.04856   0.95348   0.00000  Uiso   1.00
N760   N     0.77041   0.01689   0.93487   0.00000  Uiso   1.00
C761   C     0.88228   0.28474   0.54652   0.00000  Uiso   1.00
N762   N     0.89638   0.31639   0.56514   0.00000  Uiso   1.00
N763   N     0.78321   0.04997   0.54696   0.00000  Uiso   1.00
O764   O     0.79681   0.00753   0.54111   0.00000  Uiso   1.00
O765   O     0.75058   0.05665   0.57106   0.00000  Uiso   1.00
N766   N     0.88350   0.28333   0.95304   0.00000  Uiso   1.00
O767   O     0.86995   0.32578   0.95893   0.00000  Uiso   1.00
O768   O     0.91611   0.27663   0.92892   0.00000  Uiso   1.00
O769   O     0.10655   0.53958   0.75000   0.00000  Uiso   1.00
O770   O     0.22679   0.46042   0.75001   0.00000  Uiso   1.00
O771   O     0.22679   0.53958   0.75001   0.00000  Uiso   1.00
O772   O     0.10655   0.46042   0.75000   0.00000  Uiso   1.00
C773   C     0.08734   0.50000   0.74996   0.00000  Uiso   1.00
C774   C     0.24599   0.50000   0.75004   0.00000  Uiso   1.00
O775   O     0.16666   0.53960   0.68513   0.00000  Uiso   1.00
O776   O     0.16668   0.46040   0.81487   0.00000  Uiso   1.00
O777   O     0.16668   0.53960   0.81487   0.00000  Uiso   1.00
O778   O     0.16666   0.46040   0.68513   0.00000  Uiso   1.00
C779   C     0.16660   0.50003   0.66433   0.00000  Uiso   1.00
C780   C     0.16673   0.49997   0.83567   0.00000  Uiso   1.00
Cu781  Cu    0.16667   0.54689   0.75000   0.00000  Uiso   1.00
Cu782  Cu    0.16667   0.45311   0.75000   0.00000  Uiso   1.00
C783   C     0.18148   0.53889   0.90701   0.00000  Uiso   1.00
C784   C     0.15186   0.46111   0.59299   0.00000  Uiso   1.00
C785   C     0.16693   0.49988   0.88400   0.00000  Uiso   1.00
C786   C     0.16641   0.50012   0.61600   0.00000  Uiso   1.00
C787   C     0.15253   0.46076   0.90697   0.00000  Uiso   1.00
C788   C     0.18082   0.53924   0.59303   0.00000  Uiso   1.00
C789   C     0.15167   0.46031   0.95341   0.00000  Uiso   1.00
C790   C     0.18169   0.53968   0.54659   0.00000  Uiso   1.00
C791   C     0.16695   0.49983   0.97673   0.00000  Uiso   1.00
C792   C     0.16640   0.50016   0.52327   0.00000  Uiso   1.00
C793   C     0.18265   0.53909   0.95337   0.00000  Uiso   1.00
C794   C     0.15069   0.46090   0.54663   0.00000  Uiso   1.00
C795   C     0.13543   0.42157   0.97683   0.00000  Uiso   1.00
C796   C     0.19794   0.57841   0.52317   0.00000  Uiso   1.00
C797   C     0.13472   0.42194   0.52340   0.00000  Uiso   1.00
C798   C     0.19864   0.57805   0.97660   0.00000  Uiso   1.00
H799   H     0.19206   0.56895   0.88833   0.00000  Uiso   1.00
H800   H     0.14127   0.43105   0.61167   0.00000  Uiso   1.00
H801   H     0.14122   0.43106   0.88821   0.00000  Uiso   1.00
H802   H     0.19213   0.56893   0.61179   0.00000  Uiso   1.00
C803   C     0.02130   0.45740   0.74989   0.00000  Uiso   1.00
C804   C     0.31204   0.54260   0.75011   0.00000  Uiso   1.00
C805   C     0.31206   0.45740   0.74995   0.00000  Uiso   1.00
C806   C     0.02127   0.54260   0.75005   0.00000  Uiso   1.00
H807   H     0.03732   0.42410   0.74981   0.00000  Uiso   1.00
H808   H     0.29602   0.57590   0.75019   0.00000  Uiso   1.00
H809   H     0.29607   0.42409   0.74991   0.00000  Uiso   1.00
H810   H     0.03727   0.57591   0.75009   0.00000  Uiso   1.00
C811   C     0.29060   0.49999   0.75004   0.00000  Uiso   1.00
C812   C     0.04273   0.50001   0.74996   0.00000  Uiso   1.00
C813   C     0.14146   0.35819   0.72201   0.00000  Uiso   1.00
C814   C     0.19187   0.64181   0.77799   0.00000  Uiso   1.00
C815   C     0.19187   0.35811   0.77799   0.00000  Uiso   1.00
C816   C     0.14146   0.64189   0.72201   0.00000  Uiso   1.00
H817   H     0.12128   0.37696   0.69960   0.00000  Uiso   1.00
H818   H     0.21205   0.62304   0.80041   0.00000  Uiso   1.00
H819   H     0.21206   0.37681   0.80039   0.00000  Uiso   1.00
H820   H     0.12128   0.62319   0.69961   0.00000  Uiso   1.00
N821   N     0.16667   0.61736   0.75000   0.00000  Uiso   1.00
N822   N     0.16667   0.38264   0.75000   0.00000  Uiso   1.00
C823   C     0.11780   0.38189   0.95348   0.00000  Uiso   1.00
N824   N     0.10374   0.35023   0.93487   0.00000  Uiso   1.00
C825   C     0.21562   0.61807   0.54652   0.00000  Uiso   1.00
N826   N     0.22971   0.64972   0.56514   0.00000  Uiso   1.00
N827   N     0.11654   0.38330   0.54696   0.00000  Uiso   1.00
O828   O     0.13014   0.34087   0.54111   0.00000  Uiso   1.00
O829   O     0.08391   0.38998   0.57106   0.00000  Uiso   1.00
N830   N     0.21684   0.61667   0.95304   0.00000  Uiso   1.00
O831   O     0.20328   0.65912   0.95893   0.00000  Uiso   1.00
O832   O     0.24944   0.60996   0.92892   0.00000  Uiso   1.00
O833   O     0.43988   0.53958   0.75000   0.00000  Uiso   1.00
O834   O     0.56012   0.46042   0.75001   0.00000  Uiso   1.00
O835   O     0.56012   0.53958   0.75001   0.00000  Uiso   1.00
O836   O     0.43988   0.46042   0.75000   0.00000  Uiso   1.00
C837   C     0.42068   0.50000   0.74996   0.00000  Uiso   1.00
C838   C     0.57932   0.50000   0.75004   0.00000  Uiso   1.00
O839   O     0.49999   0.53960   0.68513   0.00000  Uiso   1.00
O840   O     0.50001   0.46040   0.81487   0.00000  Uiso   1.00
O841   O     0.50001   0.53960   0.81487   0.00000  Uiso   1.00
O842   O     0.49999   0.46040   0.68513   0.00000  Uiso   1.00
C843   C     0.49994   0.50003   0.66433   0.00000  Uiso   1.00
C844   C     0.50006   0.49997   0.83567   0.00000  Uiso   1.00
Cu845  Cu    0.50000   0.54689   0.75000   0.00000  Uiso   1.00
Cu846  Cu    0.50000   0.45311   0.75000   0.00000  Uiso   1.00
C847   C     0.51481   0.53889   0.90701   0.00000  Uiso   1.00
C848   C     0.48519   0.46111   0.59299   0.00000  Uiso   1.00
C849   C     0.50026   0.49988   0.88400   0.00000  Uiso   1.00
C850   C     0.49974   0.50012   0.61600   0.00000  Uiso   1.00
C851   C     0.48586   0.46076   0.90697   0.00000  Uiso   1.00
C852   C     0.51415   0.53924   0.59303   0.00000  Uiso   1.00
C853   C     0.48500   0.46031   0.95341   0.00000  Uiso   1.00
C854   C     0.51502   0.53968   0.54659   0.00000  Uiso   1.00
C855   C     0.50028   0.49983   0.97673   0.00000  Uiso   1.00
C856   C     0.49973   0.50016   0.52327   0.00000  Uiso   1.00
C857   C     0.51599   0.53909   0.95337   0.00000  Uiso   1.00
C858   C     0.48402   0.46090   0.54663   0.00000  Uiso   1.00
C859   C     0.46876   0.42157   0.97683   0.00000  Uiso   1.00
C860   C     0.53127   0.57841   0.52317   0.00000  Uiso   1.00
C861   C     0.46805   0.42194   0.52340   0.00000  Uiso   1.00
C862   C     0.53198   0.57805   0.97660   0.00000  Uiso   1.00
H863   H     0.52539   0.56895   0.88833   0.00000  Uiso   1.00
H864   H     0.47460   0.43105   0.61167   0.00000  Uiso   1.00
H865   H     0.47456   0.43106   0.88821   0.00000  Uiso   1.00
H866   H     0.52546   0.56893   0.61179   0.00000  Uiso   1.00
C867   C     0.35463   0.45740   0.74989   0.00000  Uiso   1.00
C868   C     0.64537   0.54260   0.75011   0.00000  Uiso   1.00
C869   C     0.64540   0.45740   0.74995   0.00000  Uiso   1.00
C870   C     0.35460   0.54260   0.75005   0.00000  Uiso   1.00
H871   H     0.37065   0.42410   0.74981   0.00000  Uiso   1.00
H872   H     0.62935   0.57590   0.75019   0.00000  Uiso   1.00
H873   H     0.62940   0.42409   0.74991   0.00000  Uiso   1.00
H874   H     0.37060   0.57591   0.75009   0.00000  Uiso   1.00
C875   C     0.62393   0.49999   0.75004   0.00000  Uiso   1.00
C876   C     0.37607   0.50001   0.74996   0.00000  Uiso   1.00
C877   C     0.47480   0.35819   0.72201   0.00000  Uiso   1.00
C878   C     0.52520   0.64181   0.77799   0.00000  Uiso   1.00
C879   C     0.52520   0.35811   0.77799   0.00000  Uiso   1.00
C880   C     0.47480   0.64189   0.72201   0.00000  Uiso   1.00
H881   H     0.45462   0.37696   0.69960   0.00000  Uiso   1.00
H882   H     0.54538   0.62304   0.80041   0.00000  Uiso   1.00
H883   H     0.54539   0.37681   0.80039   0.00000  Uiso   1.00
H884   H     0.45461   0.62319   0.69961   0.00000  Uiso   1.00
N885   N     0.50000   0.61736   0.75000   0.00000  Uiso   1.00
N886   N     0.50000   0.38264   0.75000   0.00000  Uiso   1.00
C887   C     0.45113   0.38189   0.95348   0.00000  Uiso   1.00
N888   N     0.43708   0.35023   0.93487   0.00000  Uiso   1.00
C889   C     0.54895   0.61807   0.54652   0.00000  Uiso   1.00
N890   N     0.56305   0.64972   0.56514   0.00000  Uiso   1.00
N891   N     0.44987   0.38330   0.54696   0.00000  Uiso   1.00
O892   O     0.46348   0.34087   0.54111   0.00000  Uiso   1.00
O893   O     0.41725   0.38998   0.57106   0.00000  Uiso   1.00
N894   N     0.55017   0.61667   0.95304   0.00000  Uiso   1.00
O895   O     0.53662   0.65912   0.95893   0.00000  Uiso   1.00
O896   O     0.58277   0.60996   0.92892   0.00000  Uiso   1.00
O897   O     0.77321   0.53958   0.75000   0.00000  Uiso   1.00
O898   O     0.89345   0.46042   0.75001   0.00000  Uiso   1.00
O899   O     0.89345   0.53958   0.75001   0.00000  Uiso   1.00
O900   O     0.77321   0.46042   0.75000   0.00000  Uiso   1.00
C901   C     0.75401   0.50000   0.74996   0.00000  Uiso   1.00
C902   C     0.91266   0.50000   0.75004   0.00000  Uiso   1.00
O903   O     0.83332   0.53960   0.68513   0.00000  Uiso   1.00
O904   O     0.83334   0.46040   0.81487   0.00000  Uiso   1.00
O905   O     0.83334   0.53960   0.81487   0.00000  Uiso   1.00
O906   O     0.83332   0.46040   0.68513   0.00000  Uiso   1.00
C907   C     0.83327   0.50003   0.66433   0.00000  Uiso   1.00
C908   C     0.83340   0.49997   0.83567   0.00000  Uiso   1.00
Cu909  Cu    0.83333   0.54689   0.75000   0.00000  Uiso   1.00
Cu910  Cu    0.83333   0.45311   0.75000   0.00000  Uiso   1.00
C911   C     0.84815   0.53889   0.90701   0.00000  Uiso   1.00
C912   C     0.81852   0.46111   0.59299   0.00000  Uiso   1.00
C913   C     0.83359   0.49988   0.88400   0.00000  Uiso   1.00
C914   C     0.83308   0.50012   0.61600   0.00000  Uiso   1.00
C915   C     0.81920   0.46076   0.90697   0.00000  Uiso   1.00
C916   C     0.84749   0.53924   0.59303   0.00000  Uiso   1.00
C917   C     0.81833   0.46031   0.95341   0.00000  Uiso   1.00
C918   C     0.84835   0.53968   0.54659   0.00000  Uiso   1.00
C919   C     0.83361   0.49983   0.97673   0.00000  Uiso   1.00
C920   C     0.83307   0.50016   0.52327   0.00000  Uiso   1.00
C921   C     0.84932   0.53909   0.95337   0.00000  Uiso   1.00
C922   C     0.81736   0.46090   0.54663   0.00000  Uiso   1.00
C923   C     0.80210   0.42157   0.97683   0.00000  Uiso   1.00
C924   C     0.86461   0.57841   0.52317   0.00000  Uiso   1.00
C925   C     0.80138   0.42194   0.52340   0.00000  Uiso   1.00
C926   C     0.86531   0.57805   0.97660   0.00000  Uiso   1.00
H927   H     0.85873   0.56895   0.88833   0.00000  Uiso   1.00
H928   H     0.80793   0.43105   0.61167   0.00000  Uiso   1.00
H929   H     0.80789   0.43106   0.88821   0.00000  Uiso   1.00
H930   H     0.85880   0.56893   0.61179   0.00000  Uiso   1.00
C931   C     0.68796   0.45740   0.74989   0.00000  Uiso   1.00
C932   C     0.97870   0.54260   0.75011   0.00000  Uiso   1.00
C933   C     0.97873   0.45740   0.74995   0.00000  Uiso   1.00
C934   C     0.68793   0.54260   0.75005   0.00000  Uiso   1.00
H935   H     0.70398   0.42410   0.74981   0.00000  Uiso   1.00
H936   H     0.96268   0.57590   0.75019   0.00000  Uiso   1.00
H937   H     0.96273   0.42409   0.74991   0.00000  Uiso   1.00
H938   H     0.70393   0.57591   0.75009   0.00000  Uiso   1.00
C939   C     0.95727   0.49999   0.75004   0.00000  Uiso   1.00
C940   C     0.70940   0.50001   0.74996   0.00000  Uiso   1.00
C941   C     0.80813   0.35819   0.72201   0.00000  Uiso   1.00
C942   C     0.85854   0.64181   0.77799   0.00000  Uiso   1.00
C943   C     0.85854   0.35811   0.77799   0.00000  Uiso   1.00
C944   C     0.80813   0.64189   0.72201   0.00000  Uiso   1.00
H945   H     0.78795   0.37696   0.69960   0.00000  Uiso   1.00
H946   H     0.87872   0.62304   0.80041   0.00000  Uiso   1.00
H947   H     0.87872   0.37681   0.80039   0.00000  Uiso   1.00
H948   H     0.78794   0.62319   0.69961   0.00000  Uiso   1.00
N949   N     0.83333   0.61736   0.75000   0.00000  Uiso   1.00
N950   N     0.83333   0.38264   0.75000   0.00000  Uiso   1.00
C951   C     0.78446   0.38189   0.95348   0.00000  Uiso   1.00
N952   N     0.77041   0.35023   0.93487   0.00000  Uiso   1.00
C953   C     0.88228   0.61807   0.54652   0.00000  Uiso   1.00
N954   N     0.89638   0.64972   0.56514   0.00000  Uiso   1.00
N955   N     0.78321   0.38330   0.54696   0.00000  Uiso   1.00
O956   O     0.79681   0.34087   0.54111   0.00000  Uiso   1.00
O957   O     0.75058   0.38998   0.57106   0.00000  Uiso   1.00
N958   N     0.88350   0.61667   0.95304   0.00000  Uiso   1.00
O959   O     0.86995   0.65912   0.95893   0.00000  Uiso   1.00
O960   O     0.91611   0.60996   0.92892   0.00000  Uiso   1.00
O961   O     0.10655   0.87291   0.75000   0.00000  Uiso   1.00
O962   O     0.22679   0.79375   0.75001   0.00000  Uiso   1.00
O963   O     0.22679   0.87291   0.75001   0.00000  Uiso   1.00
O964   O     0.10655   0.79375   0.75000   0.00000  Uiso   1.00
C965   C     0.08734   0.83334   0.74996   0.00000  Uiso   1.00
C966   C     0.24599   0.83333   0.75004   0.00000  Uiso   1.00
O967   O     0.16666   0.87293   0.68513   0.00000  Uiso   1.00
O968   O     0.16668   0.79373   0.81487   0.00000  Uiso   1.00
O969   O     0.16668   0.87293   0.81487   0.00000  Uiso   1.00
O970   O     0.16666   0.79373   0.68513   0.00000  Uiso   1.00
C971   C     0.16660   0.83336   0.66433   0.00000  Uiso   1.00
C972   C     0.16673   0.83331   0.83567   0.00000  Uiso   1.00
Cu973  Cu    0.16667   0.88022   0.75000   0.00000  Uiso   1.00
Cu974  Cu    0.16667   0.78645   0.75000   0.00000  Uiso   1.00
C975   C     0.18148   0.87222   0.90701   0.00000  Uiso   1.00
C976   C     0.15186   0.79444   0.59299   0.00000  Uiso   1.00
C977   C     0.16693   0.83321   0.88400   0.00000  Uiso   1.00
C978   C     0.16641   0.83346   0.61600   0.00000  Uiso   1.00
C979   C     0.15253   0.79409   0.90697   0.00000  Uiso   1.00
C980   C     0.18082   0.87257   0.59303   0.00000  Uiso   1.00
C981   C     0.15167   0.79364   0.95341   0.00000  Uiso   1.00
C982   C     0.18169   0.87302   0.54659   0.00000  Uiso   1.00
C983   C     0.16695   0.83316   0.97673   0.00000  Uiso   1.00
C984   C     0.16640   0.83350   0.52327   0.00000  Uiso   1.00
C985   C     0.18265   0.87243   0.95337   0.00000  Uiso   1.00
C986   C     0.15069   0.79423   0.54663   0.00000  Uiso   1.00
C987   C     0.13543   0.75490   0.97683   0.00000  Uiso   1.00
C988   C     0.19794   0.91175   0.52317   0.00000  Uiso   1.00
C989   C     0.13472   0.75527   0.52340   0.00000  Uiso   1.00
C990   C     0.19864   0.91138   0.97660   0.00000  Uiso   1.00
H991   H     0.19206   0.90228   0.88833   0.00000  Uiso   1.00
H992   H     0.14127   0.76439   0.61167   0.00000  Uiso   1.00
H993   H     0.14122   0.76440   0.88821   0.00000  Uiso   1.00
H994   H     0.19213   0.90227   0.61179   0.00000  Uiso   1.00
C995   C     0.02130   0.79074   0.74989   0.00000  Uiso   1.00
C996   C     0.31204   0.87593   0.75011   0.00000  Uiso   1.00
C997   C     0.31206   0.79073   0.74995   0.00000  Uiso   1.00
C998   C     0.02127   0.87594   0.75005   0.00000  Uiso   1.00
H999   H     0.03732   0.75743   0.74981   0.00000  Uiso   1.00
H1000  H     0.29602   0.90924   0.75019   0.00000  Uiso   1.00
H1001  H     0.29607   0.75742   0.74991   0.00000  Uiso   1.00
H1002  H     0.03727   0.90924   0.75009   0.00000  Uiso   1.00
C1003  C     0.29060   0.83333   0.75004   0.00000  Uiso   1.00
C1004  C     0.04273   0.83334   0.74996   0.00000  Uiso   1.00
C1005  C     0.14146   0.69153   0.72201   0.00000  Uiso   1.00
C1006  C     0.19187   0.97514   0.77799   0.00000  Uiso   1.00
C1007  C     0.19187   0.69144   0.77799   0.00000  Uiso   1.00
C1008  C     0.14146   0.97522   0.72201   0.00000  Uiso   1.00
H1009  H     0.12128   0.71029   0.69960   0.00000  Uiso   1.00
H1010  H     0.21205   0.95638   0.80041   0.00000  Uiso   1.00
H1011  H     0.21206   0.71014   0.80039   0.00000  Uiso   1.00
H1012  H     0.12128   0.95653   0.69961   0.00000  Uiso   1.00
N1013  N     0.16667   0.95069   0.75000   0.00000  Uiso   1.00
N1014  N     0.16667   0.71598   0.75000   0.00000  Uiso   1.00
C1015  C     0.11780   0.71523   0.95348   0.00000  Uiso   1.00
N1016  N     0.10374   0.68356   0.93487   0.00000  Uiso   1.00
C1017  C     0.21562   0.95141   0.54652   0.00000  Uiso   1.00
N1018  N     0.22971   0.98305   0.56514   0.00000  Uiso   1.00
N1019  N     0.11654   0.71664   0.54696   0.00000  Uiso   1.00
O1020  O     0.13014   0.67420   0.54111   0.00000  Uiso   1.00
O1021  O     0.08391   0.72331   0.57106   0.00000  Uiso   1.00
N1022  N     0.21684   0.95000   0.95304   0.00000  Uiso   1.00
O1023  O     0.20328   0.99245   0.95893   0.00000  Uiso   1.00
O1024  O     0.24944   0.94330   0.92892   0.00000  Uiso   1.00
O1025  O     0.43988   0.87291   0.75000   0.00000  Uiso   1.00
O1026  O     0.56012   0.79375   0.75001   0.00000  Uiso   1.00
O1027  O     0.56012   0.87291   0.75001   0.00000  Uiso   1.00
O1028  O     0.43988   0.79375   0.75000   0.00000  Uiso   1.00
C1029  C     0.42068   0.83334   0.74996   0.00000  Uiso   1.00
C1030  C     0.57932   0.83333   0.75004   0.00000  Uiso   1.00
O1031  O     0.49999   0.87293   0.68513   0.00000  Uiso   1.00
O1032  O     0.50001   0.79373   0.81487   0.00000  Uiso   1.00
O1033  O     0.50001   0.87293   0.81487   0.00000  Uiso   1.00
O1034  O     0.49999   0.79373   0.68513   0.00000  Uiso   1.00
C1035  C     0.49994   0.83336   0.66433   0.00000  Uiso   1.00
C1036  C     0.50006   0.83331   0.83567   0.00000  Uiso   1.00
Cu1037 Cu    0.50000   0.88022   0.75000   0.00000  Uiso   1.00
Cu1038 Cu    0.50000   0.78645   0.75000   0.00000  Uiso   1.00
C1039  C     0.51481   0.87222   0.90701   0.00000  Uiso   1.00
C1040  C     0.48519   0.79444   0.59299   0.00000  Uiso   1.00
C1041  C     0.50026   0.83321   0.88400   0.00000  Uiso   1.00
C1042  C     0.49974   0.83346   0.61600   0.00000  Uiso   1.00
C1043  C     0.48586   0.79409   0.90697   0.00000  Uiso   1.00
C1044  C     0.51415   0.87257   0.59303   0.00000  Uiso   1.00
C1045  C     0.48500   0.79364   0.95341   0.00000  Uiso   1.00
C1046  C     0.51502   0.87302   0.54659   0.00000  Uiso   1.00
C1047  C     0.50028   0.83316   0.97673   0.00000  Uiso   1.00
C1048  C     0.49973   0.83350   0.52327   0.00000  Uiso   1.00
C1049  C     0.51599   0.87243   0.95337   0.00000  Uiso   1.00
C1050  C     0.48402   0.79423   0.54663   0.00000  Uiso   1.00
C1051  C     0.46876   0.75490   0.97683   0.00000  Uiso   1.00
C1052  C     0.53127   0.91175   0.52317   0.00000  Uiso   1.00
C1053  C     0.46805   0.75527   0.52340   0.00000  Uiso   1.00
C1054  C     0.53198   0.91138   0.97660   0.00000  Uiso   1.00
H1055  H     0.52539   0.90228   0.88833   0.00000  Uiso   1.00
H1056  H     0.47460   0.76439   0.61167   0.00000  Uiso   1.00
H1057  H     0.47456   0.76440   0.88821   0.00000  Uiso   1.00
H1058  H     0.52546   0.90227   0.61179   0.00000  Uiso   1.00
C1059  C     0.35463   0.79074   0.74989   0.00000  Uiso   1.00
C1060  C     0.64537   0.87593   0.75011   0.00000  Uiso   1.00
C1061  C     0.64540   0.79073   0.74995   0.00000  Uiso   1.00
C1062  C     0.35460   0.87594   0.75005   0.00000  Uiso   1.00
H1063  H     0.37065   0.75743   0.74981   0.00000  Uiso   1.00
H1064  H     0.62935   0.90924   0.75019   0.00000  Uiso   1.00
H1065  H     0.62940   0.75742   0.74991   0.00000  Uiso   1.00
H1066  H     0.37060   0.90924   0.75009   0.00000  Uiso   1.00
C1067  C     0.62393   0.83333   0.75004   0.00000  Uiso   1.00
C1068  C     0.37607   0.83334   0.74996   0.00000  Uiso   1.00
C1069  C     0.47480   0.69153   0.72201   0.00000  Uiso   1.00
C1070  C     0.52520   0.97514   0.77799   0.00000  Uiso   1.00
C1071  C     0.52520   0.69144   0.77799   0.00000  Uiso   1.00
C1072  C     0.47480   0.97522   0.72201   0.00000  Uiso   1.00
H1073  H     0.45462   0.71029   0.69960   0.00000  Uiso   1.00
H1074  H     0.54538   0.95638   0.80041   0.00000  Uiso   1.00
H1075  H     0.54539   0.71014   0.80039   0.00000  Uiso   1.00
H1076  H     0.45461   0.95653   0.69961   0.00000  Uiso   1.00
N1077  N     0.50000   0.95069   0.75000   0.00000  Uiso   1.00
N1078  N     0.50000   0.71598   0.75000   0.00000  Uiso   1.00
C1079  C     0.45113   0.71523   0.95348   0.00000  Uiso   1.00
N1080  N     0.43708   0.68356   0.93487   0.00000  Uiso   1.00
C1081  C     0.54895   0.95141   0.54652   0.00000  Uiso   1.00
N1082  N     0.56305   0.98305   0.56514   0.00000  Uiso   1.00
N1083  N     0.44987   0.71664   0.54696   0.00000  Uiso   1.00
O1084  O     0.46348   0.67420   0.54111   0.00000  Uiso   1.00
O1085  O     0.41725   0.72331   0.57106   0.00000  Uiso   1.00
N1086  N     0.55017   0.95000   0.95304   0.00000  Uiso   1.00
O1087  O     0.53662   0.99245   0.95893   0.00000  Uiso   1.00
O1088  O     0.58277   0.94330   0.92892   0.00000  Uiso   1.00
O1089  O     0.77321   0.87291   0.75000   0.00000  Uiso   1.00
O1090  O     0.89345   0.79375   0.75001   0.00000  Uiso   1.00
O1091  O     0.89345   0.87291   0.75001   0.00000  Uiso   1.00
O1092  O     0.77321   0.79375   0.75000   0.00000  Uiso   1.00
C1093  C     0.75401   0.83334   0.74996   0.00000  Uiso   1.00
C1094  C     0.91266   0.83333   0.75004   0.00000  Uiso   1.00
O1095  O     0.83332   0.87293   0.68513   0.00000  Uiso   1.00
O1096  O     0.83334   0.79373   0.81487   0.00000  Uiso   1.00
O1097  O     0.83334   0.87293   0.81487   0.00000  Uiso   1.00
O1098  O     0.83332   0.79373   0.68513   0.00000  Uiso   1.00
C1099  C     0.83327   0.83336   0.66433   0.00000  Uiso   1.00
C1100  C     0.83340   0.83331   0.83567   0.00000  Uiso   1.00
Cu1101 Cu    0.83333   0.88022   0.75000   0.00000  Uiso   1.00
Cu1102 Cu    0.83333   0.78645   0.75000   0.00000  Uiso   1.00
C1103  C     0.84815   0.87222   0.90701   0.00000  Uiso   1.00
C1104  C     0.81852   0.79444   0.59299   0.00000  Uiso   1.00
C1105  C     0.83359   0.83321   0.88400   0.00000  Uiso   1.00
C1106  C     0.83308   0.83346   0.61600   0.00000  Uiso   1.00
C1107  C     0.81920   0.79409   0.90697   0.00000  Uiso   1.00
C1108  C     0.84749   0.87257   0.59303   0.00000  Uiso   1.00
C1109  C     0.81833   0.79364   0.95341   0.00000  Uiso   1.00
C1110  C     0.84835   0.87302   0.54659   0.00000  Uiso   1.00
C1111  C     0.83361   0.83316   0.97673   0.00000  Uiso   1.00
C1112  C     0.83307   0.83350   0.52327   0.00000  Uiso   1.00
C1113  C     0.84932   0.87243   0.95337   0.00000  Uiso   1.00
C1114  C     0.81736   0.79423   0.54663   0.00000  Uiso   1.00
C1115  C     0.80210   0.75490   0.97683   0.00000  Uiso   1.00
C1116  C     0.86461   0.91175   0.52317   0.00000  Uiso   1.00
C1117  C     0.80138   0.75527   0.52340   0.00000  Uiso   1.00
C1118  C     0.86531   0.91138   0.97660   0.00000  Uiso   1.00
H1119  H     0.85873   0.90228   0.88833   0.00000  Uiso   1.00
H1120  H     0.80793   0.76439   0.61167   0.00000  Uiso   1.00
H1121  H     0.80789   0.76440   0.88821   0.00000  Uiso   1.00
H1122  H     0.85880   0.90227   0.61179   0.00000  Uiso   1.00
C1123  C     0.68796   0.79074   0.74989   0.00000  Uiso   1.00
C1124  C     0.97870   0.87593   0.75011   0.00000  Uiso   1.00
C1125  C     0.97873   0.79073   0.74995   0.00000  Uiso   1.00
C1126  C     0.68793   0.87594   0.75005   0.00000  Uiso   1.00
H1127  H     0.70398   0.75743   0.74981   0.00000  Uiso   1.00
H1128  H     0.96268   0.90924   0.75019   0.00000  Uiso   1.00
H1129  H     0.96273   0.75742   0.74991   0.00000  Uiso   1.00
H1130  H     0.70393   0.90924   0.75009   0.00000  Uiso   1.00
C1131  C     0.95727   0.83333   0.75004   0.00000  Uiso   1.00
C1132  C     0.70940   0.83334   0.74996   0.00000  Uiso   1.00
C1133  C     0.80813   0.69153   0.72201   0.00000  Uiso   1.00
C1134  C     0.85854   0.97514   0.77799   0.00000  Uiso   1.00
C1135  C     0.85854   0.69144   0.77799   0.00000  Uiso   1.00
C1136  C     0.80813   0.97522   0.72201   0.00000  Uiso   1.00
H1137  H     0.78795   0.71029   0.69960   0.00000  Uiso   1.00
H1138  H     0.87872   0.95638   0.80041   0.00000  Uiso   1.00
H1139  H     0.87872   0.71014   0.80039   0.00000  Uiso   1.00
H1140  H     0.78794   0.95653   0.69961   0.00000  Uiso   1.00
N1141  N     0.83333   0.95069   0.75000   0.00000  Uiso   1.00
N1142  N     0.83333   0.71598   0.75000   0.00000  Uiso   1.00
C1143  C     0.78446   0.71523   0.95348   0.00000  Uiso   1.00
N1144  N     0.77041   0.68356   0.93487   0.00000  Uiso   1.00
C1145  C     0.88228   0.95141   0.54652   0.00000  Uiso   1.00
N1146  N     0.89638   0.98305   0.56514   0.00000  Uiso   1.00
N1147  N     0.78321   0.71664   0.54696   0.00000  Uiso   1.00
O1148  O     0.79681   0.67420   0.54111   0.00000  Uiso   1.00
O1149  O     0.75058   0.72331   0.57106   0.00000  Uiso   1.00
N1150  N     0.88350   0.95000   0.95304   0.00000  Uiso   1.00
O1151  O     0.86995   0.99245   0.95893   0.00000  Uiso   1.00
O1152  O     0.91611   0.94330   0.92892   0.00000  Uiso   1.00
loop_
_geom_bond_atom_site_label_1
_geom_bond_atom_site_label_2
_geom_bond_distance
_geom_bond_site_symmetry_2
_ccdc_geom_bond_type
O1     C5      1.290   .     A
O1     Cu13    1.965   .     S
O2     C6      1.290   .     A
O2     Cu14    1.965   .     S
O3     Cu13    1.965   .     S
O3     C6      1.290   .     A
O4     Cu14    1.965   .     S
O4     C5      1.290   .     A
C5     C44     1.450   .     S
C6     C43     1.450   .     S
O7     Cu13    1.968   .     S
O7     C11     1.292   .     A
O8     C12     1.292   .     A
O8     Cu14    1.968   .     S
O9     C12     1.292   .     A
O9     Cu13    1.967   .     S
O10    C11     1.292   .     A
O10    Cu14    1.967   .     S
C11    C18     1.458   .     S
C12    C17     1.458   .     S
Cu13   Cu14    2.675   .     S
Cu13   N53     2.010   .     S
Cu14   N54     2.010   .     S
C15    C25     1.399   .     A
C15    C17     1.394   .     A
C15    H31     1.082   .     S
C16    H32     1.082   .     S
C16    C18     1.394   .     A
C16    C26     1.399   .     A
C17    C19     1.395   .     A
C18    C20     1.395   .     A
C19    H33     1.083   .     S
C19    C21     1.401   .     A
C20    H34     1.083   .     S
C20    C22     1.401   .     A
C21    C27     1.414   .     A
C21    C23     1.419   .     A
C22    C28     1.414   .     A
C22    C24     1.419   .     A
C23    C25     1.419   .     A
C23    C600    1.404   .     S
C24    C26     1.419   .     A
C24    C599    1.404   1_554 S
C25    C30     1.413   .     A
C26    C29     1.413   .     A
C27    C55     1.451   .     S
C27    C605    1.405   .     S
C28    C57     1.451   .     S
C28    C606    1.405   1_554 S
C29    N59     1.439   .     S
C29    C603    1.405   1_554 S
C30    N62     1.439   .     S
C30    C604    1.405   .     S
C35    H39     1.083   .     S
C35    C44     1.401   .     A
C35    C165    1.383   1_455 S
C36    H40     1.083   .     S
C36    C43     1.401   .     A
C36    C102    1.383   .     S
C37    C43     1.401   .     A
C37    H41     1.083   .     S
C37    C99     1.383   .     S
C38    C44     1.401   .     A
C38    H42     1.083   .     S
C38    C164    1.383   1_455 S
C45    H49     1.082   .     S
C45    N54     1.367   .     A
C45    C432    1.416   1_545 S
C46    H50     1.082   .     S
C46    N53     1.367   .     A
C46    C239    1.416   .     S
C47    N54     1.367   .     A
C47    H51     1.082   .     S
C47    C430    1.416   1_545 S
C48    H52     1.082   .     S
C48    N53     1.367   .     A
C48    C237    1.416   .     S
C55    N56     1.158   .     T
C57    N58     1.158   .     T
N59    O60     1.301   .     A
N59    O61     1.301   .     A
N62    O63     1.301   .     A
N62    O64     1.301   .     A
O65    C69     1.290   .     A
O65    Cu77    1.965   .     S
O66    C70     1.290   .     A
O66    Cu78    1.965   .     S
O67    Cu77    1.965   .     S
O67    C70     1.290   .     A
O68    Cu78    1.965   .     S
O68    C69     1.290   .     A
C69    C108    1.450   .     S
C70    C107    1.450   .     S
O71    Cu77    1.968   .     S
O71    C75     1.292   .     A
O72    C76     1.292   .     A
O72    Cu78    1.968   .     S
O73    C76     1.292   .     A
O73    Cu77    1.967   .     S
O74    C75     1.292   .     A
O74    Cu78    1.967   .     S
C75    C82     1.458   .     S
C76    C81     1.458   .     S
Cu77   Cu78    2.675   .     S
Cu77   N117    2.010   .     S
Cu78   N118    2.010   .     S
C79    C89     1.399   .     A
C79    C81     1.394   .     A
C79    H95     1.082   .     S
C80    H96     1.082   .     S
C80    C82     1.394   .     A
C80    C90     1.399   .     A
C81    C83     1.395   .     A
C82    C84     1.395   .     A
C83    H97     1.083   .     S
C83    C85     1.401   .     A
C84    H98     1.083   .     S
C84    C86     1.401   .     A
C85    C91     1.414   .     A
C85    C87     1.419   .     A
C86    C92     1.414   .     A
C86    C88     1.419   .     A
C87    C89     1.419   .     A
C87    C664    1.404   .     S
C88    C90     1.419   .     A
C88    C663    1.404   1_554 S
C89    C94     1.413   .     A
C90    C93     1.413   .     A
C91    C119    1.451   .     S
C91    C669    1.405   .     S
C92    C121    1.451   .     S
C92    C670    1.405   1_554 S
C93    N123    1.439   .     S
C93    C667    1.405   1_554 S
C94    N126    1.439   .     S
C94    C668    1.405   .     S
C99    H103    1.083   .     S
C99    C108    1.401   .     A
C100   H104    1.083   .     S
C100   C107    1.401   .     A
C100   C166    1.383   .     S
C101   C107    1.401   .     A
C101   H105    1.083   .     S
C101   C163    1.383   .     S
C102   C108    1.401   .     A
C102   H106    1.083   .     S
C109   H113    1.082   .     S
C109   N118    1.367   .     A
C109   C496    1.416   1_545 S
C110   H114    1.082   .     S
C110   N117    1.367   .     A
C110   C303    1.416   .     S
C111   N118    1.367   .     A
C111   H115    1.082   .     S
C111   C494    1.416   1_545 S
C112   H116    1.082   .     S
C112   N117    1.367   .     A
C112   C301    1.416   .     S
C119   N120    1.158   .     T
C121   N122    1.158   .     T
N123   O124    1.301   .     A
N123   O125    1.301   .     A
N126   O127    1.301   .     A
N126   O128    1.301   .     A
O129   C133    1.290   .     A
O129   Cu141   1.965   .     S
O130   C134    1.290   .     A
O130   Cu142   1.965   .     S
O131   Cu141   1.965   .     S
O131   C134    1.290   .     A
O132   Cu142   1.965   .     S
O132   C133    1.290   .     A
C133   C172    1.450   .     S
C134   C171    1.450   .     S
O135   Cu141   1.968   .     S
O135   C139    1.292   .     A
O136   C140    1.292   .     A
O136   Cu142   1.968   .     S
O137   C140    1.292   .     A
O137   Cu141   1.967   .     S
O138   C139    1.292   .     A
O138   Cu142   1.967   .     S
C139   C146    1.458   .     S
C140   C145    1.458   .     S
Cu141  Cu142   2.675   .     S
Cu141  N181    2.010   .     S
Cu142  N182    2.010   .     S
C143   C153    1.399   .     A
C143   C145    1.394   .     A
C143   H159    1.082   .     S
C144   H160    1.082   .     S
C144   C146    1.394   .     A
C144   C154    1.399   .     A
C145   C147    1.395   .     A
C146   C148    1.395   .     A
C147   H161    1.083   .     S
C147   C149    1.401   .     A
C148   H162    1.083   .     S
C148   C150    1.401   .     A
C149   C155    1.414   .     A
C149   C151    1.419   .     A
C150   C156    1.414   .     A
C150   C152    1.419   .     A
C151   C153    1.419   .     A
C151   C728    1.404   .     S
C152   C154    1.419   .     A
C152   C727    1.404   1_554 S
C153   C158    1.413   .     A
C154   C157    1.413   .     A
C155   C183    1.451   .     S
C155   C733    1.405   .     S
C156   C185    1.451   .     S
C156   C734    1.405   1_554 S
C157   N187    1.439   .     S
C157   C731    1.405   1_554 S
C158   N190    1.439   .     S
C158   C732    1.405   .     S
C163   H167    1.083   .     S
C163   C172    1.401   .     A
C164   H168    1.083   .     S
C164   C171    1.401   .     A
C164   C38     1.383   1_655 S
C165   C171    1.401   .     A
C165   H169    1.083   .     S
C165   C35     1.383   1_655 S
C166   C172    1.401   .     A
C166   H170    1.083   .     S
C173   H177    1.082   .     S
C173   N182    1.367   .     A
C173   C560    1.416   1_545 S
C174   H178    1.082   .     S
C174   N181    1.367   .     A
C174   C367    1.416   .     S
C175   N182    1.367   .     A
C175   H179    1.082   .     S
C175   C558    1.416   1_545 S
C176   H180    1.082   .     S
C176   N181    1.367   .     A
C176   C365    1.416   .     S
C183   N184    1.158   .     T
C185   N186    1.158   .     T
N187   O188    1.301   .     A
N187   O189    1.301   .     A
N190   O191    1.301   .     A
N190   O192    1.301   .     A
O193   C197    1.290   .     A
O193   Cu205   1.965   .     S
O194   C198    1.290   .     A
O194   Cu206   1.965   .     S
O195   Cu205   1.965   .     S
O195   C198    1.290   .     A
O196   Cu206   1.965   .     S
O196   C197    1.290   .     A
C197   C236    1.450   .     S
C198   C235    1.450   .     S
O199   Cu205   1.968   .     S
O199   C203    1.292   .     A
O200   C204    1.292   .     A
O200   Cu206   1.968   .     S
O201   C204    1.292   .     A
O201   Cu205   1.967   .     S
O202   C203    1.292   .     A
O202   Cu206   1.967   .     S
C203   C210    1.458   .     S
C204   C209    1.458   .     S
Cu205  Cu206   2.675   .     S
Cu205  N245    2.010   .     S
Cu206  N246    2.010   .     S
C207   C217    1.399   .     A
C207   C209    1.394   .     A
C207   H223    1.082   .     S
C208   H224    1.082   .     S
C208   C210    1.394   .     A
C208   C218    1.399   .     A
C209   C211    1.395   .     A
C210   C212    1.395   .     A
C211   H225    1.083   .     S
C211   C213    1.401   .     A
C212   H226    1.083   .     S
C212   C214    1.401   .     A
C213   C219    1.414   .     A
C213   C215    1.419   .     A
C214   C220    1.414   .     A
C214   C216    1.419   .     A
C215   C217    1.419   .     A
C215   C792    1.404   .     S
C216   C218    1.419   .     A
C216   C791    1.404   1_554 S
C217   C222    1.413   .     A
C218   C221    1.413   .     A
C219   C247    1.451   .     S
C219   C797    1.405   .     S
C220   C249    1.451   .     S
C220   C798    1.405   1_554 S
C221   N251    1.439   .     S
C221   C795    1.405   1_554 S
C222   N254    1.439   .     S
C222   C796    1.405   .     S
C227   H231    1.083   .     S
C227   C236    1.401   .     A
C227   C357    1.383   1_455 S
C228   H232    1.083   .     S
C228   C235    1.401   .     A
C228   C294    1.383   .     S
C229   C235    1.401   .     A
C229   H233    1.083   .     S
C229   C291    1.383   .     S
C230   C236    1.401   .     A
C230   H234    1.083   .     S
C230   C356    1.383   1_455 S
C237   H241    1.082   .     S
C237   N246    1.367   .     A
C238   H242    1.082   .     S
C238   N245    1.367   .     A
C238   C431    1.416   .     S
C239   N246    1.367   .     A
C239   H243    1.082   .     S
C240   H244    1.082   .     S
C240   N245    1.367   .     A
C240   C429    1.416   .     S
C247   N248    1.158   .     T
C249   N250    1.158   .     T
N251   O252    1.301   .     A
N251   O253    1.301   .     A
N254   O255    1.301   .     A
N254   O256    1.301   .     A
O257   C261    1.290   .     A
O257   Cu269   1.965   .     S
O258   C262    1.290   .     A
O258   Cu270   1.965   .     S
O259   Cu269   1.965   .     S
O259   C262    1.290   .     A
O260   Cu270   1.965   .     S
O260   C261    1.290   .     A
C261   C300    1.450   .     S
C262   C299    1.450   .     S
O263   Cu269   1.968   .     S
O263   C267    1.292   .     A
O264   C268    1.292   .     A
O264   Cu270   1.968   .     S
O265   C268    1.292   .     A
O265   Cu269   1.967   .     S
O266   C267    1.292   .     A
O266   Cu270   1.967   .     S
C267   C274    1.458   .     S
C268   C273    1.458   .     S
Cu269  Cu270   2.675   .     S
Cu269  N309    2.010   .     S
Cu270  N310    2.010   .     S
C271   C281    1.399   .     A
C271   C273    1.394   .     A
C271   H287    1.082   .     S
C272   H288    1.082   .     S
C272   C274    1.394   .     A
C272   C282    1.399   .     A
C273   C275    1.395   .     A
C274   C276    1.395   .     A
C275   H289    1.083   .     S
C275   C277    1.401   .     A
C276   H290    1.083   .     S
C276   C278    1.401   .     A
C277   C283    1.414   .     A
C277   C279    1.419   .     A
C278   C284    1.414   .     A
C278   C280    1.419   .     A
C279   C281    1.419   .     A
C279   C856    1.404   .     S
C280   C282    1.419   .     A
C280   C855    1.404   1_554 S
C281   C286    1.413   .     A
C282   C285    1.413   .     A
C283   C311    1.451   .     S
C283   C861    1.405   .     S
C284   C313    1.451   .     S
C284   C862    1.405   1_554 S
C285   N315    1.439   .     S
C285   C859    1.405   1_554 S
C286   N318    1.439   .     S
C286   C860    1.405   .     S
C291   H295    1.083   .     S
C291   C300    1.401   .     A
C292   H296    1.083   .     S
C292   C299    1.401   .     A
C292   C358    1.383   .     S
C293   C299    1.401   .     A
C293   H297    1.083   .     S
C293   C355    1.383   .     S
C294   C300    1.401   .     A
C294   H298    1.083   .     S
C301   H305    1.082   .     S
C301   N310    1.367   .     A
C302   H306    1.082   .     S
C302   N309    1.367   .     A
C302   C495    1.416   .     S
C303   N310    1.367   .     A
C303   H307    1.082   .     S
C304   H308    1.082   .     S
C304   N309    1.367   .     A
C304   C493    1.416   .     S
C311   N312    1.158   .     T
C313   N314    1.158   .     T
N315   O316    1.301   .     A
N315   O317    1.301   .     A
N318   O319    1.301   .     A
N318   O320    1.301   .     A
O321   C325    1.290   .     A
O321   Cu333   1.965   .     S
O322   C326    1.290   .     A
O322   Cu334   1.965   .     S
O323   Cu333   1.965   .     S
O323   C326    1.290   .     A
O324   Cu334   1.965   .     S
O324   C325    1.290   .     A
C325   C364    1.450   .     S
C326   C363    1.450   .     S
O327   Cu333   1.968   .     S
O327   C331    1.292   .     A
O328   C332    1.292   .     A
O328   Cu334   1.968   .     S
O329   C332    1.292   .     A
O329   Cu333   1.967   .     S
O330   C331    1.292   .     A
O330   Cu334   1.967   .     S
C331   C338    1.458   .     S
C332   C337    1.458   .     S
Cu333  Cu334   2.675   .     S
Cu333  N373    2.010   .     S
Cu334  N374    2.010   .     S
C335   C345    1.399   .     A
C335   C337    1.394   .     A
C335   H351    1.082   .     S
C336   H352    1.082   .     S
C336   C338    1.394   .     A
C336   C346    1.399   .     A
C337   C339    1.395   .     A
C338   C340    1.395   .     A
C339   H353    1.083   .     S
C339   C341    1.401   .     A
C340   H354    1.083   .     S
C340   C342    1.401   .     A
C341   C347    1.414   .     A
C341   C343    1.419   .     A
C342   C348    1.414   .     A
C342   C344    1.419   .     A
C343   C345    1.419   .     A
C343   C920    1.404   .     S
C344   C346    1.419   .     A
C344   C919    1.404   1_554 S
C345   C350    1.413   .     A
C346   C349    1.413   .     A
C347   C375    1.451   .     S
C347   C925    1.405   .     S
C348   C377    1.451   .     S
C348   C926    1.405   1_554 S
C349   N379    1.439   .     S
C349   C923    1.405   1_554 S
C350   N382    1.439   .     S
C350   C924    1.405   .     S
C355   H359    1.083   .     S
C355   C364    1.401   .     A
C356   H360    1.083   .     S
C356   C363    1.401   .     A
C356   C230    1.383   1_655 S
C357   C363    1.401   .     A
C357   H361    1.083   .     S
C357   C227    1.383   1_655 S
C358   C364    1.401   .     A
C358   H362    1.083   .     S
C365   H369    1.082   .     S
C365   N374    1.367   .     A
C366   H370    1.082   .     S
C366   N373    1.367   .     A
C366   C559    1.416   .     S
C367   N374    1.367   .     A
C367   H371    1.082   .     S
C368   H372    1.082   .     S
C368   N373    1.367   .     A
C368   C557    1.416   .     S
C375   N376    1.158   .     T
C377   N378    1.158   .     T
N379   O380    1.301   .     A
N379   O381    1.301   .     A
N382   O383    1.301   .     A
N382   O384    1.301   .     A
O385   C389    1.290   .     A
O385   Cu397   1.965   .     S
O386   C390    1.290   .     A
O386   Cu398   1.965   .     S
O387   Cu397   1.965   .     S
O387   C390    1.290   .     A
O388   Cu398   1.965   .     S
O388   C389    1.290   .     A
C389   C428    1.450   .     S
C390   C427    1.450   .     S
O391   Cu397   1.968   .     S
O391   C395    1.292   .     A
O392   C396    1.292   .     A
O392   Cu398   1.968   .     S
O393   C396    1.292   .     A
O393   Cu397   1.967   .     S
O394   C395    1.292   .     A
O394   Cu398   1.967   .     S
C395   C402    1.458   .     S
C396   C401    1.458   .     S
Cu397  Cu398   2.675   .     S
Cu397  N437    2.010   .     S
Cu398  N438    2.010   .     S
C399   C409    1.399   .     A
C399   C401    1.394   .     A
C399   H415    1.082   .     S
C400   H416    1.082   .     S
C400   C402    1.394   .     A
C400   C410    1.399   .     A
C401   C403    1.395   .     A
C402   C404    1.395   .     A
C403   H417    1.083   .     S
C403   C405    1.401   .     A
C404   H418    1.083   .     S
C404   C406    1.401   .     A
C405   C411    1.414   .     A
C405   C407    1.419   .     A
C406   C412    1.414   .     A
C406   C408    1.419   .     A
C407   C409    1.419   .     A
C407   C984    1.404   .     S
C408   C410    1.419   .     A
C408   C983    1.404   1_554 S
C409   C414    1.413   .     A
C410   C413    1.413   .     A
C411   C439    1.451   .     S
C411   C989    1.405   .     S
C412   C441    1.451   .     S
C412   C990    1.405   1_554 S
C413   N443    1.439   .     S
C413   C987    1.405   1_554 S
C414   N446    1.439   .     S
C414   C988    1.405   .     S
C419   H423    1.083   .     S
C419   C428    1.401   .     A
C419   C549    1.383   1_455 S
C420   H424    1.083   .     S
C420   C427    1.401   .     A
C420   C486    1.383   .     S
C421   C427    1.401   .     A
C421   H425    1.083   .     S
C421   C483    1.383   .     S
C422   C428    1.401   .     A
C422   H426    1.083   .     S
C422   C548    1.383   1_455 S
C429   H433    1.082   .     S
C429   N438    1.367   .     A
C430   H434    1.082   .     S
C430   N437    1.367   .     A
C430   C47     1.416   1_565 S
C431   N438    1.367   .     A
C431   H435    1.082   .     S
C432   H436    1.082   .     S
C432   N437    1.367   .     A
C432   C45     1.416   1_565 S
C439   N440    1.158   .     T
C441   N442    1.158   .     T
N443   O444    1.301   .     A
N443   O445    1.301   .     A
N446   O447    1.301   .     A
N446   O448    1.301   .     A
O449   C453    1.290   .     A
O449   Cu461   1.965   .     S
O450   C454    1.290   .     A
O450   Cu462   1.965   .     S
O451   Cu461   1.965   .     S
O451   C454    1.290   .     A
O452   Cu462   1.965   .     S
O452   C453    1.290   .     A
C453   C492    1.450   .     S
C454   C491    1.450   .     S
O455   Cu461   1.968   .     S
O455   C459    1.292   .     A
O456   C460    1.292   .     A
O456   Cu462   1.968   .     S
O457   C460    1.292   .     A
O457   Cu461   1.967   .     S
O458   C459    1.292   .     A
O458   Cu462   1.967   .     S
C459   C466    1.458   .     S
C460   C465    1.458   .     S
Cu461  Cu462   2.675   .     S
Cu461  N501    2.010   .     S
Cu462  N502    2.010   .     S
C463   C473    1.399   .     A
C463   C465    1.394   .     A
C463   H479    1.082   .     S
C464   H480    1.082   .     S
C464   C466    1.394   .     A
C464   C474    1.399   .     A
C465   C467    1.395   .     A
C466   C468    1.395   .     A
C467   H481    1.083   .     S
C467   C469    1.401   .     A
C468   H482    1.083   .     S
C468   C470    1.401   .     A
C469   C475    1.414   .     A
C469   C471    1.419   .     A
C470   C476    1.414   .     A
C470   C472    1.419   .     A
C471   C473    1.419   .     A
C471   C1048   1.404   .     S
C472   C474    1.419   .     A
C472   C1047   1.404   1_554 S
C473   C478    1.413   .     A
C474   C477    1.413   .     A
C475   C503    1.451   .     S
C475   C1053   1.405   .     S
C476   C505    1.451   .     S
C476   C1054   1.405   1_554 S
C477   N507    1.439   .     S
C477   C1051   1.405   1_554 S
C478   N510    1.439   .     S
C478   C1052   1.405   .     S
C483   H487    1.083   .     S
C483   C492    1.401   .     A
C484   H488    1.083   .     S
C484   C491    1.401   .     A
C484   C550    1.383   .     S
C485   C491    1.401   .     A
C485   H489    1.083   .     S
C485   C547    1.383   .     S
C486   C492    1.401   .     A
C486   H490    1.083   .     S
C493   H497    1.082   .     S
C493   N502    1.367   .     A
C494   H498    1.082   .     S
C494   N501    1.367   .     A
C494   C111    1.416   1_565 S
C495   N502    1.367   .     A
C495   H499    1.082   .     S
C496   H500    1.082   .     S
C496   N501    1.367   .     A
C496   C109    1.416   1_565 S
C503   N504    1.158   .     T
C505   N506    1.158   .     T
N507   O508    1.301   .     A
N507   O509    1.301   .     A
N510   O511    1.301   .     A
N510   O512    1.301   .     A
O513   C517    1.290   .     A
O513   Cu525   1.965   .     S
O514   C518    1.290   .     A
O514   Cu526   1.965   .     S
O515   Cu525   1.965   .     S
O515   C518    1.290   .     A
O516   Cu526   1.965   .     S
O516   C517    1.290   .     A
C517   C556    1.450   .     S
C518   C555    1.450   .     S
O519   Cu525   1.968   .     S
O519   C523    1.292   .     A
O520   C524    1.292   .     A
O520   Cu526   1.968   .     S
O521   C524    1.292   .     A
O521   Cu525   1.967   .     S
O522   C523    1.292   .     A
O522   Cu526   1.967   .     S
C523   C530    1.458   .     S
C524   C529    1.458   .     S
Cu525  Cu526   2.675   .     S
Cu525  N565    2.010   .     S
Cu526  N566    2.010   .     S
C527   C537    1.399   .     A
C527   C529    1.394   .     A
C527   H543    1.082   .     S
C528   H544    1.082   .     S
C528   C530    1.394   .     A
C528   C538    1.399   .     A
C529   C531    1.395   .     A
C530   C532    1.395   .     A
C531   H545    1.083   .     S
C531   C533    1.401   .     A
C532   H546    1.083   .     S
C532   C534    1.401   .     A
C533   C539    1.414   .     A
C533   C535    1.419   .     A
C534   C540    1.414   .     A
C534   C536    1.419   .     A
C535   C537    1.419   .     A
C535   C1112   1.404   .     S
C536   C538    1.419   .     A
C536   C1111   1.404   1_554 S
C537   C542    1.413   .     A
C538   C541    1.413   .     A
C539   C567    1.451   .     S
C539   C1117   1.405   .     S
C540   C569    1.451   .     S
C540   C1118   1.405   1_554 S
C541   N571    1.439   .     S
C541   C1115   1.405   1_554 S
C542   N574    1.439   .     S
C542   C1116   1.405   .     S
C547   H551    1.083   .     S
C547   C556    1.401   .     A
C548   H552    1.083   .     S
C548   C555    1.401   .     A
C548   C422    1.383   1_655 S
C549   C555    1.401   .     A
C549   H553    1.083   .     S
C549   C419    1.383   1_655 S
C550   C556    1.401   .     A
C550   H554    1.083   .     S
C557   H561    1.082   .     S
C557   N566    1.367   .     A
C558   H562    1.082   .     S
C558   N565    1.367   .     A
C558   C175    1.416   1_565 S
C559   N566    1.367   .     A
C559   H563    1.082   .     S
C560   H564    1.082   .     S
C560   N565    1.367   .     A
C560   C173    1.416   1_565 S
C567   N568    1.158   .     T
C569   N570    1.158   .     T
N571   O572    1.301   .     A
N571   O573    1.301   .     A
N574   O575    1.301   .     A
N574   O576    1.301   .     A
O577   C581    1.290   .     A
O577   Cu589   1.965   .     S
O578   C582    1.290   .     A
O578   Cu590   1.965   .     S
O579   Cu589   1.965   .     S
O579   C582    1.290   .     A
O580   Cu590   1.965   .     S
O580   C581    1.290   .     A
C581   C620    1.450   .     S
C582   C619    1.450   .     S
O583   Cu589   1.968   .     S
O583   C587    1.292   .     A
O584   C588    1.292   .     A
O584   Cu590   1.968   .     S
O585   C588    1.292   .     A
O585   Cu589   1.967   .     S
O586   C587    1.292   .     A
O586   Cu590   1.967   .     S
C587   C594    1.458   .     S
C588   C593    1.458   .     S
Cu589  Cu590   2.675   .     S
Cu589  N629    2.010   .     S
Cu590  N630    2.010   .     S
C591   C601    1.399   .     A
C591   C593    1.394   .     A
C591   H607    1.082   .     S
C592   H608    1.082   .     S
C592   C594    1.394   .     A
C592   C602    1.399   .     A
C593   C595    1.395   .     A
C594   C596    1.395   .     A
C595   H609    1.083   .     S
C595   C597    1.401   .     A
C596   H610    1.083   .     S
C596   C598    1.401   .     A
C597   C603    1.414   .     A
C597   C599    1.419   .     A
C598   C604    1.414   .     A
C598   C600    1.419   .     A
C599   C601    1.419   .     A
C599   C24     1.404   1_556 S
C600   C602    1.419   .     A
C601   C606    1.413   .     A
C602   C605    1.413   .     A
C603   C631    1.451   .     S
C603   C29     1.405   1_556 S
C604   C633    1.451   .     S
C605   N635    1.439   .     S
C606   N638    1.439   .     S
C606   C28     1.405   1_556 S
C611   H615    1.083   .     S
C611   C620    1.401   .     A
C611   C741    1.383   1_455 S
C612   H616    1.083   .     S
C612   C619    1.401   .     A
C612   C678    1.383   .     S
C613   C619    1.401   .     A
C613   H617    1.083   .     S
C613   C675    1.383   .     S
C614   C620    1.401   .     A
C614   H618    1.083   .     S
C614   C740    1.383   1_455 S
C621   H625    1.082   .     S
C621   N630    1.367   .     A
C621   C1008   1.416   1_545 S
C622   H626    1.082   .     S
C622   N629    1.367   .     A
C622   C815    1.416   .     S
C623   N630    1.367   .     A
C623   H627    1.082   .     S
C623   C1006   1.416   1_545 S
C624   H628    1.082   .     S
C624   N629    1.367   .     A
C624   C813    1.416   .     S
C631   N632    1.158   .     T
C633   N634    1.158   .     T
N635   O636    1.301   .     A
N635   O637    1.301   .     A
N638   O639    1.301   .     A
N638   O640    1.301   .     A
O641   C645    1.290   .     A
O641   Cu653   1.965   .     S
O642   C646    1.290   .     A
O642   Cu654   1.965   .     S
O643   Cu653   1.965   .     S
O643   C646    1.290   .     A
O644   Cu654   1.965   .     S
O644   C645    1.290   .     A
C645   C684    1.450   .     S
C646   C683    1.450   .     S
O647   Cu653   1.968   .     S
O647   C651    1.292   .     A
O648   C652    1.292   .     A
O648   Cu654   1.968   .     S
O649   C652    1.292   .     A
O649   Cu653   1.967   .     S
O650   C651    1.292   .     A
O650   Cu654   1.967   .     S
C651   C658    1.458   .     S
C652   C657    1.458   .     S
Cu653  Cu654   2.675   .     S
Cu653  N693    2.010   .     S
Cu654  N694    2.010   .     S
C655   C665    1.399   .     A
C655   C657    1.394   .     A
C655   H671    1.082   .     S
C656   H672    1.082   .     S
C656   C658    1.394   .     A
C656   C666    1.399   .     A
C657   C659    1.395   .     A
C658   C660    1.395   .     A
C659   H673    1.083   .     S
C659   C661    1.401   .     A
C660   H674    1.083   .     S
C660   C662    1.401   .     A
C661   C667    1.414   .     A
C661   C663    1.419   .     A
C662   C668    1.414   .     A
C662   C664    1.419   .     A
C663   C665    1.419   .     A
C663   C88     1.404   1_556 S
C664   C666    1.419   .     A
C665   C670    1.413   .     A
C666   C669    1.413   .     A
C667   C695    1.451   .     S
C667   C93     1.405   1_556 S
C668   C697    1.451   .     S
C669   N699    1.439   .     S
C670   N702    1.439   .     S
C670   C92     1.405   1_556 S
C675   H679    1.083   .     S
C675   C684    1.401   .     A
C676   H680    1.083   .     S
C676   C683    1.401   .     A
C676   C742    1.383   .     S
C677   C683    1.401   .     A
C677   H681    1.083   .     S
C677   C739    1.383   .     S
C678   C684    1.401   .     A
C678   H682    1.083   .     S
C685   H689    1.082   .     S
C685   N694    1.367   .     A
C685   C1072   1.416   1_545 S
C686   H690    1.082   .     S
C686   N693    1.367   .     A
C686   C879    1.416   .     S
C687   N694    1.367   .     A
C687   H691    1.082   .     S
C687   C1070   1.416   1_545 S
C688   H692    1.082   .     S
C688   N693    1.367   .     A
C688   C877    1.416   .     S
C695   N696    1.158   .     T
C697   N698    1.158   .     T
N699   O700    1.301   .     A
N699   O701    1.301   .     A
N702   O703    1.301   .     A
N702   O704    1.301   .     A
O705   C709    1.290   .     A
O705   Cu717   1.965   .     S
O706   C710    1.290   .     A
O706   Cu718   1.965   .     S
O707   Cu717   1.965   .     S
O707   C710    1.290   .     A
O708   Cu718   1.965   .     S
O708   C709    1.290   .     A
C709   C748    1.450   .     S
C710   C747    1.450   .     S
O711   Cu717   1.968   .     S
O711   C715    1.292   .     A
O712   C716    1.292   .     A
O712   Cu718   1.968   .     S
O713   C716    1.292   .     A
O713   Cu717   1.967   .     S
O714   C715    1.292   .     A
O714   Cu718   1.967   .     S
C715   C722    1.458   .     S
C716   C721    1.458   .     S
Cu717  Cu718   2.675   .     S
Cu717  N757    2.010   .     S
Cu718  N758    2.010   .     S
C719   C729    1.399   .     A
C719   C721    1.394   .     A
C719   H735    1.082   .     S
C720   H736    1.082   .     S
C720   C722    1.394   .     A
C720   C730    1.399   .     A
C721   C723    1.395   .     A
C722   C724    1.395   .     A
C723   H737    1.083   .     S
C723   C725    1.401   .     A
C724   H738    1.083   .     S
C724   C726    1.401   .     A
C725   C731    1.414   .     A
C725   C727    1.419   .     A
C726   C732    1.414   .     A
C726   C728    1.419   .     A
C727   C729    1.419   .     A
C727   C152    1.404   1_556 S
C728   C730    1.419   .     A
C729   C734    1.413   .     A
C730   C733    1.413   .     A
C731   C759    1.451   .     S
C731   C157    1.405   1_556 S
C732   C761    1.451   .     S
C733   N763    1.439   .     S
C734   N766    1.439   .     S
C734   C156    1.405   1_556 S
C739   H743    1.083   .     S
C739   C748    1.401   .     A
C740   H744    1.083   .     S
C740   C747    1.401   .     A
C740   C614    1.383   1_655 S
C741   C747    1.401   .     A
C741   H745    1.083   .     S
C741   C611    1.383   1_655 S
C742   C748    1.401   .     A
C742   H746    1.083   .     S
C749   H753    1.082   .     S
C749   N758    1.367   .     A
C749   C1136   1.416   1_545 S
C750   H754    1.082   .     S
C750   N757    1.367   .     A
C750   C943    1.416   .     S
C751   N758    1.367   .     A
C751   H755    1.082   .     S
C751   C1134   1.416   1_545 S
C752   H756    1.082   .     S
C752   N757    1.367   .     A
C752   C941    1.416   .     S
C759   N760    1.158   .     T
C761   N762    1.158   .     T
N763   O764    1.301   .     A
N763   O765    1.301   .     A
N766   O767    1.301   .     A
N766   O768    1.301   .     A
O769   C773    1.290   .     A
O769   Cu781   1.965   .     S
O770   C774    1.290   .     A
O770   Cu782   1.965   .     S
O771   Cu781   1.965   .     S
O771   C774    1.290   .     A
O772   Cu782   1.965   .     S
O772   C773    1.290   .     A
C773   C812    1.450   .     S
C774   C811    1.450   .     S
O775   Cu781   1.968   .     S
O775   C779    1.292   .     A
O776   C780    1.292   .     A
O776   Cu782   1.968   .     S
O777   C780    1.292   .     A
O777   Cu781   1.967   .     S
O778   C779    1.292   .     A
O778   Cu782   1.967   .     S
C779   C786    1.458   .     S
C780   C785    1.458   .     S
Cu781  Cu782   2.675   .     S
Cu781  N821    2.010   .     S
Cu782  N822    2.010   .     S
C783   C793    1.399   .     A
C783   C785    1.394   .     A
C783   H799    1.082   .     S
C784   H800    1.082   .     S
C784   C786    1.394   .     A
C784   C794    1.399   .     A
C785   C787    1.395   .     A
C786   C788    1.395   .     A
C787   H801    1.083   .     S
C787   C789    1.401   .     A
C788   H802    1.083   .     S
C788   C790    1.401   .     A
C789   C795    1.414   .     A
C789   C791    1.419   .     A
C790   C796    1.414   .     A
C790   C792    1.419   .     A
C791   C793    1.419   .     A
C791   C216    1.404   1_556 S
C792   C794    1.419   .     A
C793   C798    1.413   .     A
C794   C797    1.413   .     A
C795   C823    1.451   .     S
C795   C221    1.405   1_556 S
C796   C825    1.451   .     S
C797   N827    1.439   .     S
C798   N830    1.439   .     S
C798   C220    1.405   1_556 S
C803   H807    1.083   .     S
C803   C812    1.401   .     A
C803   C933    1.383   1_455 S
C804   H808    1.083   .     S
C804   C811    1.401   .     A
C804   C870    1.383   .     S
C805   C811    1.401   .     A
C805   H809    1.083   .     S
C805   C867    1.383   .     S
C806   C812    1.401   .     A
C806   H810    1.083   .     S
C806   C932    1.383   1_455 S
C813   H817    1.082   .     S
C813   N822    1.367   .     A
C814   H818    1.082   .     S
C814   N821    1.367   .     A
C814   C1007   1.416   .     S
C815   N822    1.367   .     A
C815   H819    1.082   .     S
C816   H820    1.082   .     S
C816   N821    1.367   .     A
C816   C1005   1.416   .     S
C823   N824    1.158   .     T
C825   N826    1.158   .     T
N827   O828    1.301   .     A
N827   O829    1.301   .     A
N830   O831    1.301   .     A
N830   O832    1.301   .     A
O833   C837    1.290   .     A
O833   Cu845   1.965   .     S
O834   C838    1.290   .     A
O834   Cu846   1.965   .     S
O835   Cu845   1.965   .     S
O835   C838    1.290   .     A
O836   Cu846   1.965   .     S
O836   C837    1.290   .     A
C837   C876    1.450   .     S
C838   C875    1.450   .     S
O839   Cu845   1.968   .     S
O839   C843    1.292   .     A
O840   C844    1.292   .     A
O840   Cu846   1.968   .     S
O841   C844    1.292   .     A
O841   Cu845   1.967   .     S
O842   C843    1.292   .     A
O842   Cu846   1.967   .     S
C843   C850    1.458   .     S
C844   C849    1.458   .     S
Cu845  Cu846   2.675   .     S
Cu845  N885    2.010   .     S
Cu846  N886    2.010   .     S
C847   C857    1.399   .     A
C847   C849    1.394   .     A
C847   H863    1.082   .     S
C848   H864    1.082   .     S
C848   C850    1.394   .     A
C848   C858    1.399   .     A
C849   C851    1.395   .     A
C850   C852    1.395   .     A
C851   H865    1.083   .     S
C851   C853    1.401   .     A
C852   H866    1.083   .     S
C852   C854    1.401   .     A
C853   C859    1.414   .     A
C853   C855    1.419   .     A
C854   C860    1.414   .     A
C854   C856    1.419   .     A
C855   C857    1.419   .     A
C855   C280    1.404   1_556 S
C856   C858    1.419   .     A
C857   C862    1.413   .     A
C858   C861    1.413   .     A
C859   C887    1.451   .     S
C859   C285    1.405   1_556 S
C860   C889    1.451   .     S
C861   N891    1.439   .     S
C862   N894    1.439   .     S
C862   C284    1.405   1_556 S
C867   H871    1.083   .     S
C867   C876    1.401   .     A
C868   H872    1.083   .     S
C868   C875    1.401   .     A
C868   C934    1.383   .     S
C869   C875    1.401   .     A
C869   H873    1.083   .     S
C869   C931    1.383   .     S
C870   C876    1.401   .     A
C870   H874    1.083   .     S
C877   H881    1.082   .     S
C877   N886    1.367   .     A
C878   H882    1.082   .     S
C878   N885    1.367   .     A
C878   C1071   1.416   .     S
C879   N886    1.367   .     A
C879   H883    1.082   .     S
C880   H884    1.082   .     S
C880   N885    1.367   .     A
C880   C1069   1.416   .     S
C887   N888    1.158   .     T
C889   N890    1.158   .     T
N891   O892    1.301   .     A
N891   O893    1.301   .     A
N894   O895    1.301   .     A
N894   O896    1.301   .     A
O897   C901    1.290   .     A
O897   Cu909   1.965   .     S
O898   C902    1.290   .     A
O898   Cu910   1.965   .     S
O899   Cu909   1.965   .     S
O899   C902    1.290   .     A
O900   Cu910   1.965   .     S
O900   C901    1.290   .     A
C901   C940    1.450   .     S
C902   C939    1.450   .     S
O903   Cu909   1.968   .     S
O903   C907    1.292   .     A
O904   C908    1.292   .     A
O904   Cu910   1.968   .     S
O905   C908    1.292   .     A
O905   Cu909   1.967   .     S
O906   C907    1.292   .     A
O906   Cu910   1.967   .     S
C907   C914    1.458   .     S
C908   C913    1.458   .     S
Cu909  Cu910   2.675   .     S
Cu909  N949    2.010   .     S
Cu910  N950    2.010   .     S
C911   C921    1.399   .     A
C911   C913    1.394   .     A
C911   H927    1.082   .     S
C912   H928    1.082   .     S
C912   C914    1.394   .     A
C912   C922    1.399   .     A
C913   C915    1.395   .     A
C914   C916    1.395   .     A
C915   H929    1.083   .     S
C915   C917    1.401   .     A
C916   H930    1.083   .     S
C916   C918    1.401   .     A
C917   C923    1.414   .     A
C917   C919    1.419   .     A
C918   C924    1.414   .     A
C918   C920    1.419   .     A
C919   C921    1.419   .     A
C919   C344    1.404   1_556 S
C920   C922    1.419   .     A
C921   C926    1.413   .     A
C922   C925    1.413   .     A
C923   C951    1.451   .     S
C923   C349    1.405   1_556 S
C924   C953    1.451   .     S
C925   N955    1.439   .     S
C926   N958    1.439   .     S
C926   C348    1.405   1_556 S
C931   H935    1.083   .     S
C931   C940    1.401   .     A
C932   H936    1.083   .     S
C932   C939    1.401   .     A
C932   C806    1.383   1_655 S
C933   C939    1.401   .     A
C933   H937    1.083   .     S
C933   C803    1.383   1_655 S
C934   C940    1.401   .     A
C934   H938    1.083   .     S
C941   H945    1.082   .     S
C941   N950    1.367   .     A
C942   H946    1.082   .     S
C942   N949    1.367   .     A
C942   C1135   1.416   .     S
C943   N950    1.367   .     A
C943   H947    1.082   .     S
C944   H948    1.082   .     S
C944   N949    1.367   .     A
C944   C1133   1.416   .     S
C951   N952    1.158   .     T
C953   N954    1.158   .     T
N955   O956    1.301   .     A
N955   O957    1.301   .     A
N958   O959    1.301   .     A
N958   O960    1.301   .     A
O961   C965    1.290   .     A
O961   Cu973   1.965   .     S
O962   C966    1.290   .     A
O962   Cu974   1.965   .     S
O963   Cu973   1.965   .     S
O963   C966    1.290   .     A
O964   Cu974   1.965   .     S
O964   C965    1.290   .     A
C965   C1004   1.450   .     S
C966   C1003   1.450   .     S
O967   Cu973   1.968   .     S
O967   C971    1.292   .     A
O968   C972    1.292   .     A
O968   Cu974   1.968   .     S
O969   C972    1.292   .     A
O969   Cu973   1.967   .     S
O970   C971    1.292   .     A
O970   Cu974   1.967   .     S
C971   C978    1.458   .     S
C972   C977    1.458   .     S
Cu973  Cu974   2.675   .     S
Cu973  N1013   2.010   .     S
Cu974  N1014   2.010   .     S
C975   C985    1.399   .     A
C975   C977    1.394   .     A
C975   H991    1.082   .     S
C976   H992    1.082   .     S
C976   C978    1.394   .     A
C976   C986    1.399   .     A
C977   C979    1.395   .     A
C978   C980    1.395   .     A
C979   H993    1.083   .     S
C979   C981    1.401   .     A
C980   H994    1.083   .     S
C980   C982    1.401   .     A
C981   C987    1.414   .     A
C981   C983    1.419   .     A
C982   C988    1.414   .     A
C982   C984    1.419   .     A
C983   C985    1.419   .     A
C983   C408    1.404   1_556 S
C984   C986    1.419   .     A
C985   C990    1.413   .     A
C986   C989    1.413   .     A
C987   C1015   1.451   .     S
C987   C413    1.405   1_556 S
C988   C1017   1.451   .     S
C989   N1019   1.439   .     S
C990   N1022   1.439   .     S
C990   C412    1.405   1_556 S
C995   H999    1.083   .     S
C995   C1004   1.401   .     A
C995   C1125   1.383   1_455 S
C996   H1000   1.083   .     S
C996   C1003   1.401   .     A
C996   C1062   1.383   .     S
C997   C1003   1.401   .     A
C997   H1001   1.083   .     S
C997   C1059   1.383   .     S
C998   C1004   1.401   .     A
C998   H1002   1.083   .     S
C998   C1124   1.383   1_455 S
C1005  H1009   1.082   .     S
C1005  N1014   1.367   .     A
C1006  H1010   1.082   .     S
C1006  N1013   1.367   .     A
C1006  C623    1.416   1_565 S
C1007  N1014   1.367   .     A
C1007  H1011   1.082   .     S
C1008  H1012   1.082   .     S
C1008  N1013   1.367   .     A
C1008  C621    1.416   1_565 S
C1015  N1016   1.158   .     T
C1017  N1018   1.158   .     T
N1019  O1020   1.301   .     A
N1019  O1021   1.301   .     A
N1022  O1023   1.301   .     A
N1022  O1024   1.301   .     A
O1025  C1029   1.290   .     A
O1025  Cu1037  1.965   .     S
O1026  C1030   1.290   .     A
O1026  Cu1038  1.965   .     S
O1027  Cu1037  1.965   .     S
O1027  C1030   1.290   .     A
O1028  Cu1038  1.965   .     S
O1028  C1029   1.290   .     A
C1029  C1068   1.450   .     S
C1030  C1067   1.450   .     S
O1031  Cu1037  1.968   .     S
O1031  C1035   1.292   .     A
O1032  C1036   1.292   .     A
O1032  Cu1038  1.968   .     S
O1033  C1036   1.292   .     A
O1033  Cu1037  1.967   .     S
O1034  C1035   1.292   .     A
O1034  Cu1038  1.967   .     S
C1035  C1042   1.458   .     S
C1036  C1041   1.458   .     S
Cu1037 Cu1038  2.675   .     S
Cu1037 N1077   2.010   .     S
Cu1038 N1078   2.010   .     S
C1039  C1049   1.399   .     A
C1039  C1041   1.394   .     A
C1039  H1055   1.082   .     S
C1040  H1056   1.082   .     S
C1040  C1042   1.394   .     A
C1040  C1050   1.399   .     A
C1041  C1043   1.395   .     A
C1042  C1044   1.395   .     A
C1043  H1057   1.083   .     S
C1043  C1045   1.401   .     A
C1044  H1058   1.083   .     S
C1044  C1046   1.401   .     A
C1045  C1051   1.414   .     A
C1045  C1047   1.419   .     A
C1046  C1052   1.414   .     A
C1046  C1048   1.419   .     A
C1047  C1049   1.419   .     A
C1047  C472    1.404   1_556 S
C1048  C1050   1.419   .     A
C1049  C1054   1.413   .     A
C1050  C1053   1.413   .     A
C1051  C1079   1.451   .     S
C1051  C477    1.405   1_556 S
C1052  C1081   1.451   .     S
C1053  N1083   1.439   .     S
C1054  N1086   1.439   .     S
C1054  C476    1.405   1_556 S
C1059  H1063   1.083   .     S
C1059  C1068   1.401   .     A
C1060  H1064   1.083   .     S
C1060  C1067   1.401   .     A
C1060  C1126   1.383   .     S
C1061  C1067   1.401   .     A
C1061  H1065   1.083   .     S
C1061  C1123   1.383   .     S
C1062  C1068   1.401   .     A
C1062  H1066   1.083   .     S
C1069  H1073   1.082   .     S
C1069  N1078   1.367   .     A
C1070  H1074   1.082   .     S
C1070  N1077   1.367   .     A
C1070  C687    1.416   1_565 S
C1071  N1078   1.367   .     A
C1071  H1075   1.082   .     S
C1072  H1076   1.082   .     S
C1072  N1077   1.367   .     A
C1072  C685    1.416   1_565 S
C1079  N1080   1.158   .     T
C1081  N1082   1.158   .     T
N1083  O1084   1.301   .     A
N1083  O1085   1.301   .     A
N1086  O1087   1.301   .     A
N1086  O1088   1.301   .     A
O1089  C1093   1.290   .     A
O1089  Cu1101  1.965   .     S
O1090  C1094   1.290   .     A
O1090  Cu1102  1.965   .     S
O1091  Cu1101  1.965   .     S
O1091  C1094   1.290   .     A
O1092  Cu1102  1.965   .     S
O1092  C1093   1.290   .     A
C1093  C1132   1.450   .     S
C1094  C1131   1.450   .     S
O1095  Cu1101  1.968   .     S
O1095  C1099   1.292   .     A
O1096  C1100   1.292   .     A
O1096  Cu1102  1.968   .     S
O1097  C1100   1.292   .     A
O1097  Cu1101  1.967   .     S
O1098  C1099   1.292   .     A
O1098  Cu1102  1.967   .     S
C1099  C1106   1.458   .     S
C1100  C1105   1.458   .     S
Cu1101 Cu1102  2.675   .     S
Cu1101 N1141   2.010   .     S
Cu1102 N1142   2.010   .     S
C1103  C1113   1.399   .     A
C1103  C1105   1.394   .     A
C1103  H1119   1.082   .     S
C1104  H1120   1.082   .     S
C1104  C1106   1.394   .     A
C1104  C1114   1.399   .     A
C1105  C1107   1.395   .     A
C1106  C1108   1.395   .     A
C1107  H1121   1.083   .     S
C1107  C1109   1.401   .     A
C1108  H1122   1.083   .     S
C1108  C1110   1.401   .     A
C1109  C1115   1.414   .     A
C1109  C1111   1.419   .     A
C1110  C1116   1.414   .     A
C1110  C1112   1.419   .     A
C1111  C1113   1.419   .     A
C1111  C536    1.404   1_556 S
C1112  C1114   1.419   .     A
C1113  C1118   1.413   .     A
C1114  C1117   1.413   .     A
C1115  C1143   1.451   .     S
C1115  C541    1.405   1_556 S
C1116  C1145   1.451   .     S
C1117  N1147   1.439   .     S
C1118  N1150   1.439   .     S
C1118  C540    1.405   1_556 S
C1123  H1127   1.083   .     S
C1123  C1132   1.401   .     A
C1124  H1128   1.083   .     S
C1124  C1131   1.401   .     A
C1124  C998    1.383   1_655 S
C1125  C1131   1.401   .     A
C1125  H1129   1.083   .     S
C1125  C995    1.383   1_655 S
C1126  C1132   1.401   .     A
C1126  H1130   1.083   .     S
C1133  H1137   1.082   .     S
C1133  N1142   1.367   .     A
C1134  H1138   1.082   .     S
C1134  N1141   1.367   .     A
C1134  C751    1.416   1_565 S
C1135  N1142   1.367   .     A
C1135  H1139   1.082   .     S
C1136  H1140   1.082   .     S
C1136  N1141   1.367   .     A
C1136  C749    1.416   1_565 S
C1143  N1144   1.158   .     T
C1145  N1146   1.158   .     T
N1147  O1148   1.301   .     A
N1147  O1149   1.301   .     A
N1150  O1151   1.301   .     A
N1150  O1152   1.301   .     A
