data_str_m2_o1_o17_pcu_sym.3
_audit_creation_date              2020-01-03
_audit_creation_method            'Materials Studio'
_symmetry_space_group_name_H-M    'P1'
_symmetry_Int_Tables_number       1
_symmetry_cell_setting            triclinic
loop_
_symmetry_equiv_pos_as_xyz
  x,y,z
_cell_length_a                    32.5053
_cell_length_b                    28.5211
_cell_length_c                    30.1711
_cell_angle_alpha                 90.0000
_cell_angle_beta                  90.1690
_cell_angle_gamma                 90.0001
loop_
_atom_site_label
_atom_site_type_symbol
_atom_site_fract_x
_atom_site_fract_y
_atom_site_fract_z
_atom_site_U_iso_or_equiv
_atom_site_adp_type
_atom_site_occupancy
C1     C     0.08734   0.16667   0.24996   0.00000  Uiso   1.00
C2     C     0.04273   0.16667   0.24996   0.00000  Uiso   1.00
C3     C     0.14124   0.02482   0.22225   0.00000  Uiso   1.00
C4     C     0.19209   0.30851   0.27775   0.00000  Uiso   1.00
C5     C     0.19209   0.02482   0.27775   0.00000  Uiso   1.00
C6     C     0.14124   0.30851   0.22225   0.00000  Uiso   1.00
C7     C     0.16661   0.16667   0.16425   0.00000  Uiso   1.00
C8     C     0.16672   0.16667   0.33575   0.00000  Uiso   1.00
C9     C     0.16679   0.12401   0.40738   0.00000  Uiso   1.00
C10    C     0.16655   0.20932   0.09262   0.00000  Uiso   1.00
C11    C     0.16677   0.16667   0.38419   0.00000  Uiso   1.00
C12    C     0.24599   0.16667   0.25003   0.00000  Uiso   1.00
C13    C     0.16656   0.16667   0.11581   0.00000  Uiso   1.00
C14    C     0.16677   0.20932   0.40738   0.00000  Uiso   1.00
C15    C     0.16656   0.12401   0.09262   0.00000  Uiso   1.00
C16    C     0.16673   0.20962   0.45356   0.00000  Uiso   1.00
C17    C     0.16661   0.12371   0.04644   0.00000  Uiso   1.00
C18    C     0.16670   0.16667   0.47677   0.00000  Uiso   1.00
C19    C     0.16663   0.16667   0.02323   0.00000  Uiso   1.00
C20    C     0.16674   0.12371   0.45356   0.00000  Uiso   1.00
C21    C     0.16659   0.20962   0.04644   0.00000  Uiso   1.00
C22    C     0.16669   0.25213   0.47689   0.00000  Uiso   1.00
C23    C     0.16662   0.25213   0.02310   0.00000  Uiso   1.00
C24    C     0.16665   0.08121   0.02311   0.00000  Uiso   1.00
C25    C     0.16672   0.08120   0.47690   0.00000  Uiso   1.00
C26    C     0.02128   0.12406   0.24997   0.00000  Uiso   1.00
C27    C     0.31205   0.20928   0.25003   0.00000  Uiso   1.00
C28    C     0.31205   0.12406   0.25003   0.00000  Uiso   1.00
C29    C     0.02128   0.20928   0.24997   0.00000  Uiso   1.00
C30    C     0.29060   0.16667   0.25004   0.00000  Uiso   1.00
Cu31   Cu    0.16667   0.21355   0.25000   0.00000  Uiso   1.00
Cu32   Cu    0.16667   0.11978   0.25000   0.00000  Uiso   1.00
H33    H     0.16681   0.09099   0.38956   0.00000  Uiso   1.00
H34    H     0.29604   0.24259   0.25005   0.00000  Uiso   1.00
H35    H     0.29604   0.09075   0.25005   0.00000  Uiso   1.00
H36    H     0.03729   0.24259   0.24995   0.00000  Uiso   1.00
H37    H     0.12089   0.04356   0.20003   0.00000  Uiso   1.00
H38    H     0.21245   0.28977   0.29997   0.00000  Uiso   1.00
H39    H     0.21245   0.04356   0.29997   0.00000  Uiso   1.00
H40    H     0.12089   0.28977   0.20003   0.00000  Uiso   1.00
H41    H     0.16652   0.24234   0.11044   0.00000  Uiso   1.00
H42    H     0.16679   0.24234   0.38956   0.00000  Uiso   1.00
H43    H     0.16654   0.09099   0.11044   0.00000  Uiso   1.00
H44    H     0.16671   0.28532   0.45942   0.00000  Uiso   1.00
H45    H     0.16663   0.04801   0.04058   0.00000  Uiso   1.00
H46    H     0.16659   0.28532   0.04058   0.00000  Uiso   1.00
H47    H     0.16674   0.04801   0.45942   0.00000  Uiso   1.00
H48    H     0.03729   0.09075   0.24995   0.00000  Uiso   1.00
N49    N     0.16667   0.28402   0.25000   0.00000  Uiso   1.00
N50    N     0.16667   0.04931   0.25000   0.00000  Uiso   1.00
O51    O     0.10655   0.20625   0.24999   0.00000  Uiso   1.00
O52    O     0.22679   0.12709   0.25000   0.00000  Uiso   1.00
O53    O     0.22679   0.20625   0.25000   0.00000  Uiso   1.00
O54    O     0.10655   0.12709   0.24999   0.00000  Uiso   1.00
O55    O     0.16666   0.20627   0.18513   0.00000  Uiso   1.00
O56    O     0.16668   0.12707   0.31487   0.00000  Uiso   1.00
O57    O     0.16668   0.20627   0.31487   0.00000  Uiso   1.00
O58    O     0.16666   0.12707   0.18513   0.00000  Uiso   1.00
C59    C     0.42067   0.16667   0.24996   0.00000  Uiso   1.00
C60    C     0.37607   0.16667   0.24996   0.00000  Uiso   1.00
C61    C     0.47458   0.02482   0.22225   0.00000  Uiso   1.00
C62    C     0.52542   0.30851   0.27775   0.00000  Uiso   1.00
C63    C     0.52542   0.02482   0.27775   0.00000  Uiso   1.00
C64    C     0.47458   0.30851   0.22225   0.00000  Uiso   1.00
C65    C     0.49994   0.16667   0.16425   0.00000  Uiso   1.00
C66    C     0.50006   0.16667   0.33575   0.00000  Uiso   1.00
C67    C     0.50012   0.12401   0.40738   0.00000  Uiso   1.00
C68    C     0.49988   0.20932   0.09262   0.00000  Uiso   1.00
C69    C     0.50010   0.16667   0.38419   0.00000  Uiso   1.00
C70    C     0.57933   0.16667   0.25003   0.00000  Uiso   1.00
C71    C     0.49990   0.16667   0.11581   0.00000  Uiso   1.00
C72    C     0.50011   0.20932   0.40738   0.00000  Uiso   1.00
C73    C     0.49989   0.12401   0.09262   0.00000  Uiso   1.00
C74    C     0.50006   0.20962   0.45356   0.00000  Uiso   1.00
C75    C     0.49994   0.12371   0.04644   0.00000  Uiso   1.00
C76    C     0.50003   0.16667   0.47677   0.00000  Uiso   1.00
C77    C     0.49997   0.16667   0.02323   0.00000  Uiso   1.00
C78    C     0.50007   0.12371   0.45356   0.00000  Uiso   1.00
C79    C     0.49993   0.20962   0.04644   0.00000  Uiso   1.00
C80    C     0.50002   0.25213   0.47689   0.00000  Uiso   1.00
C81    C     0.49995   0.25213   0.02310   0.00000  Uiso   1.00
C82    C     0.49998   0.08121   0.02311   0.00000  Uiso   1.00
C83    C     0.50005   0.08120   0.47690   0.00000  Uiso   1.00
C84    C     0.35461   0.12406   0.24997   0.00000  Uiso   1.00
C85    C     0.64539   0.20928   0.25003   0.00000  Uiso   1.00
C86    C     0.64539   0.12406   0.25003   0.00000  Uiso   1.00
C87    C     0.35461   0.20928   0.24997   0.00000  Uiso   1.00
C88    C     0.62393   0.16667   0.25004   0.00000  Uiso   1.00
Cu89   Cu    0.50000   0.21355   0.25000   0.00000  Uiso   1.00
Cu90   Cu    0.50000   0.11978   0.25000   0.00000  Uiso   1.00
H91    H     0.50015   0.09099   0.38956   0.00000  Uiso   1.00
H92    H     0.62938   0.24259   0.25005   0.00000  Uiso   1.00
H93    H     0.62938   0.09075   0.25005   0.00000  Uiso   1.00
H94    H     0.37062   0.24259   0.24995   0.00000  Uiso   1.00
H95    H     0.45422   0.04356   0.20003   0.00000  Uiso   1.00
H96    H     0.54578   0.28977   0.29997   0.00000  Uiso   1.00
H97    H     0.54578   0.04356   0.29997   0.00000  Uiso   1.00
H98    H     0.45422   0.28977   0.20003   0.00000  Uiso   1.00
H99    H     0.49985   0.24234   0.11044   0.00000  Uiso   1.00
H100   H     0.50012   0.24234   0.38956   0.00000  Uiso   1.00
H101   H     0.49988   0.09099   0.11044   0.00000  Uiso   1.00
H102   H     0.50004   0.28532   0.45942   0.00000  Uiso   1.00
H103   H     0.49996   0.04801   0.04058   0.00000  Uiso   1.00
H104   H     0.49992   0.28532   0.04058   0.00000  Uiso   1.00
H105   H     0.50008   0.04801   0.45942   0.00000  Uiso   1.00
H106   H     0.37062   0.09075   0.24995   0.00000  Uiso   1.00
N107   N     0.50000   0.28402   0.25000   0.00000  Uiso   1.00
N108   N     0.50000   0.04931   0.25000   0.00000  Uiso   1.00
O109   O     0.43988   0.20625   0.24999   0.00000  Uiso   1.00
O110   O     0.56012   0.12709   0.25000   0.00000  Uiso   1.00
O111   O     0.56012   0.20625   0.25000   0.00000  Uiso   1.00
O112   O     0.43988   0.12709   0.24999   0.00000  Uiso   1.00
O113   O     0.49999   0.20627   0.18513   0.00000  Uiso   1.00
O114   O     0.50001   0.12707   0.31487   0.00000  Uiso   1.00
O115   O     0.50001   0.20627   0.31487   0.00000  Uiso   1.00
O116   O     0.49999   0.12707   0.18513   0.00000  Uiso   1.00
C117   C     0.75401   0.16667   0.24996   0.00000  Uiso   1.00
C118   C     0.70940   0.16667   0.24996   0.00000  Uiso   1.00
C119   C     0.80791   0.02482   0.22225   0.00000  Uiso   1.00
C120   C     0.85876   0.30851   0.27775   0.00000  Uiso   1.00
C121   C     0.85876   0.02482   0.27775   0.00000  Uiso   1.00
C122   C     0.80791   0.30851   0.22225   0.00000  Uiso   1.00
C123   C     0.83328   0.16667   0.16425   0.00000  Uiso   1.00
C124   C     0.83339   0.16667   0.33575   0.00000  Uiso   1.00
C125   C     0.83345   0.12401   0.40738   0.00000  Uiso   1.00
C126   C     0.83321   0.20932   0.09262   0.00000  Uiso   1.00
C127   C     0.83344   0.16667   0.38419   0.00000  Uiso   1.00
C128   C     0.91266   0.16667   0.25003   0.00000  Uiso   1.00
C129   C     0.83323   0.16667   0.11581   0.00000  Uiso   1.00
C130   C     0.83344   0.20932   0.40738   0.00000  Uiso   1.00
C131   C     0.83323   0.12401   0.09262   0.00000  Uiso   1.00
C132   C     0.83339   0.20962   0.45356   0.00000  Uiso   1.00
C133   C     0.83327   0.12371   0.04644   0.00000  Uiso   1.00
C134   C     0.83337   0.16667   0.47677   0.00000  Uiso   1.00
C135   C     0.83330   0.16667   0.02323   0.00000  Uiso   1.00
C136   C     0.83341   0.12371   0.45356   0.00000  Uiso   1.00
C137   C     0.83326   0.20962   0.04644   0.00000  Uiso   1.00
C138   C     0.83335   0.25213   0.47689   0.00000  Uiso   1.00
C139   C     0.83329   0.25213   0.02310   0.00000  Uiso   1.00
C140   C     0.83331   0.08121   0.02311   0.00000  Uiso   1.00
C141   C     0.83338   0.08120   0.47690   0.00000  Uiso   1.00
C142   C     0.68795   0.12406   0.24997   0.00000  Uiso   1.00
C143   C     0.97872   0.20928   0.25003   0.00000  Uiso   1.00
C144   C     0.97872   0.12406   0.25003   0.00000  Uiso   1.00
C145   C     0.68795   0.20928   0.24997   0.00000  Uiso   1.00
C146   C     0.95727   0.16667   0.25004   0.00000  Uiso   1.00
Cu147  Cu    0.83333   0.21355   0.25000   0.00000  Uiso   1.00
Cu148  Cu    0.83333   0.11978   0.25000   0.00000  Uiso   1.00
H149   H     0.83348   0.09099   0.38956   0.00000  Uiso   1.00
H150   H     0.96271   0.24259   0.25005   0.00000  Uiso   1.00
H151   H     0.96271   0.09075   0.25005   0.00000  Uiso   1.00
H152   H     0.70396   0.24259   0.24995   0.00000  Uiso   1.00
H153   H     0.78755   0.04356   0.20003   0.00000  Uiso   1.00
H154   H     0.87912   0.28977   0.29997   0.00000  Uiso   1.00
H155   H     0.87912   0.04356   0.29997   0.00000  Uiso   1.00
H156   H     0.78755   0.28977   0.20003   0.00000  Uiso   1.00
H157   H     0.83319   0.24234   0.11044   0.00000  Uiso   1.00
H158   H     0.83346   0.24234   0.38956   0.00000  Uiso   1.00
H159   H     0.83321   0.09099   0.11044   0.00000  Uiso   1.00
H160   H     0.83337   0.28532   0.45942   0.00000  Uiso   1.00
H161   H     0.83329   0.04801   0.04058   0.00000  Uiso   1.00
H162   H     0.83326   0.28532   0.04058   0.00000  Uiso   1.00
H163   H     0.83341   0.04801   0.45942   0.00000  Uiso   1.00
H164   H     0.70396   0.09075   0.24995   0.00000  Uiso   1.00
N165   N     0.83333   0.28402   0.25000   0.00000  Uiso   1.00
N166   N     0.83333   0.04931   0.25000   0.00000  Uiso   1.00
O167   O     0.77321   0.20625   0.24999   0.00000  Uiso   1.00
O168   O     0.89345   0.12709   0.25000   0.00000  Uiso   1.00
O169   O     0.89345   0.20625   0.25000   0.00000  Uiso   1.00
O170   O     0.77321   0.12709   0.24999   0.00000  Uiso   1.00
O171   O     0.83332   0.20627   0.18513   0.00000  Uiso   1.00
O172   O     0.83334   0.12707   0.31487   0.00000  Uiso   1.00
O173   O     0.83334   0.20627   0.31487   0.00000  Uiso   1.00
O174   O     0.83332   0.12707   0.18513   0.00000  Uiso   1.00
C175   C     0.08734   0.50000   0.24996   0.00000  Uiso   1.00
C176   C     0.04273   0.50000   0.24996   0.00000  Uiso   1.00
C177   C     0.14124   0.35815   0.22225   0.00000  Uiso   1.00
C178   C     0.19209   0.64185   0.27775   0.00000  Uiso   1.00
C179   C     0.19209   0.35815   0.27775   0.00000  Uiso   1.00
C180   C     0.14124   0.64185   0.22225   0.00000  Uiso   1.00
C181   C     0.16661   0.50000   0.16425   0.00000  Uiso   1.00
C182   C     0.16672   0.50000   0.33575   0.00000  Uiso   1.00
C183   C     0.16679   0.45735   0.40738   0.00000  Uiso   1.00
C184   C     0.16655   0.54265   0.09262   0.00000  Uiso   1.00
C185   C     0.16677   0.50000   0.38419   0.00000  Uiso   1.00
C186   C     0.24599   0.50000   0.25003   0.00000  Uiso   1.00
C187   C     0.16656   0.50000   0.11581   0.00000  Uiso   1.00
C188   C     0.16677   0.54265   0.40738   0.00000  Uiso   1.00
C189   C     0.16656   0.45735   0.09262   0.00000  Uiso   1.00
C190   C     0.16673   0.54296   0.45356   0.00000  Uiso   1.00
C191   C     0.16661   0.45704   0.04644   0.00000  Uiso   1.00
C192   C     0.16670   0.50000   0.47677   0.00000  Uiso   1.00
C193   C     0.16663   0.50000   0.02323   0.00000  Uiso   1.00
C194   C     0.16674   0.45704   0.45356   0.00000  Uiso   1.00
C195   C     0.16659   0.54296   0.04644   0.00000  Uiso   1.00
C196   C     0.16669   0.58546   0.47689   0.00000  Uiso   1.00
C197   C     0.16662   0.58546   0.02310   0.00000  Uiso   1.00
C198   C     0.16665   0.41454   0.02311   0.00000  Uiso   1.00
C199   C     0.16672   0.41454   0.47690   0.00000  Uiso   1.00
C200   C     0.02128   0.45739   0.24997   0.00000  Uiso   1.00
C201   C     0.31205   0.54261   0.25003   0.00000  Uiso   1.00
C202   C     0.31205   0.45739   0.25003   0.00000  Uiso   1.00
C203   C     0.02128   0.54261   0.24997   0.00000  Uiso   1.00
C204   C     0.29060   0.50000   0.25004   0.00000  Uiso   1.00
Cu205  Cu    0.16667   0.54689   0.25000   0.00000  Uiso   1.00
Cu206  Cu    0.16667   0.45311   0.25000   0.00000  Uiso   1.00
H207   H     0.16681   0.42432   0.38956   0.00000  Uiso   1.00
H208   H     0.29604   0.57592   0.25005   0.00000  Uiso   1.00
H209   H     0.29604   0.42408   0.25005   0.00000  Uiso   1.00
H210   H     0.03729   0.57592   0.24995   0.00000  Uiso   1.00
H211   H     0.12089   0.37689   0.20003   0.00000  Uiso   1.00
H212   H     0.21245   0.62311   0.29997   0.00000  Uiso   1.00
H213   H     0.21245   0.37689   0.29997   0.00000  Uiso   1.00
H214   H     0.12089   0.62311   0.20003   0.00000  Uiso   1.00
H215   H     0.16652   0.57568   0.11044   0.00000  Uiso   1.00
H216   H     0.16679   0.57567   0.38956   0.00000  Uiso   1.00
H217   H     0.16654   0.42433   0.11044   0.00000  Uiso   1.00
H218   H     0.16671   0.61866   0.45942   0.00000  Uiso   1.00
H219   H     0.16663   0.38134   0.04058   0.00000  Uiso   1.00
H220   H     0.16659   0.61866   0.04058   0.00000  Uiso   1.00
H221   H     0.16674   0.38134   0.45942   0.00000  Uiso   1.00
H222   H     0.03729   0.42408   0.24995   0.00000  Uiso   1.00
N223   N     0.16667   0.61736   0.25000   0.00000  Uiso   1.00
N224   N     0.16667   0.38264   0.25000   0.00000  Uiso   1.00
O225   O     0.10655   0.53958   0.24999   0.00000  Uiso   1.00
O226   O     0.22679   0.46042   0.25000   0.00000  Uiso   1.00
O227   O     0.22679   0.53958   0.25000   0.00000  Uiso   1.00
O228   O     0.10655   0.46042   0.24999   0.00000  Uiso   1.00
O229   O     0.16666   0.53960   0.18513   0.00000  Uiso   1.00
O230   O     0.16668   0.46040   0.31487   0.00000  Uiso   1.00
O231   O     0.16668   0.53960   0.31487   0.00000  Uiso   1.00
O232   O     0.16666   0.46040   0.18513   0.00000  Uiso   1.00
C233   C     0.42067   0.50000   0.24996   0.00000  Uiso   1.00
C234   C     0.37607   0.50000   0.24996   0.00000  Uiso   1.00
C235   C     0.47458   0.35815   0.22225   0.00000  Uiso   1.00
C236   C     0.52542   0.64185   0.27775   0.00000  Uiso   1.00
C237   C     0.52542   0.35815   0.27775   0.00000  Uiso   1.00
C238   C     0.47458   0.64185   0.22225   0.00000  Uiso   1.00
C239   C     0.49994   0.50000   0.16425   0.00000  Uiso   1.00
C240   C     0.50006   0.50000   0.33575   0.00000  Uiso   1.00
C241   C     0.50012   0.45735   0.40738   0.00000  Uiso   1.00
C242   C     0.49988   0.54265   0.09262   0.00000  Uiso   1.00
C243   C     0.50010   0.50000   0.38419   0.00000  Uiso   1.00
C244   C     0.57933   0.50000   0.25003   0.00000  Uiso   1.00
C245   C     0.49990   0.50000   0.11581   0.00000  Uiso   1.00
C246   C     0.50011   0.54265   0.40738   0.00000  Uiso   1.00
C247   C     0.49989   0.45735   0.09262   0.00000  Uiso   1.00
C248   C     0.50006   0.54296   0.45356   0.00000  Uiso   1.00
C249   C     0.49994   0.45704   0.04644   0.00000  Uiso   1.00
C250   C     0.50003   0.50000   0.47677   0.00000  Uiso   1.00
C251   C     0.49997   0.50000   0.02323   0.00000  Uiso   1.00
C252   C     0.50007   0.45704   0.45356   0.00000  Uiso   1.00
C253   C     0.49993   0.54296   0.04644   0.00000  Uiso   1.00
C254   C     0.50002   0.58546   0.47689   0.00000  Uiso   1.00
C255   C     0.49995   0.58546   0.02310   0.00000  Uiso   1.00
C256   C     0.49998   0.41454   0.02311   0.00000  Uiso   1.00
C257   C     0.50005   0.41454   0.47690   0.00000  Uiso   1.00
C258   C     0.35461   0.45739   0.24997   0.00000  Uiso   1.00
C259   C     0.64539   0.54261   0.25003   0.00000  Uiso   1.00
C260   C     0.64539   0.45739   0.25003   0.00000  Uiso   1.00
C261   C     0.35461   0.54261   0.24997   0.00000  Uiso   1.00
C262   C     0.62393   0.50000   0.25004   0.00000  Uiso   1.00
Cu263  Cu    0.50000   0.54689   0.25000   0.00000  Uiso   1.00
Cu264  Cu    0.50000   0.45311   0.25000   0.00000  Uiso   1.00
H265   H     0.50015   0.42432   0.38956   0.00000  Uiso   1.00
H266   H     0.62938   0.57592   0.25005   0.00000  Uiso   1.00
H267   H     0.62938   0.42408   0.25005   0.00000  Uiso   1.00
H268   H     0.37062   0.57592   0.24995   0.00000  Uiso   1.00
H269   H     0.45422   0.37689   0.20003   0.00000  Uiso   1.00
H270   H     0.54578   0.62311   0.29997   0.00000  Uiso   1.00
H271   H     0.54578   0.37689   0.29997   0.00000  Uiso   1.00
H272   H     0.45422   0.62311   0.20003   0.00000  Uiso   1.00
H273   H     0.49985   0.57568   0.11044   0.00000  Uiso   1.00
H274   H     0.50012   0.57567   0.38956   0.00000  Uiso   1.00
H275   H     0.49988   0.42433   0.11044   0.00000  Uiso   1.00
H276   H     0.50004   0.61866   0.45942   0.00000  Uiso   1.00
H277   H     0.49996   0.38134   0.04058   0.00000  Uiso   1.00
H278   H     0.49992   0.61866   0.04058   0.00000  Uiso   1.00
H279   H     0.50008   0.38134   0.45942   0.00000  Uiso   1.00
H280   H     0.37062   0.42408   0.24995   0.00000  Uiso   1.00
N281   N     0.50000   0.61736   0.25000   0.00000  Uiso   1.00
N282   N     0.50000   0.38264   0.25000   0.00000  Uiso   1.00
O283   O     0.43988   0.53958   0.24999   0.00000  Uiso   1.00
O284   O     0.56012   0.46042   0.25000   0.00000  Uiso   1.00
O285   O     0.56012   0.53958   0.25000   0.00000  Uiso   1.00
O286   O     0.43988   0.46042   0.24999   0.00000  Uiso   1.00
O287   O     0.49999   0.53960   0.18513   0.00000  Uiso   1.00
O288   O     0.50001   0.46040   0.31487   0.00000  Uiso   1.00
O289   O     0.50001   0.53960   0.31487   0.00000  Uiso   1.00
O290   O     0.49999   0.46040   0.18513   0.00000  Uiso   1.00
C291   C     0.75401   0.50000   0.24996   0.00000  Uiso   1.00
C292   C     0.70940   0.50000   0.24996   0.00000  Uiso   1.00
C293   C     0.80791   0.35815   0.22225   0.00000  Uiso   1.00
C294   C     0.85876   0.64185   0.27775   0.00000  Uiso   1.00
C295   C     0.85876   0.35815   0.27775   0.00000  Uiso   1.00
C296   C     0.80791   0.64185   0.22225   0.00000  Uiso   1.00
C297   C     0.83328   0.50000   0.16425   0.00000  Uiso   1.00
C298   C     0.83339   0.50000   0.33575   0.00000  Uiso   1.00
C299   C     0.83345   0.45735   0.40738   0.00000  Uiso   1.00
C300   C     0.83321   0.54265   0.09262   0.00000  Uiso   1.00
C301   C     0.83344   0.50000   0.38419   0.00000  Uiso   1.00
C302   C     0.91266   0.50000   0.25003   0.00000  Uiso   1.00
C303   C     0.83323   0.50000   0.11581   0.00000  Uiso   1.00
C304   C     0.83344   0.54265   0.40738   0.00000  Uiso   1.00
C305   C     0.83323   0.45735   0.09262   0.00000  Uiso   1.00
C306   C     0.83339   0.54296   0.45356   0.00000  Uiso   1.00
C307   C     0.83327   0.45704   0.04644   0.00000  Uiso   1.00
C308   C     0.83337   0.50000   0.47677   0.00000  Uiso   1.00
C309   C     0.83330   0.50000   0.02323   0.00000  Uiso   1.00
C310   C     0.83341   0.45704   0.45356   0.00000  Uiso   1.00
C311   C     0.83326   0.54296   0.04644   0.00000  Uiso   1.00
C312   C     0.83335   0.58546   0.47689   0.00000  Uiso   1.00
C313   C     0.83329   0.58546   0.02310   0.00000  Uiso   1.00
C314   C     0.83331   0.41454   0.02311   0.00000  Uiso   1.00
C315   C     0.83338   0.41454   0.47690   0.00000  Uiso   1.00
C316   C     0.68795   0.45739   0.24997   0.00000  Uiso   1.00
C317   C     0.97872   0.54261   0.25003   0.00000  Uiso   1.00
C318   C     0.97872   0.45739   0.25003   0.00000  Uiso   1.00
C319   C     0.68795   0.54261   0.24997   0.00000  Uiso   1.00
C320   C     0.95727   0.50000   0.25004   0.00000  Uiso   1.00
Cu321  Cu    0.83333   0.54689   0.25000   0.00000  Uiso   1.00
Cu322  Cu    0.83333   0.45311   0.25000   0.00000  Uiso   1.00
H323   H     0.83348   0.42432   0.38956   0.00000  Uiso   1.00
H324   H     0.96271   0.57592   0.25005   0.00000  Uiso   1.00
H325   H     0.96271   0.42408   0.25005   0.00000  Uiso   1.00
H326   H     0.70396   0.57592   0.24995   0.00000  Uiso   1.00
H327   H     0.78755   0.37689   0.20003   0.00000  Uiso   1.00
H328   H     0.87912   0.62311   0.29997   0.00000  Uiso   1.00
H329   H     0.87912   0.37689   0.29997   0.00000  Uiso   1.00
H330   H     0.78755   0.62311   0.20003   0.00000  Uiso   1.00
H331   H     0.83319   0.57568   0.11044   0.00000  Uiso   1.00
H332   H     0.83346   0.57567   0.38956   0.00000  Uiso   1.00
H333   H     0.83321   0.42433   0.11044   0.00000  Uiso   1.00
H334   H     0.83337   0.61866   0.45942   0.00000  Uiso   1.00
H335   H     0.83329   0.38134   0.04058   0.00000  Uiso   1.00
H336   H     0.83326   0.61866   0.04058   0.00000  Uiso   1.00
H337   H     0.83341   0.38134   0.45942   0.00000  Uiso   1.00
H338   H     0.70396   0.42408   0.24995   0.00000  Uiso   1.00
N339   N     0.83333   0.61736   0.25000   0.00000  Uiso   1.00
N340   N     0.83333   0.38264   0.25000   0.00000  Uiso   1.00
O341   O     0.77321   0.53958   0.24999   0.00000  Uiso   1.00
O342   O     0.89345   0.46042   0.25000   0.00000  Uiso   1.00
O343   O     0.89345   0.53958   0.25000   0.00000  Uiso   1.00
O344   O     0.77321   0.46042   0.24999   0.00000  Uiso   1.00
O345   O     0.83332   0.53960   0.18513   0.00000  Uiso   1.00
O346   O     0.83334   0.46040   0.31487   0.00000  Uiso   1.00
O347   O     0.83334   0.53960   0.31487   0.00000  Uiso   1.00
O348   O     0.83332   0.46040   0.18513   0.00000  Uiso   1.00
C349   C     0.08734   0.83333   0.24996   0.00000  Uiso   1.00
C350   C     0.04273   0.83333   0.24996   0.00000  Uiso   1.00
C351   C     0.14124   0.69149   0.22225   0.00000  Uiso   1.00
C352   C     0.19209   0.97518   0.27775   0.00000  Uiso   1.00
C353   C     0.19209   0.69149   0.27775   0.00000  Uiso   1.00
C354   C     0.14124   0.97518   0.22225   0.00000  Uiso   1.00
C355   C     0.16661   0.83333   0.16425   0.00000  Uiso   1.00
C356   C     0.16672   0.83333   0.33575   0.00000  Uiso   1.00
C357   C     0.16679   0.79068   0.40738   0.00000  Uiso   1.00
C358   C     0.16655   0.87599   0.09262   0.00000  Uiso   1.00
C359   C     0.16677   0.83333   0.38419   0.00000  Uiso   1.00
C360   C     0.24599   0.83333   0.25003   0.00000  Uiso   1.00
C361   C     0.16656   0.83333   0.11581   0.00000  Uiso   1.00
C362   C     0.16677   0.87599   0.40738   0.00000  Uiso   1.00
C363   C     0.16656   0.79068   0.09262   0.00000  Uiso   1.00
C364   C     0.16673   0.87629   0.45356   0.00000  Uiso   1.00
C365   C     0.16661   0.79038   0.04644   0.00000  Uiso   1.00
C366   C     0.16670   0.83333   0.47677   0.00000  Uiso   1.00
C367   C     0.16663   0.83333   0.02323   0.00000  Uiso   1.00
C368   C     0.16674   0.79038   0.45356   0.00000  Uiso   1.00
C369   C     0.16659   0.87629   0.04644   0.00000  Uiso   1.00
C370   C     0.16669   0.91879   0.47689   0.00000  Uiso   1.00
C371   C     0.16662   0.91879   0.02310   0.00000  Uiso   1.00
C372   C     0.16665   0.74787   0.02311   0.00000  Uiso   1.00
C373   C     0.16672   0.74787   0.47690   0.00000  Uiso   1.00
C374   C     0.02128   0.79072   0.24997   0.00000  Uiso   1.00
C375   C     0.31205   0.87594   0.25003   0.00000  Uiso   1.00
C376   C     0.31205   0.79072   0.25003   0.00000  Uiso   1.00
C377   C     0.02128   0.87594   0.24997   0.00000  Uiso   1.00
C378   C     0.29060   0.83333   0.25004   0.00000  Uiso   1.00
Cu379  Cu    0.16667   0.88022   0.25000   0.00000  Uiso   1.00
Cu380  Cu    0.16667   0.78645   0.25000   0.00000  Uiso   1.00
H381   H     0.16681   0.75766   0.38956   0.00000  Uiso   1.00
H382   H     0.29604   0.90925   0.25005   0.00000  Uiso   1.00
H383   H     0.29604   0.75741   0.25005   0.00000  Uiso   1.00
H384   H     0.03729   0.90925   0.24995   0.00000  Uiso   1.00
H385   H     0.12089   0.71023   0.20003   0.00000  Uiso   1.00
H386   H     0.21245   0.95644   0.29997   0.00000  Uiso   1.00
H387   H     0.21245   0.71023   0.29997   0.00000  Uiso   1.00
H388   H     0.12089   0.95644   0.20003   0.00000  Uiso   1.00
H389   H     0.16652   0.90901   0.11044   0.00000  Uiso   1.00
H390   H     0.16679   0.90901   0.38956   0.00000  Uiso   1.00
H391   H     0.16654   0.75766   0.11044   0.00000  Uiso   1.00
H392   H     0.16671   0.95199   0.45942   0.00000  Uiso   1.00
H393   H     0.16663   0.71468   0.04058   0.00000  Uiso   1.00
H394   H     0.16659   0.95199   0.04058   0.00000  Uiso   1.00
H395   H     0.16674   0.71467   0.45942   0.00000  Uiso   1.00
H396   H     0.03729   0.75741   0.24995   0.00000  Uiso   1.00
N397   N     0.16667   0.95069   0.25000   0.00000  Uiso   1.00
N398   N     0.16667   0.71598   0.25000   0.00000  Uiso   1.00
O399   O     0.10655   0.87291   0.24999   0.00000  Uiso   1.00
O400   O     0.22679   0.79375   0.25000   0.00000  Uiso   1.00
O401   O     0.22679   0.87291   0.25000   0.00000  Uiso   1.00
O402   O     0.10655   0.79375   0.24999   0.00000  Uiso   1.00
O403   O     0.16666   0.87293   0.18513   0.00000  Uiso   1.00
O404   O     0.16668   0.79373   0.31487   0.00000  Uiso   1.00
O405   O     0.16668   0.87293   0.31487   0.00000  Uiso   1.00
O406   O     0.16666   0.79373   0.18513   0.00000  Uiso   1.00
C407   C     0.42067   0.83333   0.24996   0.00000  Uiso   1.00
C408   C     0.37607   0.83333   0.24996   0.00000  Uiso   1.00
C409   C     0.47458   0.69149   0.22225   0.00000  Uiso   1.00
C410   C     0.52542   0.97518   0.27775   0.00000  Uiso   1.00
C411   C     0.52542   0.69149   0.27775   0.00000  Uiso   1.00
C412   C     0.47458   0.97518   0.22225   0.00000  Uiso   1.00
C413   C     0.49994   0.83333   0.16425   0.00000  Uiso   1.00
C414   C     0.50006   0.83333   0.33575   0.00000  Uiso   1.00
C415   C     0.50012   0.79068   0.40738   0.00000  Uiso   1.00
C416   C     0.49988   0.87599   0.09262   0.00000  Uiso   1.00
C417   C     0.50010   0.83333   0.38419   0.00000  Uiso   1.00
C418   C     0.57933   0.83333   0.25003   0.00000  Uiso   1.00
C419   C     0.49990   0.83333   0.11581   0.00000  Uiso   1.00
C420   C     0.50011   0.87599   0.40738   0.00000  Uiso   1.00
C421   C     0.49989   0.79068   0.09262   0.00000  Uiso   1.00
C422   C     0.50006   0.87629   0.45356   0.00000  Uiso   1.00
C423   C     0.49994   0.79038   0.04644   0.00000  Uiso   1.00
C424   C     0.50003   0.83333   0.47677   0.00000  Uiso   1.00
C425   C     0.49997   0.83333   0.02323   0.00000  Uiso   1.00
C426   C     0.50007   0.79038   0.45356   0.00000  Uiso   1.00
C427   C     0.49993   0.87629   0.04644   0.00000  Uiso   1.00
C428   C     0.50002   0.91879   0.47689   0.00000  Uiso   1.00
C429   C     0.49995   0.91879   0.02310   0.00000  Uiso   1.00
C430   C     0.49998   0.74787   0.02311   0.00000  Uiso   1.00
C431   C     0.50005   0.74787   0.47690   0.00000  Uiso   1.00
C432   C     0.35461   0.79072   0.24997   0.00000  Uiso   1.00
C433   C     0.64539   0.87594   0.25003   0.00000  Uiso   1.00
C434   C     0.64539   0.79072   0.25003   0.00000  Uiso   1.00
C435   C     0.35461   0.87594   0.24997   0.00000  Uiso   1.00
C436   C     0.62393   0.83333   0.25004   0.00000  Uiso   1.00
Cu437  Cu    0.50000   0.88022   0.25000   0.00000  Uiso   1.00
Cu438  Cu    0.50000   0.78645   0.25000   0.00000  Uiso   1.00
H439   H     0.50015   0.75766   0.38956   0.00000  Uiso   1.00
H440   H     0.62938   0.90925   0.25005   0.00000  Uiso   1.00
H441   H     0.62938   0.75741   0.25005   0.00000  Uiso   1.00
H442   H     0.37062   0.90925   0.24995   0.00000  Uiso   1.00
H443   H     0.45422   0.71023   0.20003   0.00000  Uiso   1.00
H444   H     0.54578   0.95644   0.29997   0.00000  Uiso   1.00
H445   H     0.54578   0.71023   0.29997   0.00000  Uiso   1.00
H446   H     0.45422   0.95644   0.20003   0.00000  Uiso   1.00
H447   H     0.49985   0.90901   0.11044   0.00000  Uiso   1.00
H448   H     0.50012   0.90901   0.38956   0.00000  Uiso   1.00
H449   H     0.49988   0.75766   0.11044   0.00000  Uiso   1.00
H450   H     0.50004   0.95199   0.45942   0.00000  Uiso   1.00
H451   H     0.49996   0.71468   0.04058   0.00000  Uiso   1.00
H452   H     0.49992   0.95199   0.04058   0.00000  Uiso   1.00
H453   H     0.50008   0.71467   0.45942   0.00000  Uiso   1.00
H454   H     0.37062   0.75741   0.24995   0.00000  Uiso   1.00
N455   N     0.50000   0.95069   0.25000   0.00000  Uiso   1.00
N456   N     0.50000   0.71598   0.25000   0.00000  Uiso   1.00
O457   O     0.43988   0.87291   0.24999   0.00000  Uiso   1.00
O458   O     0.56012   0.79375   0.25000   0.00000  Uiso   1.00
O459   O     0.56012   0.87291   0.25000   0.00000  Uiso   1.00
O460   O     0.43988   0.79375   0.24999   0.00000  Uiso   1.00
O461   O     0.49999   0.87293   0.18513   0.00000  Uiso   1.00
O462   O     0.50001   0.79373   0.31487   0.00000  Uiso   1.00
O463   O     0.50001   0.87293   0.31487   0.00000  Uiso   1.00
O464   O     0.49999   0.79373   0.18513   0.00000  Uiso   1.00
C465   C     0.75401   0.83333   0.24996   0.00000  Uiso   1.00
C466   C     0.70940   0.83333   0.24996   0.00000  Uiso   1.00
C467   C     0.80791   0.69149   0.22225   0.00000  Uiso   1.00
C468   C     0.85876   0.97518   0.27775   0.00000  Uiso   1.00
C469   C     0.85876   0.69149   0.27775   0.00000  Uiso   1.00
C470   C     0.80791   0.97518   0.22225   0.00000  Uiso   1.00
C471   C     0.83328   0.83333   0.16425   0.00000  Uiso   1.00
C472   C     0.83339   0.83333   0.33575   0.00000  Uiso   1.00
C473   C     0.83345   0.79068   0.40738   0.00000  Uiso   1.00
C474   C     0.83321   0.87599   0.09262   0.00000  Uiso   1.00
C475   C     0.83344   0.83333   0.38419   0.00000  Uiso   1.00
C476   C     0.91266   0.83333   0.25003   0.00000  Uiso   1.00
C477   C     0.83323   0.83333   0.11581   0.00000  Uiso   1.00
C478   C     0.83344   0.87599   0.40738   0.00000  Uiso   1.00
C479   C     0.83323   0.79068   0.09262   0.00000  Uiso   1.00
C480   C     0.83339   0.87629   0.45356   0.00000  Uiso   1.00
C481   C     0.83327   0.79038   0.04644   0.00000  Uiso   1.00
C482   C     0.83337   0.83333   0.47677   0.00000  Uiso   1.00
C483   C     0.83330   0.83333   0.02323   0.00000  Uiso   1.00
C484   C     0.83341   0.79038   0.45356   0.00000  Uiso   1.00
C485   C     0.83326   0.87629   0.04644   0.00000  Uiso   1.00
C486   C     0.83335   0.91879   0.47689   0.00000  Uiso   1.00
C487   C     0.83329   0.91879   0.02310   0.00000  Uiso   1.00
C488   C     0.83331   0.74787   0.02311   0.00000  Uiso   1.00
C489   C     0.83338   0.74787   0.47690   0.00000  Uiso   1.00
C490   C     0.68795   0.79072   0.24997   0.00000  Uiso   1.00
C491   C     0.97872   0.87594   0.25003   0.00000  Uiso   1.00
C492   C     0.97872   0.79072   0.25003   0.00000  Uiso   1.00
C493   C     0.68795   0.87594   0.24997   0.00000  Uiso   1.00
C494   C     0.95727   0.83333   0.25004   0.00000  Uiso   1.00
Cu495  Cu    0.83333   0.88022   0.25000   0.00000  Uiso   1.00
Cu496  Cu    0.83333   0.78645   0.25000   0.00000  Uiso   1.00
H497   H     0.83348   0.75766   0.38956   0.00000  Uiso   1.00
H498   H     0.96271   0.90925   0.25005   0.00000  Uiso   1.00
H499   H     0.96271   0.75741   0.25005   0.00000  Uiso   1.00
H500   H     0.70396   0.90925   0.24995   0.00000  Uiso   1.00
H501   H     0.78755   0.71023   0.20003   0.00000  Uiso   1.00
H502   H     0.87912   0.95644   0.29997   0.00000  Uiso   1.00
H503   H     0.87912   0.71023   0.29997   0.00000  Uiso   1.00
H504   H     0.78755   0.95644   0.20003   0.00000  Uiso   1.00
H505   H     0.83319   0.90901   0.11044   0.00000  Uiso   1.00
H506   H     0.83346   0.90901   0.38956   0.00000  Uiso   1.00
H507   H     0.83321   0.75766   0.11044   0.00000  Uiso   1.00
H508   H     0.83337   0.95199   0.45942   0.00000  Uiso   1.00
H509   H     0.83329   0.71468   0.04058   0.00000  Uiso   1.00
H510   H     0.83326   0.95199   0.04058   0.00000  Uiso   1.00
H511   H     0.83341   0.71467   0.45942   0.00000  Uiso   1.00
H512   H     0.70396   0.75741   0.24995   0.00000  Uiso   1.00
N513   N     0.83333   0.95069   0.25000   0.00000  Uiso   1.00
N514   N     0.83333   0.71598   0.25000   0.00000  Uiso   1.00
O515   O     0.77321   0.87291   0.24999   0.00000  Uiso   1.00
O516   O     0.89345   0.79375   0.25000   0.00000  Uiso   1.00
O517   O     0.89345   0.87291   0.25000   0.00000  Uiso   1.00
O518   O     0.77321   0.79375   0.24999   0.00000  Uiso   1.00
O519   O     0.83332   0.87293   0.18513   0.00000  Uiso   1.00
O520   O     0.83334   0.79373   0.31487   0.00000  Uiso   1.00
O521   O     0.83334   0.87293   0.31487   0.00000  Uiso   1.00
O522   O     0.83332   0.79373   0.18513   0.00000  Uiso   1.00
C523   C     0.08734   0.16667   0.74996   0.00000  Uiso   1.00
C524   C     0.04273   0.16667   0.74996   0.00000  Uiso   1.00
C525   C     0.14124   0.02482   0.72225   0.00000  Uiso   1.00
C526   C     0.19209   0.30851   0.77775   0.00000  Uiso   1.00
C527   C     0.19209   0.02482   0.77775   0.00000  Uiso   1.00
C528   C     0.14124   0.30851   0.72225   0.00000  Uiso   1.00
C529   C     0.16661   0.16667   0.66425   0.00000  Uiso   1.00
C530   C     0.16672   0.16667   0.83575   0.00000  Uiso   1.00
C531   C     0.16679   0.12401   0.90738   0.00000  Uiso   1.00
C532   C     0.16655   0.20932   0.59262   0.00000  Uiso   1.00
C533   C     0.16677   0.16667   0.88419   0.00000  Uiso   1.00
C534   C     0.24599   0.16667   0.75003   0.00000  Uiso   1.00
C535   C     0.16656   0.16667   0.61581   0.00000  Uiso   1.00
C536   C     0.16677   0.20932   0.90738   0.00000  Uiso   1.00
C537   C     0.16656   0.12401   0.59262   0.00000  Uiso   1.00
C538   C     0.16673   0.20962   0.95356   0.00000  Uiso   1.00
C539   C     0.16661   0.12371   0.54644   0.00000  Uiso   1.00
C540   C     0.16670   0.16667   0.97677   0.00000  Uiso   1.00
C541   C     0.16663   0.16667   0.52323   0.00000  Uiso   1.00
C542   C     0.16674   0.12371   0.95356   0.00000  Uiso   1.00
C543   C     0.16659   0.20962   0.54644   0.00000  Uiso   1.00
C544   C     0.16669   0.25213   0.97689   0.00000  Uiso   1.00
C545   C     0.16662   0.25213   0.52310   0.00000  Uiso   1.00
C546   C     0.16665   0.08121   0.52311   0.00000  Uiso   1.00
C547   C     0.16672   0.08120   0.97690   0.00000  Uiso   1.00
C548   C     0.02128   0.12406   0.74997   0.00000  Uiso   1.00
C549   C     0.31205   0.20928   0.75003   0.00000  Uiso   1.00
C550   C     0.31205   0.12406   0.75003   0.00000  Uiso   1.00
C551   C     0.02128   0.20928   0.74997   0.00000  Uiso   1.00
C552   C     0.29060   0.16667   0.75004   0.00000  Uiso   1.00
Cu553  Cu    0.16667   0.21355   0.75000   0.00000  Uiso   1.00
Cu554  Cu    0.16667   0.11978   0.75000   0.00000  Uiso   1.00
H555   H     0.16681   0.09099   0.88956   0.00000  Uiso   1.00
H556   H     0.29604   0.24259   0.75005   0.00000  Uiso   1.00
H557   H     0.29604   0.09075   0.75005   0.00000  Uiso   1.00
H558   H     0.03729   0.24259   0.74995   0.00000  Uiso   1.00
H559   H     0.12089   0.04356   0.70003   0.00000  Uiso   1.00
H560   H     0.21245   0.28977   0.79997   0.00000  Uiso   1.00
H561   H     0.21245   0.04356   0.79997   0.00000  Uiso   1.00
H562   H     0.12089   0.28977   0.70003   0.00000  Uiso   1.00
H563   H     0.16652   0.24234   0.61044   0.00000  Uiso   1.00
H564   H     0.16679   0.24234   0.88956   0.00000  Uiso   1.00
H565   H     0.16654   0.09099   0.61044   0.00000  Uiso   1.00
H566   H     0.16671   0.28532   0.95942   0.00000  Uiso   1.00
H567   H     0.16663   0.04801   0.54058   0.00000  Uiso   1.00
H568   H     0.16659   0.28532   0.54058   0.00000  Uiso   1.00
H569   H     0.16674   0.04801   0.95942   0.00000  Uiso   1.00
H570   H     0.03729   0.09075   0.74995   0.00000  Uiso   1.00
N571   N     0.16667   0.28402   0.75000   0.00000  Uiso   1.00
N572   N     0.16667   0.04931   0.75000   0.00000  Uiso   1.00
O573   O     0.10655   0.20625   0.74999   0.00000  Uiso   1.00
O574   O     0.22679   0.12709   0.75000   0.00000  Uiso   1.00
O575   O     0.22679   0.20625   0.75000   0.00000  Uiso   1.00
O576   O     0.10655   0.12709   0.74999   0.00000  Uiso   1.00
O577   O     0.16666   0.20627   0.68513   0.00000  Uiso   1.00
O578   O     0.16668   0.12707   0.81487   0.00000  Uiso   1.00
O579   O     0.16668   0.20627   0.81487   0.00000  Uiso   1.00
O580   O     0.16666   0.12707   0.68513   0.00000  Uiso   1.00
C581   C     0.42067   0.16667   0.74996   0.00000  Uiso   1.00
C582   C     0.37607   0.16667   0.74996   0.00000  Uiso   1.00
C583   C     0.47458   0.02482   0.72225   0.00000  Uiso   1.00
C584   C     0.52542   0.30851   0.77775   0.00000  Uiso   1.00
C585   C     0.52542   0.02482   0.77775   0.00000  Uiso   1.00
C586   C     0.47458   0.30851   0.72225   0.00000  Uiso   1.00
C587   C     0.49994   0.16667   0.66425   0.00000  Uiso   1.00
C588   C     0.50006   0.16667   0.83575   0.00000  Uiso   1.00
C589   C     0.50012   0.12401   0.90738   0.00000  Uiso   1.00
C590   C     0.49988   0.20932   0.59262   0.00000  Uiso   1.00
C591   C     0.50010   0.16667   0.88419   0.00000  Uiso   1.00
C592   C     0.57933   0.16667   0.75003   0.00000  Uiso   1.00
C593   C     0.49990   0.16667   0.61581   0.00000  Uiso   1.00
C594   C     0.50011   0.20932   0.90738   0.00000  Uiso   1.00
C595   C     0.49989   0.12401   0.59262   0.00000  Uiso   1.00
C596   C     0.50006   0.20962   0.95356   0.00000  Uiso   1.00
C597   C     0.49994   0.12371   0.54644   0.00000  Uiso   1.00
C598   C     0.50003   0.16667   0.97677   0.00000  Uiso   1.00
C599   C     0.49997   0.16667   0.52323   0.00000  Uiso   1.00
C600   C     0.50007   0.12371   0.95356   0.00000  Uiso   1.00
C601   C     0.49993   0.20962   0.54644   0.00000  Uiso   1.00
C602   C     0.50002   0.25213   0.97689   0.00000  Uiso   1.00
C603   C     0.49995   0.25213   0.52310   0.00000  Uiso   1.00
C604   C     0.49998   0.08121   0.52311   0.00000  Uiso   1.00
C605   C     0.50005   0.08120   0.97690   0.00000  Uiso   1.00
C606   C     0.35461   0.12406   0.74997   0.00000  Uiso   1.00
C607   C     0.64539   0.20928   0.75003   0.00000  Uiso   1.00
C608   C     0.64539   0.12406   0.75003   0.00000  Uiso   1.00
C609   C     0.35461   0.20928   0.74997   0.00000  Uiso   1.00
C610   C     0.62393   0.16667   0.75004   0.00000  Uiso   1.00
Cu611  Cu    0.50000   0.21355   0.75000   0.00000  Uiso   1.00
Cu612  Cu    0.50000   0.11978   0.75000   0.00000  Uiso   1.00
H613   H     0.50015   0.09099   0.88956   0.00000  Uiso   1.00
H614   H     0.62938   0.24259   0.75005   0.00000  Uiso   1.00
H615   H     0.62938   0.09075   0.75005   0.00000  Uiso   1.00
H616   H     0.37062   0.24259   0.74995   0.00000  Uiso   1.00
H617   H     0.45422   0.04356   0.70003   0.00000  Uiso   1.00
H618   H     0.54578   0.28977   0.79997   0.00000  Uiso   1.00
H619   H     0.54578   0.04356   0.79997   0.00000  Uiso   1.00
H620   H     0.45422   0.28977   0.70003   0.00000  Uiso   1.00
H621   H     0.49985   0.24234   0.61044   0.00000  Uiso   1.00
H622   H     0.50012   0.24234   0.88956   0.00000  Uiso   1.00
H623   H     0.49988   0.09099   0.61044   0.00000  Uiso   1.00
H624   H     0.50004   0.28532   0.95942   0.00000  Uiso   1.00
H625   H     0.49996   0.04801   0.54058   0.00000  Uiso   1.00
H626   H     0.49992   0.28532   0.54058   0.00000  Uiso   1.00
H627   H     0.50008   0.04801   0.95942   0.00000  Uiso   1.00
H628   H     0.37062   0.09075   0.74995   0.00000  Uiso   1.00
N629   N     0.50000   0.28402   0.75000   0.00000  Uiso   1.00
N630   N     0.50000   0.04931   0.75000   0.00000  Uiso   1.00
O631   O     0.43988   0.20625   0.74999   0.00000  Uiso   1.00
O632   O     0.56012   0.12709   0.75000   0.00000  Uiso   1.00
O633   O     0.56012   0.20625   0.75000   0.00000  Uiso   1.00
O634   O     0.43988   0.12709   0.74999   0.00000  Uiso   1.00
O635   O     0.49999   0.20627   0.68513   0.00000  Uiso   1.00
O636   O     0.50001   0.12707   0.81487   0.00000  Uiso   1.00
O637   O     0.50001   0.20627   0.81487   0.00000  Uiso   1.00
O638   O     0.49999   0.12707   0.68513   0.00000  Uiso   1.00
C639   C     0.75401   0.16667   0.74996   0.00000  Uiso   1.00
C640   C     0.70940   0.16667   0.74996   0.00000  Uiso   1.00
C641   C     0.80791   0.02482   0.72225   0.00000  Uiso   1.00
C642   C     0.85876   0.30851   0.77775   0.00000  Uiso   1.00
C643   C     0.85876   0.02482   0.77775   0.00000  Uiso   1.00
C644   C     0.80791   0.30851   0.72225   0.00000  Uiso   1.00
C645   C     0.83328   0.16667   0.66425   0.00000  Uiso   1.00
C646   C     0.83339   0.16667   0.83575   0.00000  Uiso   1.00
C647   C     0.83345   0.12401   0.90738   0.00000  Uiso   1.00
C648   C     0.83321   0.20932   0.59262   0.00000  Uiso   1.00
C649   C     0.83344   0.16667   0.88419   0.00000  Uiso   1.00
C650   C     0.91266   0.16667   0.75003   0.00000  Uiso   1.00
C651   C     0.83323   0.16667   0.61581   0.00000  Uiso   1.00
C652   C     0.83344   0.20932   0.90738   0.00000  Uiso   1.00
C653   C     0.83323   0.12401   0.59262   0.00000  Uiso   1.00
C654   C     0.83339   0.20962   0.95356   0.00000  Uiso   1.00
C655   C     0.83327   0.12371   0.54644   0.00000  Uiso   1.00
C656   C     0.83337   0.16667   0.97677   0.00000  Uiso   1.00
C657   C     0.83330   0.16667   0.52323   0.00000  Uiso   1.00
C658   C     0.83341   0.12371   0.95356   0.00000  Uiso   1.00
C659   C     0.83326   0.20962   0.54644   0.00000  Uiso   1.00
C660   C     0.83335   0.25213   0.97689   0.00000  Uiso   1.00
C661   C     0.83329   0.25213   0.52310   0.00000  Uiso   1.00
C662   C     0.83331   0.08121   0.52311   0.00000  Uiso   1.00
C663   C     0.83338   0.08120   0.97690   0.00000  Uiso   1.00
C664   C     0.68795   0.12406   0.74997   0.00000  Uiso   1.00
C665   C     0.97872   0.20928   0.75003   0.00000  Uiso   1.00
C666   C     0.97872   0.12406   0.75003   0.00000  Uiso   1.00
C667   C     0.68795   0.20928   0.74997   0.00000  Uiso   1.00
C668   C     0.95727   0.16667   0.75004   0.00000  Uiso   1.00
Cu669  Cu    0.83333   0.21355   0.75000   0.00000  Uiso   1.00
Cu670  Cu    0.83333   0.11978   0.75000   0.00000  Uiso   1.00
H671   H     0.83348   0.09099   0.88956   0.00000  Uiso   1.00
H672   H     0.96271   0.24259   0.75005   0.00000  Uiso   1.00
H673   H     0.96271   0.09075   0.75005   0.00000  Uiso   1.00
H674   H     0.70396   0.24259   0.74995   0.00000  Uiso   1.00
H675   H     0.78755   0.04356   0.70003   0.00000  Uiso   1.00
H676   H     0.87912   0.28977   0.79997   0.00000  Uiso   1.00
H677   H     0.87912   0.04356   0.79997   0.00000  Uiso   1.00
H678   H     0.78755   0.28977   0.70003   0.00000  Uiso   1.00
H679   H     0.83319   0.24234   0.61044   0.00000  Uiso   1.00
H680   H     0.83346   0.24234   0.88956   0.00000  Uiso   1.00
H681   H     0.83321   0.09099   0.61044   0.00000  Uiso   1.00
H682   H     0.83337   0.28532   0.95942   0.00000  Uiso   1.00
H683   H     0.83329   0.04801   0.54058   0.00000  Uiso   1.00
H684   H     0.83326   0.28532   0.54058   0.00000  Uiso   1.00
H685   H     0.83341   0.04801   0.95942   0.00000  Uiso   1.00
H686   H     0.70396   0.09075   0.74995   0.00000  Uiso   1.00
N687   N     0.83333   0.28402   0.75000   0.00000  Uiso   1.00
N688   N     0.83333   0.04931   0.75000   0.00000  Uiso   1.00
O689   O     0.77321   0.20625   0.74999   0.00000  Uiso   1.00
O690   O     0.89345   0.12709   0.75000   0.00000  Uiso   1.00
O691   O     0.89345   0.20625   0.75000   0.00000  Uiso   1.00
O692   O     0.77321   0.12709   0.74999   0.00000  Uiso   1.00
O693   O     0.83332   0.20627   0.68513   0.00000  Uiso   1.00
O694   O     0.83334   0.12707   0.81487   0.00000  Uiso   1.00
O695   O     0.83334   0.20627   0.81487   0.00000  Uiso   1.00
O696   O     0.83332   0.12707   0.68513   0.00000  Uiso   1.00
C697   C     0.08734   0.50000   0.74996   0.00000  Uiso   1.00
C698   C     0.04273   0.50000   0.74996   0.00000  Uiso   1.00
C699   C     0.14124   0.35815   0.72225   0.00000  Uiso   1.00
C700   C     0.19209   0.64185   0.77775   0.00000  Uiso   1.00
C701   C     0.19209   0.35815   0.77775   0.00000  Uiso   1.00
C702   C     0.14124   0.64185   0.72225   0.00000  Uiso   1.00
C703   C     0.16661   0.50000   0.66425   0.00000  Uiso   1.00
C704   C     0.16672   0.50000   0.83575   0.00000  Uiso   1.00
C705   C     0.16679   0.45735   0.90738   0.00000  Uiso   1.00
C706   C     0.16655   0.54265   0.59262   0.00000  Uiso   1.00
C707   C     0.16677   0.50000   0.88419   0.00000  Uiso   1.00
C708   C     0.24599   0.50000   0.75003   0.00000  Uiso   1.00
C709   C     0.16656   0.50000   0.61581   0.00000  Uiso   1.00
C710   C     0.16677   0.54265   0.90738   0.00000  Uiso   1.00
C711   C     0.16656   0.45735   0.59262   0.00000  Uiso   1.00
C712   C     0.16673   0.54296   0.95356   0.00000  Uiso   1.00
C713   C     0.16661   0.45704   0.54644   0.00000  Uiso   1.00
C714   C     0.16670   0.50000   0.97677   0.00000  Uiso   1.00
C715   C     0.16663   0.50000   0.52323   0.00000  Uiso   1.00
C716   C     0.16674   0.45704   0.95356   0.00000  Uiso   1.00
C717   C     0.16659   0.54296   0.54644   0.00000  Uiso   1.00
C718   C     0.16669   0.58546   0.97689   0.00000  Uiso   1.00
C719   C     0.16662   0.58546   0.52310   0.00000  Uiso   1.00
C720   C     0.16665   0.41454   0.52311   0.00000  Uiso   1.00
C721   C     0.16672   0.41454   0.97690   0.00000  Uiso   1.00
C722   C     0.02128   0.45739   0.74997   0.00000  Uiso   1.00
C723   C     0.31205   0.54261   0.75003   0.00000  Uiso   1.00
C724   C     0.31205   0.45739   0.75003   0.00000  Uiso   1.00
C725   C     0.02128   0.54261   0.74997   0.00000  Uiso   1.00
C726   C     0.29060   0.50000   0.75004   0.00000  Uiso   1.00
Cu727  Cu    0.16667   0.54689   0.75000   0.00000  Uiso   1.00
Cu728  Cu    0.16667   0.45311   0.75000   0.00000  Uiso   1.00
H729   H     0.16681   0.42432   0.88956   0.00000  Uiso   1.00
H730   H     0.29604   0.57592   0.75005   0.00000  Uiso   1.00
H731   H     0.29604   0.42408   0.75005   0.00000  Uiso   1.00
H732   H     0.03729   0.57592   0.74995   0.00000  Uiso   1.00
H733   H     0.12089   0.37689   0.70003   0.00000  Uiso   1.00
H734   H     0.21245   0.62311   0.79997   0.00000  Uiso   1.00
H735   H     0.21245   0.37689   0.79997   0.00000  Uiso   1.00
H736   H     0.12089   0.62311   0.70003   0.00000  Uiso   1.00
H737   H     0.16652   0.57568   0.61044   0.00000  Uiso   1.00
H738   H     0.16679   0.57567   0.88956   0.00000  Uiso   1.00
H739   H     0.16654   0.42433   0.61044   0.00000  Uiso   1.00
H740   H     0.16671   0.61866   0.95942   0.00000  Uiso   1.00
H741   H     0.16663   0.38134   0.54058   0.00000  Uiso   1.00
H742   H     0.16659   0.61866   0.54058   0.00000  Uiso   1.00
H743   H     0.16674   0.38134   0.95942   0.00000  Uiso   1.00
H744   H     0.03729   0.42408   0.74995   0.00000  Uiso   1.00
N745   N     0.16667   0.61736   0.75000   0.00000  Uiso   1.00
N746   N     0.16667   0.38264   0.75000   0.00000  Uiso   1.00
O747   O     0.10655   0.53958   0.74999   0.00000  Uiso   1.00
O748   O     0.22679   0.46042   0.75000   0.00000  Uiso   1.00
O749   O     0.22679   0.53958   0.75000   0.00000  Uiso   1.00
O750   O     0.10655   0.46042   0.74999   0.00000  Uiso   1.00
O751   O     0.16666   0.53960   0.68513   0.00000  Uiso   1.00
O752   O     0.16668   0.46040   0.81487   0.00000  Uiso   1.00
O753   O     0.16668   0.53960   0.81487   0.00000  Uiso   1.00
O754   O     0.16666   0.46040   0.68513   0.00000  Uiso   1.00
C755   C     0.42067   0.50000   0.74996   0.00000  Uiso   1.00
C756   C     0.37607   0.50000   0.74996   0.00000  Uiso   1.00
C757   C     0.47458   0.35815   0.72225   0.00000  Uiso   1.00
C758   C     0.52542   0.64185   0.77775   0.00000  Uiso   1.00
C759   C     0.52542   0.35815   0.77775   0.00000  Uiso   1.00
C760   C     0.47458   0.64185   0.72225   0.00000  Uiso   1.00
C761   C     0.49994   0.50000   0.66425   0.00000  Uiso   1.00
C762   C     0.50006   0.50000   0.83575   0.00000  Uiso   1.00
C763   C     0.50012   0.45735   0.90738   0.00000  Uiso   1.00
C764   C     0.49988   0.54265   0.59262   0.00000  Uiso   1.00
C765   C     0.50010   0.50000   0.88419   0.00000  Uiso   1.00
C766   C     0.57933   0.50000   0.75003   0.00000  Uiso   1.00
C767   C     0.49990   0.50000   0.61581   0.00000  Uiso   1.00
C768   C     0.50011   0.54265   0.90738   0.00000  Uiso   1.00
C769   C     0.49989   0.45735   0.59262   0.00000  Uiso   1.00
C770   C     0.50006   0.54296   0.95356   0.00000  Uiso   1.00
C771   C     0.49994   0.45704   0.54644   0.00000  Uiso   1.00
C772   C     0.50003   0.50000   0.97677   0.00000  Uiso   1.00
C773   C     0.49997   0.50000   0.52323   0.00000  Uiso   1.00
C774   C     0.50007   0.45704   0.95356   0.00000  Uiso   1.00
C775   C     0.49993   0.54296   0.54644   0.00000  Uiso   1.00
C776   C     0.50002   0.58546   0.97689   0.00000  Uiso   1.00
C777   C     0.49995   0.58546   0.52310   0.00000  Uiso   1.00
C778   C     0.49998   0.41454   0.52311   0.00000  Uiso   1.00
C779   C     0.50005   0.41454   0.97690   0.00000  Uiso   1.00
C780   C     0.35461   0.45739   0.74997   0.00000  Uiso   1.00
C781   C     0.64539   0.54261   0.75003   0.00000  Uiso   1.00
C782   C     0.64539   0.45739   0.75003   0.00000  Uiso   1.00
C783   C     0.35461   0.54261   0.74997   0.00000  Uiso   1.00
C784   C     0.62393   0.50000   0.75004   0.00000  Uiso   1.00
Cu785  Cu    0.50000   0.54689   0.75000   0.00000  Uiso   1.00
Cu786  Cu    0.50000   0.45311   0.75000   0.00000  Uiso   1.00
H787   H     0.50015   0.42432   0.88956   0.00000  Uiso   1.00
H788   H     0.62938   0.57592   0.75005   0.00000  Uiso   1.00
H789   H     0.62938   0.42408   0.75005   0.00000  Uiso   1.00
H790   H     0.37062   0.57592   0.74995   0.00000  Uiso   1.00
H791   H     0.45422   0.37689   0.70003   0.00000  Uiso   1.00
H792   H     0.54578   0.62311   0.79997   0.00000  Uiso   1.00
H793   H     0.54578   0.37689   0.79997   0.00000  Uiso   1.00
H794   H     0.45422   0.62311   0.70003   0.00000  Uiso   1.00
H795   H     0.49985   0.57568   0.61044   0.00000  Uiso   1.00
H796   H     0.50012   0.57567   0.88956   0.00000  Uiso   1.00
H797   H     0.49988   0.42433   0.61044   0.00000  Uiso   1.00
H798   H     0.50004   0.61866   0.95942   0.00000  Uiso   1.00
H799   H     0.49996   0.38134   0.54058   0.00000  Uiso   1.00
H800   H     0.49992   0.61866   0.54058   0.00000  Uiso   1.00
H801   H     0.50008   0.38134   0.95942   0.00000  Uiso   1.00
H802   H     0.37062   0.42408   0.74995   0.00000  Uiso   1.00
N803   N     0.50000   0.61736   0.75000   0.00000  Uiso   1.00
N804   N     0.50000   0.38264   0.75000   0.00000  Uiso   1.00
O805   O     0.43988   0.53958   0.74999   0.00000  Uiso   1.00
O806   O     0.56012   0.46042   0.75000   0.00000  Uiso   1.00
O807   O     0.56012   0.53958   0.75000   0.00000  Uiso   1.00
O808   O     0.43988   0.46042   0.74999   0.00000  Uiso   1.00
O809   O     0.49999   0.53960   0.68513   0.00000  Uiso   1.00
O810   O     0.50001   0.46040   0.81487   0.00000  Uiso   1.00
O811   O     0.50001   0.53960   0.81487   0.00000  Uiso   1.00
O812   O     0.49999   0.46040   0.68513   0.00000  Uiso   1.00
C813   C     0.75401   0.50000   0.74996   0.00000  Uiso   1.00
C814   C     0.70940   0.50000   0.74996   0.00000  Uiso   1.00
C815   C     0.80791   0.35815   0.72225   0.00000  Uiso   1.00
C816   C     0.85876   0.64185   0.77775   0.00000  Uiso   1.00
C817   C     0.85876   0.35815   0.77775   0.00000  Uiso   1.00
C818   C     0.80791   0.64185   0.72225   0.00000  Uiso   1.00
C819   C     0.83328   0.50000   0.66425   0.00000  Uiso   1.00
C820   C     0.83339   0.50000   0.83575   0.00000  Uiso   1.00
C821   C     0.83345   0.45735   0.90738   0.00000  Uiso   1.00
C822   C     0.83321   0.54265   0.59262   0.00000  Uiso   1.00
C823   C     0.83344   0.50000   0.88419   0.00000  Uiso   1.00
C824   C     0.91266   0.50000   0.75003   0.00000  Uiso   1.00
C825   C     0.83323   0.50000   0.61581   0.00000  Uiso   1.00
C826   C     0.83344   0.54265   0.90738   0.00000  Uiso   1.00
C827   C     0.83323   0.45735   0.59262   0.00000  Uiso   1.00
C828   C     0.83339   0.54296   0.95356   0.00000  Uiso   1.00
C829   C     0.83327   0.45704   0.54644   0.00000  Uiso   1.00
C830   C     0.83337   0.50000   0.97677   0.00000  Uiso   1.00
C831   C     0.83330   0.50000   0.52323   0.00000  Uiso   1.00
C832   C     0.83341   0.45704   0.95356   0.00000  Uiso   1.00
C833   C     0.83326   0.54296   0.54644   0.00000  Uiso   1.00
C834   C     0.83335   0.58546   0.97689   0.00000  Uiso   1.00
C835   C     0.83329   0.58546   0.52310   0.00000  Uiso   1.00
C836   C     0.83331   0.41454   0.52311   0.00000  Uiso   1.00
C837   C     0.83338   0.41454   0.97690   0.00000  Uiso   1.00
C838   C     0.68795   0.45739   0.74997   0.00000  Uiso   1.00
C839   C     0.97872   0.54261   0.75003   0.00000  Uiso   1.00
C840   C     0.97872   0.45739   0.75003   0.00000  Uiso   1.00
C841   C     0.68795   0.54261   0.74997   0.00000  Uiso   1.00
C842   C     0.95727   0.50000   0.75004   0.00000  Uiso   1.00
Cu843  Cu    0.83333   0.54689   0.75000   0.00000  Uiso   1.00
Cu844  Cu    0.83333   0.45311   0.75000   0.00000  Uiso   1.00
H845   H     0.83348   0.42432   0.88956   0.00000  Uiso   1.00
H846   H     0.96271   0.57592   0.75005   0.00000  Uiso   1.00
H847   H     0.96271   0.42408   0.75005   0.00000  Uiso   1.00
H848   H     0.70396   0.57592   0.74995   0.00000  Uiso   1.00
H849   H     0.78755   0.37689   0.70003   0.00000  Uiso   1.00
H850   H     0.87912   0.62311   0.79997   0.00000  Uiso   1.00
H851   H     0.87912   0.37689   0.79997   0.00000  Uiso   1.00
H852   H     0.78755   0.62311   0.70003   0.00000  Uiso   1.00
H853   H     0.83319   0.57568   0.61044   0.00000  Uiso   1.00
H854   H     0.83346   0.57567   0.88956   0.00000  Uiso   1.00
H855   H     0.83321   0.42433   0.61044   0.00000  Uiso   1.00
H856   H     0.83337   0.61866   0.95942   0.00000  Uiso   1.00
H857   H     0.83329   0.38134   0.54058   0.00000  Uiso   1.00
H858   H     0.83326   0.61866   0.54058   0.00000  Uiso   1.00
H859   H     0.83341   0.38134   0.95942   0.00000  Uiso   1.00
H860   H     0.70396   0.42408   0.74995   0.00000  Uiso   1.00
N861   N     0.83333   0.61736   0.75000   0.00000  Uiso   1.00
N862   N     0.83333   0.38264   0.75000   0.00000  Uiso   1.00
O863   O     0.77321   0.53958   0.74999   0.00000  Uiso   1.00
O864   O     0.89345   0.46042   0.75000   0.00000  Uiso   1.00
O865   O     0.89345   0.53958   0.75000   0.00000  Uiso   1.00
O866   O     0.77321   0.46042   0.74999   0.00000  Uiso   1.00
O867   O     0.83332   0.53960   0.68513   0.00000  Uiso   1.00
O868   O     0.83334   0.46040   0.81487   0.00000  Uiso   1.00
O869   O     0.83334   0.53960   0.81487   0.00000  Uiso   1.00
O870   O     0.83332   0.46040   0.68513   0.00000  Uiso   1.00
C871   C     0.08734   0.83333   0.74996   0.00000  Uiso   1.00
C872   C     0.04273   0.83333   0.74996   0.00000  Uiso   1.00
C873   C     0.14124   0.69149   0.72225   0.00000  Uiso   1.00
C874   C     0.19209   0.97518   0.77775   0.00000  Uiso   1.00
C875   C     0.19209   0.69149   0.77775   0.00000  Uiso   1.00
C876   C     0.14124   0.97518   0.72225   0.00000  Uiso   1.00
C877   C     0.16661   0.83333   0.66425   0.00000  Uiso   1.00
C878   C     0.16672   0.83333   0.83575   0.00000  Uiso   1.00
C879   C     0.16679   0.79068   0.90738   0.00000  Uiso   1.00
C880   C     0.16655   0.87599   0.59262   0.00000  Uiso   1.00
C881   C     0.16677   0.83333   0.88419   0.00000  Uiso   1.00
C882   C     0.24599   0.83333   0.75003   0.00000  Uiso   1.00
C883   C     0.16656   0.83333   0.61581   0.00000  Uiso   1.00
C884   C     0.16677   0.87599   0.90738   0.00000  Uiso   1.00
C885   C     0.16656   0.79068   0.59262   0.00000  Uiso   1.00
C886   C     0.16673   0.87629   0.95356   0.00000  Uiso   1.00
C887   C     0.16661   0.79038   0.54644   0.00000  Uiso   1.00
C888   C     0.16670   0.83333   0.97677   0.00000  Uiso   1.00
C889   C     0.16663   0.83333   0.52323   0.00000  Uiso   1.00
C890   C     0.16674   0.79038   0.95356   0.00000  Uiso   1.00
C891   C     0.16659   0.87629   0.54644   0.00000  Uiso   1.00
C892   C     0.16669   0.91879   0.97689   0.00000  Uiso   1.00
C893   C     0.16662   0.91879   0.52310   0.00000  Uiso   1.00
C894   C     0.16665   0.74787   0.52311   0.00000  Uiso   1.00
C895   C     0.16672   0.74787   0.97690   0.00000  Uiso   1.00
C896   C     0.02128   0.79072   0.74997   0.00000  Uiso   1.00
C897   C     0.31205   0.87594   0.75003   0.00000  Uiso   1.00
C898   C     0.31205   0.79072   0.75003   0.00000  Uiso   1.00
C899   C     0.02128   0.87594   0.74997   0.00000  Uiso   1.00
C900   C     0.29060   0.83333   0.75004   0.00000  Uiso   1.00
Cu901  Cu    0.16667   0.88022   0.75000   0.00000  Uiso   1.00
Cu902  Cu    0.16667   0.78645   0.75000   0.00000  Uiso   1.00
H903   H     0.16681   0.75766   0.88956   0.00000  Uiso   1.00
H904   H     0.29604   0.90925   0.75005   0.00000  Uiso   1.00
H905   H     0.29604   0.75741   0.75005   0.00000  Uiso   1.00
H906   H     0.03729   0.90925   0.74995   0.00000  Uiso   1.00
H907   H     0.12089   0.71023   0.70003   0.00000  Uiso   1.00
H908   H     0.21245   0.95644   0.79997   0.00000  Uiso   1.00
H909   H     0.21245   0.71023   0.79997   0.00000  Uiso   1.00
H910   H     0.12089   0.95644   0.70003   0.00000  Uiso   1.00
H911   H     0.16652   0.90901   0.61044   0.00000  Uiso   1.00
H912   H     0.16679   0.90901   0.88956   0.00000  Uiso   1.00
H913   H     0.16654   0.75766   0.61044   0.00000  Uiso   1.00
H914   H     0.16671   0.95199   0.95942   0.00000  Uiso   1.00
H915   H     0.16663   0.71468   0.54058   0.00000  Uiso   1.00
H916   H     0.16659   0.95199   0.54058   0.00000  Uiso   1.00
H917   H     0.16674   0.71467   0.95942   0.00000  Uiso   1.00
H918   H     0.03729   0.75741   0.74995   0.00000  Uiso   1.00
N919   N     0.16667   0.95069   0.75000   0.00000  Uiso   1.00
N920   N     0.16667   0.71598   0.75000   0.00000  Uiso   1.00
O921   O     0.10655   0.87291   0.74999   0.00000  Uiso   1.00
O922   O     0.22679   0.79375   0.75000   0.00000  Uiso   1.00
O923   O     0.22679   0.87291   0.75000   0.00000  Uiso   1.00
O924   O     0.10655   0.79375   0.74999   0.00000  Uiso   1.00
O925   O     0.16666   0.87293   0.68513   0.00000  Uiso   1.00
O926   O     0.16668   0.79373   0.81487   0.00000  Uiso   1.00
O927   O     0.16668   0.87293   0.81487   0.00000  Uiso   1.00
O928   O     0.16666   0.79373   0.68513   0.00000  Uiso   1.00
C929   C     0.42067   0.83333   0.74996   0.00000  Uiso   1.00
C930   C     0.37607   0.83333   0.74996   0.00000  Uiso   1.00
C931   C     0.47458   0.69149   0.72225   0.00000  Uiso   1.00
C932   C     0.52542   0.97518   0.77775   0.00000  Uiso   1.00
C933   C     0.52542   0.69149   0.77775   0.00000  Uiso   1.00
C934   C     0.47458   0.97518   0.72225   0.00000  Uiso   1.00
C935   C     0.49994   0.83333   0.66425   0.00000  Uiso   1.00
C936   C     0.50006   0.83333   0.83575   0.00000  Uiso   1.00
C937   C     0.50012   0.79068   0.90738   0.00000  Uiso   1.00
C938   C     0.49988   0.87599   0.59262   0.00000  Uiso   1.00
C939   C     0.50010   0.83333   0.88419   0.00000  Uiso   1.00
C940   C     0.57933   0.83333   0.75003   0.00000  Uiso   1.00
C941   C     0.49990   0.83333   0.61581   0.00000  Uiso   1.00
C942   C     0.50011   0.87599   0.90738   0.00000  Uiso   1.00
C943   C     0.49989   0.79068   0.59262   0.00000  Uiso   1.00
C944   C     0.50006   0.87629   0.95356   0.00000  Uiso   1.00
C945   C     0.49994   0.79038   0.54644   0.00000  Uiso   1.00
C946   C     0.50003   0.83333   0.97677   0.00000  Uiso   1.00
C947   C     0.49997   0.83333   0.52323   0.00000  Uiso   1.00
C948   C     0.50007   0.79038   0.95356   0.00000  Uiso   1.00
C949   C     0.49993   0.87629   0.54644   0.00000  Uiso   1.00
C950   C     0.50002   0.91879   0.97689   0.00000  Uiso   1.00
C951   C     0.49995   0.91879   0.52310   0.00000  Uiso   1.00
C952   C     0.49998   0.74787   0.52311   0.00000  Uiso   1.00
C953   C     0.50005   0.74787   0.97690   0.00000  Uiso   1.00
C954   C     0.35461   0.79072   0.74997   0.00000  Uiso   1.00
C955   C     0.64539   0.87594   0.75003   0.00000  Uiso   1.00
C956   C     0.64539   0.79072   0.75003   0.00000  Uiso   1.00
C957   C     0.35461   0.87594   0.74997   0.00000  Uiso   1.00
C958   C     0.62393   0.83333   0.75004   0.00000  Uiso   1.00
Cu959  Cu    0.50000   0.88022   0.75000   0.00000  Uiso   1.00
Cu960  Cu    0.50000   0.78645   0.75000   0.00000  Uiso   1.00
H961   H     0.50015   0.75766   0.88956   0.00000  Uiso   1.00
H962   H     0.62938   0.90925   0.75005   0.00000  Uiso   1.00
H963   H     0.62938   0.75741   0.75005   0.00000  Uiso   1.00
H964   H     0.37062   0.90925   0.74995   0.00000  Uiso   1.00
H965   H     0.45422   0.71023   0.70003   0.00000  Uiso   1.00
H966   H     0.54578   0.95644   0.79997   0.00000  Uiso   1.00
H967   H     0.54578   0.71023   0.79997   0.00000  Uiso   1.00
H968   H     0.45422   0.95644   0.70003   0.00000  Uiso   1.00
H969   H     0.49985   0.90901   0.61044   0.00000  Uiso   1.00
H970   H     0.50012   0.90901   0.88956   0.00000  Uiso   1.00
H971   H     0.49988   0.75766   0.61044   0.00000  Uiso   1.00
H972   H     0.50004   0.95199   0.95942   0.00000  Uiso   1.00
H973   H     0.49996   0.71468   0.54058   0.00000  Uiso   1.00
H974   H     0.49992   0.95199   0.54058   0.00000  Uiso   1.00
H975   H     0.50008   0.71467   0.95942   0.00000  Uiso   1.00
H976   H     0.37062   0.75741   0.74995   0.00000  Uiso   1.00
N977   N     0.50000   0.95069   0.75000   0.00000  Uiso   1.00
N978   N     0.50000   0.71598   0.75000   0.00000  Uiso   1.00
O979   O     0.43988   0.87291   0.74999   0.00000  Uiso   1.00
O980   O     0.56012   0.79375   0.75000   0.00000  Uiso   1.00
O981   O     0.56012   0.87291   0.75000   0.00000  Uiso   1.00
O982   O     0.43988   0.79375   0.74999   0.00000  Uiso   1.00
O983   O     0.49999   0.87293   0.68513   0.00000  Uiso   1.00
O984   O     0.50001   0.79373   0.81487   0.00000  Uiso   1.00
O985   O     0.50001   0.87293   0.81487   0.00000  Uiso   1.00
O986   O     0.49999   0.79373   0.68513   0.00000  Uiso   1.00
C987   C     0.75401   0.83333   0.74996   0.00000  Uiso   1.00
C988   C     0.70940   0.83333   0.74996   0.00000  Uiso   1.00
C989   C     0.80791   0.69149   0.72225   0.00000  Uiso   1.00
C990   C     0.85876   0.97518   0.77775   0.00000  Uiso   1.00
C991   C     0.85876   0.69149   0.77775   0.00000  Uiso   1.00
C992   C     0.80791   0.97518   0.72225   0.00000  Uiso   1.00
C993   C     0.83328   0.83333   0.66425   0.00000  Uiso   1.00
C994   C     0.83339   0.83333   0.83575   0.00000  Uiso   1.00
C995   C     0.83345   0.79068   0.90738   0.00000  Uiso   1.00
C996   C     0.83321   0.87599   0.59262   0.00000  Uiso   1.00
C997   C     0.83344   0.83333   0.88419   0.00000  Uiso   1.00
C998   C     0.91266   0.83333   0.75003   0.00000  Uiso   1.00
C999   C     0.83323   0.83333   0.61581   0.00000  Uiso   1.00
C1000  C     0.83344   0.87599   0.90738   0.00000  Uiso   1.00
C1001  C     0.83323   0.79068   0.59262   0.00000  Uiso   1.00
C1002  C     0.83339   0.87629   0.95356   0.00000  Uiso   1.00
C1003  C     0.83327   0.79038   0.54644   0.00000  Uiso   1.00
C1004  C     0.83337   0.83333   0.97677   0.00000  Uiso   1.00
C1005  C     0.83330   0.83333   0.52323   0.00000  Uiso   1.00
C1006  C     0.83341   0.79038   0.95356   0.00000  Uiso   1.00
C1007  C     0.83326   0.87629   0.54644   0.00000  Uiso   1.00
C1008  C     0.83335   0.91879   0.97689   0.00000  Uiso   1.00
C1009  C     0.83329   0.91879   0.52310   0.00000  Uiso   1.00
C1010  C     0.83331   0.74787   0.52311   0.00000  Uiso   1.00
C1011  C     0.83338   0.74787   0.97690   0.00000  Uiso   1.00
C1012  C     0.68795   0.79072   0.74997   0.00000  Uiso   1.00
C1013  C     0.97872   0.87594   0.75003   0.00000  Uiso   1.00
C1014  C     0.97872   0.79072   0.75003   0.00000  Uiso   1.00
C1015  C     0.68795   0.87594   0.74997   0.00000  Uiso   1.00
C1016  C     0.95727   0.83333   0.75004   0.00000  Uiso   1.00
Cu1017 Cu    0.83333   0.88022   0.75000   0.00000  Uiso   1.00
Cu1018 Cu    0.83333   0.78645   0.75000   0.00000  Uiso   1.00
H1019  H     0.83348   0.75766   0.88956   0.00000  Uiso   1.00
H1020  H     0.96271   0.90925   0.75005   0.00000  Uiso   1.00
H1021  H     0.96271   0.75741   0.75005   0.00000  Uiso   1.00
H1022  H     0.70396   0.90925   0.74995   0.00000  Uiso   1.00
H1023  H     0.78755   0.71023   0.70003   0.00000  Uiso   1.00
H1024  H     0.87912   0.95644   0.79997   0.00000  Uiso   1.00
H1025  H     0.87912   0.71023   0.79997   0.00000  Uiso   1.00
H1026  H     0.78755   0.95644   0.70003   0.00000  Uiso   1.00
H1027  H     0.83319   0.90901   0.61044   0.00000  Uiso   1.00
H1028  H     0.83346   0.90901   0.88956   0.00000  Uiso   1.00
H1029  H     0.83321   0.75766   0.61044   0.00000  Uiso   1.00
H1030  H     0.83337   0.95199   0.95942   0.00000  Uiso   1.00
H1031  H     0.83329   0.71468   0.54058   0.00000  Uiso   1.00
H1032  H     0.83326   0.95199   0.54058   0.00000  Uiso   1.00
H1033  H     0.83341   0.71467   0.95942   0.00000  Uiso   1.00
H1034  H     0.70396   0.75741   0.74995   0.00000  Uiso   1.00
N1035  N     0.83333   0.95069   0.75000   0.00000  Uiso   1.00
N1036  N     0.83333   0.71598   0.75000   0.00000  Uiso   1.00
O1037  O     0.77321   0.87291   0.74999   0.00000  Uiso   1.00
O1038  O     0.89345   0.79375   0.75000   0.00000  Uiso   1.00
O1039  O     0.89345   0.87291   0.75000   0.00000  Uiso   1.00
O1040  O     0.77321   0.79375   0.74999   0.00000  Uiso   1.00
O1041  O     0.83332   0.87293   0.68513   0.00000  Uiso   1.00
O1042  O     0.83334   0.79373   0.81487   0.00000  Uiso   1.00
O1043  O     0.83334   0.87293   0.81487   0.00000  Uiso   1.00
O1044  O     0.83332   0.79373   0.68513   0.00000  Uiso   1.00
loop_
_geom_bond_atom_site_label_1
_geom_bond_atom_site_label_2
_geom_bond_distance
_geom_bond_site_symmetry_2
_ccdc_geom_bond_type
C1     O54     1.290   .     A
C1     O51     1.290   .     A
C1     C2      1.450   .     S
C2     C26     1.401   .     A
C2     C29     1.401   .     A
C3     N50     1.367   .     A
C3     H37     1.082   .     S
C3     C354    1.416   1_545 S
C4     N49     1.367   .     A
C4     H38     1.082   .     S
C4     C179    1.416   .     S
C5     N50     1.367   .     A
C5     H39     1.082   .     S
C5     C352    1.416   1_545 S
C6     H40     1.082   .     S
C6     N49     1.367   .     A
C6     C177    1.416   .     S
C7     O55     1.293   .     A
C7     C13     1.462   .     S
C7     O58     1.293   .     A
C8     O57     1.293   .     A
C8     O56     1.293   .     A
C8     C11     1.462   .     S
C9     C11     1.403   .     A
C9     C20     1.393   .     A
C9     H33     1.084   .     S
C10    H41     1.084   .     S
C10    C21     1.393   .     A
C10    C13     1.403   .     A
C11    C14     1.403   .     A
C12    O52     1.290   .     A
C12    C30     1.450   .     S
C12    O53     1.290   .     A
C13    C15     1.403   .     A
C14    H42     1.084   .     S
C14    C16     1.393   .     A
C15    H43     1.084   .     S
C15    C17     1.393   .     A
C16    C18     1.411   .     A
C16    C22     1.402   .     A
C17    C24     1.402   .     A
C17    C19     1.411   .     A
C18    C20     1.411   .     A
C18    C541    1.402   .     S
C19    C21     1.411   .     A
C19    C540    1.402   1_554 S
C20    C25     1.402   .     A
C21    C23     1.402   .     A
C22    H44     1.084   .     S
C22    C545    1.394   .     S
C23    H46     1.084   .     S
C23    C544    1.394   1_554 S
C24    H45     1.084   .     S
C24    C547    1.394   1_554 S
C25    H47     1.084   .     S
C25    C546    1.394   .     S
C26    H48     1.083   .     S
C26    C144    1.384   1_455 S
C27    H34     1.083   .     S
C27    C30     1.401   .     A
C27    C87     1.384   .     S
C28    C30     1.401   .     A
C28    H35     1.083   .     S
C28    C84     1.384   .     S
C29    H36     1.083   .     S
C29    C143    1.384   1_455 S
Cu31   Cu32    2.675   .     S
Cu31   O57     1.968   .     S
Cu31   O53     1.965   .     S
Cu31   N49     2.010   .     S
Cu31   O55     1.968   .     S
Cu31   O51     1.965   .     S
Cu32   N50     2.010   .     S
Cu32   O58     1.968   .     S
Cu32   O54     1.965   .     S
Cu32   O56     1.968   .     S
Cu32   O52     1.965   .     S
C59    O112    1.290   .     A
C59    O109    1.290   .     A
C59    C60     1.450   .     S
C60    C84     1.401   .     A
C60    C87     1.401   .     A
C61    N108    1.367   .     A
C61    H95     1.082   .     S
C61    C412    1.416   1_545 S
C62    N107    1.367   .     A
C62    H96     1.082   .     S
C62    C237    1.416   .     S
C63    N108    1.367   .     A
C63    H97     1.082   .     S
C63    C410    1.416   1_545 S
C64    H98     1.082   .     S
C64    N107    1.367   .     A
C64    C235    1.416   .     S
C65    O113    1.293   .     A
C65    C71     1.462   .     S
C65    O116    1.293   .     A
C66    O115    1.293   .     A
C66    O114    1.293   .     A
C66    C69     1.462   .     S
C67    C69     1.403   .     A
C67    C78     1.393   .     A
C67    H91     1.084   .     S
C68    H99     1.084   .     S
C68    C79     1.393   .     A
C68    C71     1.403   .     A
C69    C72     1.403   .     A
C70    O110    1.290   .     A
C70    C88     1.450   .     S
C70    O111    1.290   .     A
C71    C73     1.403   .     A
C72    H100    1.084   .     S
C72    C74     1.393   .     A
C73    H101    1.084   .     S
C73    C75     1.393   .     A
C74    C76     1.411   .     A
C74    C80     1.402   .     A
C75    C82     1.402   .     A
C75    C77     1.411   .     A
C76    C78     1.411   .     A
C76    C599    1.402   .     S
C77    C79     1.411   .     A
C77    C598    1.402   1_554 S
C78    C83     1.402   .     A
C79    C81     1.402   .     A
C80    H102    1.084   .     S
C80    C603    1.394   .     S
C81    H104    1.084   .     S
C81    C602    1.394   1_554 S
C82    H103    1.084   .     S
C82    C605    1.394   1_554 S
C83    H105    1.084   .     S
C83    C604    1.394   .     S
C84    H106    1.083   .     S
C85    H92     1.083   .     S
C85    C88     1.401   .     A
C85    C145    1.384   .     S
C86    C88     1.401   .     A
C86    H93     1.083   .     S
C86    C142    1.384   .     S
C87    H94     1.083   .     S
Cu89   Cu90    2.675   .     S
Cu89   O115    1.968   .     S
Cu89   O111    1.965   .     S
Cu89   N107    2.010   .     S
Cu89   O113    1.968   .     S
Cu89   O109    1.965   .     S
Cu90   N108    2.010   .     S
Cu90   O116    1.968   .     S
Cu90   O112    1.965   .     S
Cu90   O114    1.968   .     S
Cu90   O110    1.965   .     S
C117   O170    1.290   .     A
C117   O167    1.290   .     A
C117   C118    1.450   .     S
C118   C142    1.401   .     A
C118   C145    1.401   .     A
C119   N166    1.367   .     A
C119   H153    1.082   .     S
C119   C470    1.416   1_545 S
C120   N165    1.367   .     A
C120   H154    1.082   .     S
C120   C295    1.416   .     S
C121   N166    1.367   .     A
C121   H155    1.082   .     S
C121   C468    1.416   1_545 S
C122   H156    1.082   .     S
C122   N165    1.367   .     A
C122   C293    1.416   .     S
C123   O171    1.293   .     A
C123   C129    1.462   .     S
C123   O174    1.293   .     A
C124   O173    1.293   .     A
C124   O172    1.293   .     A
C124   C127    1.462   .     S
C125   C127    1.403   .     A
C125   C136    1.393   .     A
C125   H149    1.084   .     S
C126   H157    1.084   .     S
C126   C137    1.393   .     A
C126   C129    1.403   .     A
C127   C130    1.403   .     A
C128   O168    1.290   .     A
C128   C146    1.450   .     S
C128   O169    1.290   .     A
C129   C131    1.403   .     A
C130   H158    1.084   .     S
C130   C132    1.393   .     A
C131   H159    1.084   .     S
C131   C133    1.393   .     A
C132   C134    1.411   .     A
C132   C138    1.402   .     A
C133   C140    1.402   .     A
C133   C135    1.411   .     A
C134   C136    1.411   .     A
C134   C657    1.402   .     S
C135   C137    1.411   .     A
C135   C656    1.402   1_554 S
C136   C141    1.402   .     A
C137   C139    1.402   .     A
C138   H160    1.084   .     S
C138   C661    1.394   .     S
C139   H162    1.084   .     S
C139   C660    1.394   1_554 S
C140   H161    1.084   .     S
C140   C663    1.394   1_554 S
C141   H163    1.084   .     S
C141   C662    1.394   .     S
C142   H164    1.083   .     S
C143   H150    1.083   .     S
C143   C146    1.401   .     A
C143   C29     1.384   1_655 S
C144   C146    1.401   .     A
C144   H151    1.083   .     S
C144   C26     1.384   1_655 S
C145   H152    1.083   .     S
Cu147  Cu148   2.675   .     S
Cu147  O173    1.968   .     S
Cu147  O169    1.965   .     S
Cu147  N165    2.010   .     S
Cu147  O171    1.968   .     S
Cu147  O167    1.965   .     S
Cu148  N166    2.010   .     S
Cu148  O174    1.968   .     S
Cu148  O170    1.965   .     S
Cu148  O172    1.968   .     S
Cu148  O168    1.965   .     S
C175   O228    1.290   .     A
C175   O225    1.290   .     A
C175   C176    1.450   .     S
C176   C200    1.401   .     A
C176   C203    1.401   .     A
C177   N224    1.367   .     A
C177   H211    1.082   .     S
C178   N223    1.367   .     A
C178   H212    1.082   .     S
C178   C353    1.416   .     S
C179   N224    1.367   .     A
C179   H213    1.082   .     S
C180   H214    1.082   .     S
C180   N223    1.367   .     A
C180   C351    1.416   .     S
C181   O229    1.293   .     A
C181   C187    1.462   .     S
C181   O232    1.293   .     A
C182   O231    1.293   .     A
C182   O230    1.293   .     A
C182   C185    1.462   .     S
C183   C185    1.403   .     A
C183   C194    1.393   .     A
C183   H207    1.084   .     S
C184   H215    1.084   .     S
C184   C195    1.393   .     A
C184   C187    1.403   .     A
C185   C188    1.403   .     A
C186   O226    1.290   .     A
C186   C204    1.450   .     S
C186   O227    1.290   .     A
C187   C189    1.403   .     A
C188   H216    1.084   .     S
C188   C190    1.393   .     A
C189   H217    1.084   .     S
C189   C191    1.393   .     A
C190   C192    1.411   .     A
C190   C196    1.402   .     A
C191   C198    1.402   .     A
C191   C193    1.411   .     A
C192   C194    1.411   .     A
C192   C715    1.402   .     S
C193   C195    1.411   .     A
C193   C714    1.402   1_554 S
C194   C199    1.402   .     A
C195   C197    1.402   .     A
C196   H218    1.084   .     S
C196   C719    1.394   .     S
C197   H220    1.084   .     S
C197   C718    1.394   1_554 S
C198   H219    1.084   .     S
C198   C721    1.394   1_554 S
C199   H221    1.084   .     S
C199   C720    1.394   .     S
C200   H222    1.083   .     S
C200   C318    1.384   1_455 S
C201   H208    1.083   .     S
C201   C204    1.401   .     A
C201   C261    1.384   .     S
C202   C204    1.401   .     A
C202   H209    1.083   .     S
C202   C258    1.384   .     S
C203   H210    1.083   .     S
C203   C317    1.384   1_455 S
Cu205  Cu206   2.675   .     S
Cu205  O231    1.968   .     S
Cu205  O227    1.965   .     S
Cu205  N223    2.010   .     S
Cu205  O229    1.968   .     S
Cu205  O225    1.965   .     S
Cu206  N224    2.010   .     S
Cu206  O232    1.968   .     S
Cu206  O228    1.965   .     S
Cu206  O230    1.968   .     S
Cu206  O226    1.965   .     S
C233   O286    1.290   .     A
C233   O283    1.290   .     A
C233   C234    1.450   .     S
C234   C258    1.401   .     A
C234   C261    1.401   .     A
C235   N282    1.367   .     A
C235   H269    1.082   .     S
C236   N281    1.367   .     A
C236   H270    1.082   .     S
C236   C411    1.416   .     S
C237   N282    1.367   .     A
C237   H271    1.082   .     S
C238   H272    1.082   .     S
C238   N281    1.367   .     A
C238   C409    1.416   .     S
C239   O287    1.293   .     A
C239   C245    1.462   .     S
C239   O290    1.293   .     A
C240   O289    1.293   .     A
C240   O288    1.293   .     A
C240   C243    1.462   .     S
C241   C243    1.403   .     A
C241   C252    1.393   .     A
C241   H265    1.084   .     S
C242   H273    1.084   .     S
C242   C253    1.393   .     A
C242   C245    1.403   .     A
C243   C246    1.403   .     A
C244   O284    1.290   .     A
C244   C262    1.450   .     S
C244   O285    1.290   .     A
C245   C247    1.403   .     A
C246   H274    1.084   .     S
C246   C248    1.393   .     A
C247   H275    1.084   .     S
C247   C249    1.393   .     A
C248   C250    1.411   .     A
C248   C254    1.402   .     A
C249   C256    1.402   .     A
C249   C251    1.411   .     A
C250   C252    1.411   .     A
C250   C773    1.402   .     S
C251   C253    1.411   .     A
C251   C772    1.402   1_554 S
C252   C257    1.402   .     A
C253   C255    1.402   .     A
C254   H276    1.084   .     S
C254   C777    1.394   .     S
C255   H278    1.084   .     S
C255   C776    1.394   1_554 S
C256   H277    1.084   .     S
C256   C779    1.394   1_554 S
C257   H279    1.084   .     S
C257   C778    1.394   .     S
C258   H280    1.083   .     S
C259   H266    1.083   .     S
C259   C262    1.401   .     A
C259   C319    1.384   .     S
C260   C262    1.401   .     A
C260   H267    1.083   .     S
C260   C316    1.384   .     S
C261   H268    1.083   .     S
Cu263  Cu264   2.675   .     S
Cu263  O289    1.968   .     S
Cu263  O285    1.965   .     S
Cu263  N281    2.010   .     S
Cu263  O287    1.968   .     S
Cu263  O283    1.965   .     S
Cu264  N282    2.010   .     S
Cu264  O290    1.968   .     S
Cu264  O286    1.965   .     S
Cu264  O288    1.968   .     S
Cu264  O284    1.965   .     S
C291   O344    1.290   .     A
C291   O341    1.290   .     A
C291   C292    1.450   .     S
C292   C316    1.401   .     A
C292   C319    1.401   .     A
C293   N340    1.367   .     A
C293   H327    1.082   .     S
C294   N339    1.367   .     A
C294   H328    1.082   .     S
C294   C469    1.416   .     S
C295   N340    1.367   .     A
C295   H329    1.082   .     S
C296   H330    1.082   .     S
C296   N339    1.367   .     A
C296   C467    1.416   .     S
C297   O345    1.293   .     A
C297   C303    1.462   .     S
C297   O348    1.293   .     A
C298   O347    1.293   .     A
C298   O346    1.293   .     A
C298   C301    1.462   .     S
C299   C301    1.403   .     A
C299   C310    1.393   .     A
C299   H323    1.084   .     S
C300   H331    1.084   .     S
C300   C311    1.393   .     A
C300   C303    1.403   .     A
C301   C304    1.403   .     A
C302   O342    1.290   .     A
C302   C320    1.450   .     S
C302   O343    1.290   .     A
C303   C305    1.403   .     A
C304   H332    1.084   .     S
C304   C306    1.393   .     A
C305   H333    1.084   .     S
C305   C307    1.393   .     A
C306   C308    1.411   .     A
C306   C312    1.402   .     A
C307   C314    1.402   .     A
C307   C309    1.411   .     A
C308   C310    1.411   .     A
C308   C831    1.402   .     S
C309   C311    1.411   .     A
C309   C830    1.402   1_554 S
C310   C315    1.402   .     A
C311   C313    1.402   .     A
C312   H334    1.084   .     S
C312   C835    1.394   .     S
C313   H336    1.084   .     S
C313   C834    1.394   1_554 S
C314   H335    1.084   .     S
C314   C837    1.394   1_554 S
C315   H337    1.084   .     S
C315   C836    1.394   .     S
C316   H338    1.083   .     S
C317   H324    1.083   .     S
C317   C320    1.401   .     A
C317   C203    1.384   1_655 S
C318   C320    1.401   .     A
C318   H325    1.083   .     S
C318   C200    1.384   1_655 S
C319   H326    1.083   .     S
Cu321  Cu322   2.675   .     S
Cu321  O347    1.968   .     S
Cu321  O343    1.965   .     S
Cu321  N339    2.010   .     S
Cu321  O345    1.968   .     S
Cu321  O341    1.965   .     S
Cu322  N340    2.010   .     S
Cu322  O348    1.968   .     S
Cu322  O344    1.965   .     S
Cu322  O346    1.968   .     S
Cu322  O342    1.965   .     S
C349   O402    1.290   .     A
C349   O399    1.290   .     A
C349   C350    1.450   .     S
C350   C374    1.401   .     A
C350   C377    1.401   .     A
C351   N398    1.367   .     A
C351   H385    1.082   .     S
C352   N397    1.367   .     A
C352   H386    1.082   .     S
C352   C5      1.416   1_565 S
C353   N398    1.367   .     A
C353   H387    1.082   .     S
C354   H388    1.082   .     S
C354   N397    1.367   .     A
C354   C3      1.416   1_565 S
C355   O403    1.293   .     A
C355   C361    1.462   .     S
C355   O406    1.293   .     A
C356   O405    1.293   .     A
C356   O404    1.293   .     A
C356   C359    1.462   .     S
C357   C359    1.403   .     A
C357   C368    1.393   .     A
C357   H381    1.084   .     S
C358   H389    1.084   .     S
C358   C369    1.393   .     A
C358   C361    1.403   .     A
C359   C362    1.403   .     A
C360   O400    1.290   .     A
C360   C378    1.450   .     S
C360   O401    1.290   .     A
C361   C363    1.403   .     A
C362   H390    1.084   .     S
C362   C364    1.393   .     A
C363   H391    1.084   .     S
C363   C365    1.393   .     A
C364   C366    1.411   .     A
C364   C370    1.402   .     A
C365   C372    1.402   .     A
C365   C367    1.411   .     A
C366   C368    1.411   .     A
C366   C889    1.402   .     S
C367   C369    1.411   .     A
C367   C888    1.402   1_554 S
C368   C373    1.402   .     A
C369   C371    1.402   .     A
C370   H392    1.084   .     S
C370   C893    1.394   .     S
C371   H394    1.084   .     S
C371   C892    1.394   1_554 S
C372   H393    1.084   .     S
C372   C895    1.394   1_554 S
C373   H395    1.084   .     S
C373   C894    1.394   .     S
C374   H396    1.083   .     S
C374   C492    1.384   1_455 S
C375   H382    1.083   .     S
C375   C378    1.401   .     A
C375   C435    1.384   .     S
C376   C378    1.401   .     A
C376   H383    1.083   .     S
C376   C432    1.384   .     S
C377   H384    1.083   .     S
C377   C491    1.384   1_455 S
Cu379  Cu380   2.675   .     S
Cu379  O405    1.968   .     S
Cu379  O401    1.965   .     S
Cu379  N397    2.010   .     S
Cu379  O403    1.968   .     S
Cu379  O399    1.965   .     S
Cu380  N398    2.010   .     S
Cu380  O406    1.968   .     S
Cu380  O402    1.965   .     S
Cu380  O404    1.968   .     S
Cu380  O400    1.965   .     S
C407   O460    1.290   .     A
C407   O457    1.290   .     A
C407   C408    1.450   .     S
C408   C432    1.401   .     A
C408   C435    1.401   .     A
C409   N456    1.367   .     A
C409   H443    1.082   .     S
C410   N455    1.367   .     A
C410   H444    1.082   .     S
C410   C63     1.416   1_565 S
C411   N456    1.367   .     A
C411   H445    1.082   .     S
C412   H446    1.082   .     S
C412   N455    1.367   .     A
C412   C61     1.416   1_565 S
C413   O461    1.293   .     A
C413   C419    1.462   .     S
C413   O464    1.293   .     A
C414   O463    1.293   .     A
C414   O462    1.293   .     A
C414   C417    1.462   .     S
C415   C417    1.403   .     A
C415   C426    1.393   .     A
C415   H439    1.084   .     S
C416   H447    1.084   .     S
C416   C427    1.393   .     A
C416   C419    1.403   .     A
C417   C420    1.403   .     A
C418   O458    1.290   .     A
C418   C436    1.450   .     S
C418   O459    1.290   .     A
C419   C421    1.403   .     A
C420   H448    1.084   .     S
C420   C422    1.393   .     A
C421   H449    1.084   .     S
C421   C423    1.393   .     A
C422   C424    1.411   .     A
C422   C428    1.402   .     A
C423   C430    1.402   .     A
C423   C425    1.411   .     A
C424   C426    1.411   .     A
C424   C947    1.402   .     S
C425   C427    1.411   .     A
C425   C946    1.402   1_554 S
C426   C431    1.402   .     A
C427   C429    1.402   .     A
C428   H450    1.084   .     S
C428   C951    1.394   .     S
C429   H452    1.084   .     S
C429   C950    1.394   1_554 S
C430   H451    1.084   .     S
C430   C953    1.394   1_554 S
C431   H453    1.084   .     S
C431   C952    1.394   .     S
C432   H454    1.083   .     S
C433   H440    1.083   .     S
C433   C436    1.401   .     A
C433   C493    1.384   .     S
C434   C436    1.401   .     A
C434   H441    1.083   .     S
C434   C490    1.384   .     S
C435   H442    1.083   .     S
Cu437  Cu438   2.675   .     S
Cu437  O463    1.968   .     S
Cu437  O459    1.965   .     S
Cu437  N455    2.010   .     S
Cu437  O461    1.968   .     S
Cu437  O457    1.965   .     S
Cu438  N456    2.010   .     S
Cu438  O464    1.968   .     S
Cu438  O460    1.965   .     S
Cu438  O462    1.968   .     S
Cu438  O458    1.965   .     S
C465   O518    1.290   .     A
C465   O515    1.290   .     A
C465   C466    1.450   .     S
C466   C490    1.401   .     A
C466   C493    1.401   .     A
C467   N514    1.367   .     A
C467   H501    1.082   .     S
C468   N513    1.367   .     A
C468   H502    1.082   .     S
C468   C121    1.416   1_565 S
C469   N514    1.367   .     A
C469   H503    1.082   .     S
C470   H504    1.082   .     S
C470   N513    1.367   .     A
C470   C119    1.416   1_565 S
C471   O519    1.293   .     A
C471   C477    1.462   .     S
C471   O522    1.293   .     A
C472   O521    1.293   .     A
C472   O520    1.293   .     A
C472   C475    1.462   .     S
C473   C475    1.403   .     A
C473   C484    1.393   .     A
C473   H497    1.084   .     S
C474   H505    1.084   .     S
C474   C485    1.393   .     A
C474   C477    1.403   .     A
C475   C478    1.403   .     A
C476   O516    1.290   .     A
C476   C494    1.450   .     S
C476   O517    1.290   .     A
C477   C479    1.403   .     A
C478   H506    1.084   .     S
C478   C480    1.393   .     A
C479   H507    1.084   .     S
C479   C481    1.393   .     A
C480   C482    1.411   .     A
C480   C486    1.402   .     A
C481   C488    1.402   .     A
C481   C483    1.411   .     A
C482   C484    1.411   .     A
C482   C1005   1.402   .     S
C483   C485    1.411   .     A
C483   C1004   1.402   1_554 S
C484   C489    1.402   .     A
C485   C487    1.402   .     A
C486   H508    1.084   .     S
C486   C1009   1.394   .     S
C487   H510    1.084   .     S
C487   C1008   1.394   1_554 S
C488   H509    1.084   .     S
C488   C1011   1.394   1_554 S
C489   H511    1.084   .     S
C489   C1010   1.394   .     S
C490   H512    1.083   .     S
C491   H498    1.083   .     S
C491   C494    1.401   .     A
C491   C377    1.384   1_655 S
C492   C494    1.401   .     A
C492   H499    1.083   .     S
C492   C374    1.384   1_655 S
C493   H500    1.083   .     S
Cu495  Cu496   2.675   .     S
Cu495  O521    1.968   .     S
Cu495  O517    1.965   .     S
Cu495  N513    2.010   .     S
Cu495  O519    1.968   .     S
Cu495  O515    1.965   .     S
Cu496  N514    2.010   .     S
Cu496  O522    1.968   .     S
Cu496  O518    1.965   .     S
Cu496  O520    1.968   .     S
Cu496  O516    1.965   .     S
C523   O576    1.290   .     A
C523   O573    1.290   .     A
C523   C524    1.450   .     S
C524   C548    1.401   .     A
C524   C551    1.401   .     A
C525   N572    1.367   .     A
C525   H559    1.082   .     S
C525   C876    1.416   1_545 S
C526   N571    1.367   .     A
C526   H560    1.082   .     S
C526   C701    1.416   .     S
C527   N572    1.367   .     A
C527   H561    1.082   .     S
C527   C874    1.416   1_545 S
C528   H562    1.082   .     S
C528   N571    1.367   .     A
C528   C699    1.416   .     S
C529   O577    1.293   .     A
C529   C535    1.462   .     S
C529   O580    1.293   .     A
C530   O579    1.293   .     A
C530   O578    1.293   .     A
C530   C533    1.462   .     S
C531   C533    1.403   .     A
C531   C542    1.393   .     A
C531   H555    1.084   .     S
C532   H563    1.084   .     S
C532   C543    1.393   .     A
C532   C535    1.403   .     A
C533   C536    1.403   .     A
C534   O574    1.290   .     A
C534   C552    1.450   .     S
C534   O575    1.290   .     A
C535   C537    1.403   .     A
C536   H564    1.084   .     S
C536   C538    1.393   .     A
C537   H565    1.084   .     S
C537   C539    1.393   .     A
C538   C540    1.411   .     A
C538   C544    1.402   .     A
C539   C546    1.402   .     A
C539   C541    1.411   .     A
C540   C542    1.411   .     A
C540   C19     1.402   1_556 S
C541   C543    1.411   .     A
C542   C547    1.402   .     A
C543   C545    1.402   .     A
C544   H566    1.084   .     S
C544   C23     1.394   1_556 S
C545   H568    1.084   .     S
C546   H567    1.084   .     S
C547   H569    1.084   .     S
C547   C24     1.394   1_556 S
C548   H570    1.083   .     S
C548   C666    1.384   1_455 S
C549   H556    1.083   .     S
C549   C552    1.401   .     A
C549   C609    1.384   .     S
C550   C552    1.401   .     A
C550   H557    1.083   .     S
C550   C606    1.384   .     S
C551   H558    1.083   .     S
C551   C665    1.384   1_455 S
Cu553  Cu554   2.675   .     S
Cu553  O579    1.968   .     S
Cu553  O575    1.965   .     S
Cu553  N571    2.010   .     S
Cu553  O577    1.968   .     S
Cu553  O573    1.965   .     S
Cu554  N572    2.010   .     S
Cu554  O580    1.968   .     S
Cu554  O576    1.965   .     S
Cu554  O578    1.968   .     S
Cu554  O574    1.965   .     S
C581   O634    1.290   .     A
C581   O631    1.290   .     A
C581   C582    1.450   .     S
C582   C606    1.401   .     A
C582   C609    1.401   .     A
C583   N630    1.367   .     A
C583   H617    1.082   .     S
C583   C934    1.416   1_545 S
C584   N629    1.367   .     A
C584   H618    1.082   .     S
C584   C759    1.416   .     S
C585   N630    1.367   .     A
C585   H619    1.082   .     S
C585   C932    1.416   1_545 S
C586   H620    1.082   .     S
C586   N629    1.367   .     A
C586   C757    1.416   .     S
C587   O635    1.293   .     A
C587   C593    1.462   .     S
C587   O638    1.293   .     A
C588   O637    1.293   .     A
C588   O636    1.293   .     A
C588   C591    1.462   .     S
C589   C591    1.403   .     A
C589   C600    1.393   .     A
C589   H613    1.084   .     S
C590   H621    1.084   .     S
C590   C601    1.393   .     A
C590   C593    1.403   .     A
C591   C594    1.403   .     A
C592   O632    1.290   .     A
C592   C610    1.450   .     S
C592   O633    1.290   .     A
C593   C595    1.403   .     A
C594   H622    1.084   .     S
C594   C596    1.393   .     A
C595   H623    1.084   .     S
C595   C597    1.393   .     A
C596   C598    1.411   .     A
C596   C602    1.402   .     A
C597   C604    1.402   .     A
C597   C599    1.411   .     A
C598   C600    1.411   .     A
C598   C77     1.402   1_556 S
C599   C601    1.411   .     A
C600   C605    1.402   .     A
C601   C603    1.402   .     A
C602   H624    1.084   .     S
C602   C81     1.394   1_556 S
C603   H626    1.084   .     S
C604   H625    1.084   .     S
C605   H627    1.084   .     S
C605   C82     1.394   1_556 S
C606   H628    1.083   .     S
C607   H614    1.083   .     S
C607   C610    1.401   .     A
C607   C667    1.384   .     S
C608   C610    1.401   .     A
C608   H615    1.083   .     S
C608   C664    1.384   .     S
C609   H616    1.083   .     S
Cu611  Cu612   2.675   .     S
Cu611  O637    1.968   .     S
Cu611  O633    1.965   .     S
Cu611  N629    2.010   .     S
Cu611  O635    1.968   .     S
Cu611  O631    1.965   .     S
Cu612  N630    2.010   .     S
Cu612  O638    1.968   .     S
Cu612  O634    1.965   .     S
Cu612  O636    1.968   .     S
Cu612  O632    1.965   .     S
C639   O692    1.290   .     A
C639   O689    1.290   .     A
C639   C640    1.450   .     S
C640   C664    1.401   .     A
C640   C667    1.401   .     A
C641   N688    1.367   .     A
C641   H675    1.082   .     S
C641   C992    1.416   1_545 S
C642   N687    1.367   .     A
C642   H676    1.082   .     S
C642   C817    1.416   .     S
C643   N688    1.367   .     A
C643   H677    1.082   .     S
C643   C990    1.416   1_545 S
C644   H678    1.082   .     S
C644   N687    1.367   .     A
C644   C815    1.416   .     S
C645   O693    1.293   .     A
C645   C651    1.462   .     S
C645   O696    1.293   .     A
C646   O695    1.293   .     A
C646   O694    1.293   .     A
C646   C649    1.462   .     S
C647   C649    1.403   .     A
C647   C658    1.393   .     A
C647   H671    1.084   .     S
C648   H679    1.084   .     S
C648   C659    1.393   .     A
C648   C651    1.403   .     A
C649   C652    1.403   .     A
C650   O690    1.290   .     A
C650   C668    1.450   .     S
C650   O691    1.290   .     A
C651   C653    1.403   .     A
C652   H680    1.084   .     S
C652   C654    1.393   .     A
C653   H681    1.084   .     S
C653   C655    1.393   .     A
C654   C656    1.411   .     A
C654   C660    1.402   .     A
C655   C662    1.402   .     A
C655   C657    1.411   .     A
C656   C658    1.411   .     A
C656   C135    1.402   1_556 S
C657   C659    1.411   .     A
C658   C663    1.402   .     A
C659   C661    1.402   .     A
C660   H682    1.084   .     S
C660   C139    1.394   1_556 S
C661   H684    1.084   .     S
C662   H683    1.084   .     S
C663   H685    1.084   .     S
C663   C140    1.394   1_556 S
C664   H686    1.083   .     S
C665   H672    1.083   .     S
C665   C668    1.401   .     A
C665   C551    1.384   1_655 S
C666   C668    1.401   .     A
C666   H673    1.083   .     S
C666   C548    1.384   1_655 S
C667   H674    1.083   .     S
Cu669  Cu670   2.675   .     S
Cu669  O695    1.968   .     S
Cu669  O691    1.965   .     S
Cu669  N687    2.010   .     S
Cu669  O693    1.968   .     S
Cu669  O689    1.965   .     S
Cu670  N688    2.010   .     S
Cu670  O696    1.968   .     S
Cu670  O692    1.965   .     S
Cu670  O694    1.968   .     S
Cu670  O690    1.965   .     S
C697   O750    1.290   .     A
C697   O747    1.290   .     A
C697   C698    1.450   .     S
C698   C722    1.401   .     A
C698   C725    1.401   .     A
C699   N746    1.367   .     A
C699   H733    1.082   .     S
C700   N745    1.367   .     A
C700   H734    1.082   .     S
C700   C875    1.416   .     S
C701   N746    1.367   .     A
C701   H735    1.082   .     S
C702   H736    1.082   .     S
C702   N745    1.367   .     A
C702   C873    1.416   .     S
C703   O751    1.293   .     A
C703   C709    1.462   .     S
C703   O754    1.293   .     A
C704   O753    1.293   .     A
C704   O752    1.293   .     A
C704   C707    1.462   .     S
C705   C707    1.403   .     A
C705   C716    1.393   .     A
C705   H729    1.084   .     S
C706   H737    1.084   .     S
C706   C717    1.393   .     A
C706   C709    1.403   .     A
C707   C710    1.403   .     A
C708   O748    1.290   .     A
C708   C726    1.450   .     S
C708   O749    1.290   .     A
C709   C711    1.403   .     A
C710   H738    1.084   .     S
C710   C712    1.393   .     A
C711   H739    1.084   .     S
C711   C713    1.393   .     A
C712   C714    1.411   .     A
C712   C718    1.402   .     A
C713   C720    1.402   .     A
C713   C715    1.411   .     A
C714   C716    1.411   .     A
C714   C193    1.402   1_556 S
C715   C717    1.411   .     A
C716   C721    1.402   .     A
C717   C719    1.402   .     A
C718   H740    1.084   .     S
C718   C197    1.394   1_556 S
C719   H742    1.084   .     S
C720   H741    1.084   .     S
C721   H743    1.084   .     S
C721   C198    1.394   1_556 S
C722   H744    1.083   .     S
C722   C840    1.384   1_455 S
C723   H730    1.083   .     S
C723   C726    1.401   .     A
C723   C783    1.384   .     S
C724   C726    1.401   .     A
C724   H731    1.083   .     S
C724   C780    1.384   .     S
C725   H732    1.083   .     S
C725   C839    1.384   1_455 S
Cu727  Cu728   2.675   .     S
Cu727  O753    1.968   .     S
Cu727  O749    1.965   .     S
Cu727  N745    2.010   .     S
Cu727  O751    1.968   .     S
Cu727  O747    1.965   .     S
Cu728  N746    2.010   .     S
Cu728  O754    1.968   .     S
Cu728  O750    1.965   .     S
Cu728  O752    1.968   .     S
Cu728  O748    1.965   .     S
C755   O808    1.290   .     A
C755   O805    1.290   .     A
C755   C756    1.450   .     S
C756   C780    1.401   .     A
C756   C783    1.401   .     A
C757   N804    1.367   .     A
C757   H791    1.082   .     S
C758   N803    1.367   .     A
C758   H792    1.082   .     S
C758   C933    1.416   .     S
C759   N804    1.367   .     A
C759   H793    1.082   .     S
C760   H794    1.082   .     S
C760   N803    1.367   .     A
C760   C931    1.416   .     S
C761   O809    1.293   .     A
C761   C767    1.462   .     S
C761   O812    1.293   .     A
C762   O811    1.293   .     A
C762   O810    1.293   .     A
C762   C765    1.462   .     S
C763   C765    1.403   .     A
C763   C774    1.393   .     A
C763   H787    1.084   .     S
C764   H795    1.084   .     S
C764   C775    1.393   .     A
C764   C767    1.403   .     A
C765   C768    1.403   .     A
C766   O806    1.290   .     A
C766   C784    1.450   .     S
C766   O807    1.290   .     A
C767   C769    1.403   .     A
C768   H796    1.084   .     S
C768   C770    1.393   .     A
C769   H797    1.084   .     S
C769   C771    1.393   .     A
C770   C772    1.411   .     A
C770   C776    1.402   .     A
C771   C778    1.402   .     A
C771   C773    1.411   .     A
C772   C774    1.411   .     A
C772   C251    1.402   1_556 S
C773   C775    1.411   .     A
C774   C779    1.402   .     A
C775   C777    1.402   .     A
C776   H798    1.084   .     S
C776   C255    1.394   1_556 S
C777   H800    1.084   .     S
C778   H799    1.084   .     S
C779   H801    1.084   .     S
C779   C256    1.394   1_556 S
C780   H802    1.083   .     S
C781   H788    1.083   .     S
C781   C784    1.401   .     A
C781   C841    1.384   .     S
C782   C784    1.401   .     A
C782   H789    1.083   .     S
C782   C838    1.384   .     S
C783   H790    1.083   .     S
Cu785  Cu786   2.675   .     S
Cu785  O811    1.968   .     S
Cu785  O807    1.965   .     S
Cu785  N803    2.010   .     S
Cu785  O809    1.968   .     S
Cu785  O805    1.965   .     S
Cu786  N804    2.010   .     S
Cu786  O812    1.968   .     S
Cu786  O808    1.965   .     S
Cu786  O810    1.968   .     S
Cu786  O806    1.965   .     S
C813   O866    1.290   .     A
C813   O863    1.290   .     A
C813   C814    1.450   .     S
C814   C838    1.401   .     A
C814   C841    1.401   .     A
C815   N862    1.367   .     A
C815   H849    1.082   .     S
C816   N861    1.367   .     A
C816   H850    1.082   .     S
C816   C991    1.416   .     S
C817   N862    1.367   .     A
C817   H851    1.082   .     S
C818   H852    1.082   .     S
C818   N861    1.367   .     A
C818   C989    1.416   .     S
C819   O867    1.293   .     A
C819   C825    1.462   .     S
C819   O870    1.293   .     A
C820   O869    1.293   .     A
C820   O868    1.293   .     A
C820   C823    1.462   .     S
C821   C823    1.403   .     A
C821   C832    1.393   .     A
C821   H845    1.084   .     S
C822   H853    1.084   .     S
C822   C833    1.393   .     A
C822   C825    1.403   .     A
C823   C826    1.403   .     A
C824   O864    1.290   .     A
C824   C842    1.450   .     S
C824   O865    1.290   .     A
C825   C827    1.403   .     A
C826   H854    1.084   .     S
C826   C828    1.393   .     A
C827   H855    1.084   .     S
C827   C829    1.393   .     A
C828   C830    1.411   .     A
C828   C834    1.402   .     A
C829   C836    1.402   .     A
C829   C831    1.411   .     A
C830   C832    1.411   .     A
C830   C309    1.402   1_556 S
C831   C833    1.411   .     A
C832   C837    1.402   .     A
C833   C835    1.402   .     A
C834   H856    1.084   .     S
C834   C313    1.394   1_556 S
C835   H858    1.084   .     S
C836   H857    1.084   .     S
C837   H859    1.084   .     S
C837   C314    1.394   1_556 S
C838   H860    1.083   .     S
C839   H846    1.083   .     S
C839   C842    1.401   .     A
C839   C725    1.384   1_655 S
C840   C842    1.401   .     A
C840   H847    1.083   .     S
C840   C722    1.384   1_655 S
C841   H848    1.083   .     S
Cu843  Cu844   2.675   .     S
Cu843  O869    1.968   .     S
Cu843  O865    1.965   .     S
Cu843  N861    2.010   .     S
Cu843  O867    1.968   .     S
Cu843  O863    1.965   .     S
Cu844  N862    2.010   .     S
Cu844  O870    1.968   .     S
Cu844  O866    1.965   .     S
Cu844  O868    1.968   .     S
Cu844  O864    1.965   .     S
C871   O924    1.290   .     A
C871   O921    1.290   .     A
C871   C872    1.450   .     S
C872   C896    1.401   .     A
C872   C899    1.401   .     A
C873   N920    1.367   .     A
C873   H907    1.082   .     S
C874   N919    1.367   .     A
C874   H908    1.082   .     S
C874   C527    1.416   1_565 S
C875   N920    1.367   .     A
C875   H909    1.082   .     S
C876   H910    1.082   .     S
C876   N919    1.367   .     A
C876   C525    1.416   1_565 S
C877   O925    1.293   .     A
C877   C883    1.462   .     S
C877   O928    1.293   .     A
C878   O927    1.293   .     A
C878   O926    1.293   .     A
C878   C881    1.462   .     S
C879   C881    1.403   .     A
C879   C890    1.393   .     A
C879   H903    1.084   .     S
C880   H911    1.084   .     S
C880   C891    1.393   .     A
C880   C883    1.403   .     A
C881   C884    1.403   .     A
C882   O922    1.290   .     A
C882   C900    1.450   .     S
C882   O923    1.290   .     A
C883   C885    1.403   .     A
C884   H912    1.084   .     S
C884   C886    1.393   .     A
C885   H913    1.084   .     S
C885   C887    1.393   .     A
C886   C888    1.411   .     A
C886   C892    1.402   .     A
C887   C894    1.402   .     A
C887   C889    1.411   .     A
C888   C890    1.411   .     A
C888   C367    1.402   1_556 S
C889   C891    1.411   .     A
C890   C895    1.402   .     A
C891   C893    1.402   .     A
C892   H914    1.084   .     S
C892   C371    1.394   1_556 S
C893   H916    1.084   .     S
C894   H915    1.084   .     S
C895   H917    1.084   .     S
C895   C372    1.394   1_556 S
C896   H918    1.083   .     S
C896   C1014   1.384   1_455 S
C897   H904    1.083   .     S
C897   C900    1.401   .     A
C897   C957    1.384   .     S
C898   C900    1.401   .     A
C898   H905    1.083   .     S
C898   C954    1.384   .     S
C899   H906    1.083   .     S
C899   C1013   1.384   1_455 S
Cu901  Cu902   2.675   .     S
Cu901  O927    1.968   .     S
Cu901  O923    1.965   .     S
Cu901  N919    2.010   .     S
Cu901  O925    1.968   .     S
Cu901  O921    1.965   .     S
Cu902  N920    2.010   .     S
Cu902  O928    1.968   .     S
Cu902  O924    1.965   .     S
Cu902  O926    1.968   .     S
Cu902  O922    1.965   .     S
C929   O982    1.290   .     A
C929   O979    1.290   .     A
C929   C930    1.450   .     S
C930   C954    1.401   .     A
C930   C957    1.401   .     A
C931   N978    1.367   .     A
C931   H965    1.082   .     S
C932   N977    1.367   .     A
C932   H966    1.082   .     S
C932   C585    1.416   1_565 S
C933   N978    1.367   .     A
C933   H967    1.082   .     S
C934   H968    1.082   .     S
C934   N977    1.367   .     A
C934   C583    1.416   1_565 S
C935   O983    1.293   .     A
C935   C941    1.462   .     S
C935   O986    1.293   .     A
C936   O985    1.293   .     A
C936   O984    1.293   .     A
C936   C939    1.462   .     S
C937   C939    1.403   .     A
C937   C948    1.393   .     A
C937   H961    1.084   .     S
C938   H969    1.084   .     S
C938   C949    1.393   .     A
C938   C941    1.403   .     A
C939   C942    1.403   .     A
C940   O980    1.290   .     A
C940   C958    1.450   .     S
C940   O981    1.290   .     A
C941   C943    1.403   .     A
C942   H970    1.084   .     S
C942   C944    1.393   .     A
C943   H971    1.084   .     S
C943   C945    1.393   .     A
C944   C946    1.411   .     A
C944   C950    1.402   .     A
C945   C952    1.402   .     A
C945   C947    1.411   .     A
C946   C948    1.411   .     A
C946   C425    1.402   1_556 S
C947   C949    1.411   .     A
C948   C953    1.402   .     A
C949   C951    1.402   .     A
C950   H972    1.084   .     S
C950   C429    1.394   1_556 S
C951   H974    1.084   .     S
C952   H973    1.084   .     S
C953   H975    1.084   .     S
C953   C430    1.394   1_556 S
C954   H976    1.083   .     S
C955   H962    1.083   .     S
C955   C958    1.401   .     A
C955   C1015   1.384   .     S
C956   C958    1.401   .     A
C956   H963    1.083   .     S
C956   C1012   1.384   .     S
C957   H964    1.083   .     S
Cu959  Cu960   2.675   .     S
Cu959  O985    1.968   .     S
Cu959  O981    1.965   .     S
Cu959  N977    2.010   .     S
Cu959  O983    1.968   .     S
Cu959  O979    1.965   .     S
Cu960  N978    2.010   .     S
Cu960  O986    1.968   .     S
Cu960  O982    1.965   .     S
Cu960  O984    1.968   .     S
Cu960  O980    1.965   .     S
C987   O1040   1.290   .     A
C987   O1037   1.290   .     A
C987   C988    1.450   .     S
C988   C1012   1.401   .     A
C988   C1015   1.401   .     A
C989   N1036   1.367   .     A
C989   H1023   1.082   .     S
C990   N1035   1.367   .     A
C990   H1024   1.082   .     S
C990   C643    1.416   1_565 S
C991   N1036   1.367   .     A
C991   H1025   1.082   .     S
C992   H1026   1.082   .     S
C992   N1035   1.367   .     A
C992   C641    1.416   1_565 S
C993   O1041   1.293   .     A
C993   C999    1.462   .     S
C993   O1044   1.293   .     A
C994   O1043   1.293   .     A
C994   O1042   1.293   .     A
C994   C997    1.462   .     S
C995   C997    1.403   .     A
C995   C1006   1.393   .     A
C995   H1019   1.084   .     S
C996   H1027   1.084   .     S
C996   C1007   1.393   .     A
C996   C999    1.403   .     A
C997   C1000   1.403   .     A
C998   O1038   1.290   .     A
C998   C1016   1.450   .     S
C998   O1039   1.290   .     A
C999   C1001   1.403   .     A
C1000  H1028   1.084   .     S
C1000  C1002   1.393   .     A
C1001  H1029   1.084   .     S
C1001  C1003   1.393   .     A
C1002  C1004   1.411   .     A
C1002  C1008   1.402   .     A
C1003  C1010   1.402   .     A
C1003  C1005   1.411   .     A
C1004  C1006   1.411   .     A
C1004  C483    1.402   1_556 S
C1005  C1007   1.411   .     A
C1006  C1011   1.402   .     A
C1007  C1009   1.402   .     A
C1008  H1030   1.084   .     S
C1008  C487    1.394   1_556 S
C1009  H1032   1.084   .     S
C1010  H1031   1.084   .     S
C1011  H1033   1.084   .     S
C1011  C488    1.394   1_556 S
C1012  H1034   1.083   .     S
C1013  H1020   1.083   .     S
C1013  C1016   1.401   .     A
C1013  C899    1.384   1_655 S
C1014  C1016   1.401   .     A
C1014  H1021   1.083   .     S
C1014  C896    1.384   1_655 S
C1015  H1022   1.083   .     S
Cu1017 Cu1018  2.675   .     S
Cu1017 O1043   1.968   .     S
Cu1017 O1039   1.965   .     S
Cu1017 N1035   2.010   .     S
Cu1017 O1041   1.968   .     S
Cu1017 O1037   1.965   .     S
Cu1018 N1036   2.010   .     S
Cu1018 O1044   1.968   .     S
Cu1018 O1040   1.965   .     S
Cu1018 O1042   1.968   .     S
Cu1018 O1038   1.965   .     S
