data_str_m2_o1_o18_pcu_sym.200
_audit_creation_date              2020-01-03
_audit_creation_method            'Materials Studio'
_symmetry_space_group_name_H-M    'P1'
_symmetry_Int_Tables_number       1
_symmetry_cell_setting            triclinic
loop_
_symmetry_equiv_pos_as_xyz
  x,y,z
_cell_length_a                    28.7870
_cell_length_b                    32.4839
_cell_length_c                    30.8181
_cell_angle_alpha                 87.1752
_cell_angle_beta                  73.4058
_cell_angle_gamma                 91.4457
loop_
_atom_site_label
_atom_site_type_symbol
_atom_site_fract_x
_atom_site_fract_y
_atom_site_fract_z
_atom_site_U_iso_or_equiv
_atom_site_adp_type
_atom_site_occupancy
C1     C     0.33292   0.08758   0.24972   0.00000  Uiso   1.00
C2     C     0.00043   0.24584   0.25017   0.00000  Uiso   1.00
C3     C     0.18900   0.18583   0.04676   0.00000  Uiso   1.00
C4     C     0.14662   0.14362   0.45460   0.00000  Uiso   1.00
C5     C     0.23674   0.19949   0.02387   0.00000  Uiso   1.00
C6     C     0.09872   0.13041   0.47741   0.00000  Uiso   1.00
C7     C     0.29996   0.01964   0.28495   0.00000  Uiso   1.00
C8     C     0.03538   0.31413   0.21696   0.00000  Uiso   1.00
C9     C     0.29876   0.30963   0.28502   0.00000  Uiso   1.00
C10    C     0.03226   0.02392   0.21349   0.00000  Uiso   1.00
C11    C     0.00081   0.29059   0.25129   0.00000  Uiso   1.00
C12    C     0.33239   0.04297   0.24884   0.00000  Uiso   1.00
C13    C     0.18056   0.14094   0.28013   0.00000  Uiso   1.00
C14    C     0.15283   0.19226   0.21975   0.00000  Uiso   1.00
C15    C     0.13128   0.14151   0.27982   0.00000  Uiso   1.00
C16    C     0.20206   0.19182   0.22019   0.00000  Uiso   1.00
C17    C     0.30614   0.16911   0.33594   0.00000  Uiso   1.00
C18    C     0.02726   0.16460   0.16398   0.00000  Uiso   1.00
C19    C     0.29195   0.17592   0.38502   0.00000  Uiso   1.00
C20    C     0.04171   0.15753   0.11493   0.00000  Uiso   1.00
C21    C     0.30016   0.21193   0.45049   0.00000  Uiso   1.00
C22    C     0.03429   0.11958   0.05024   0.00000  Uiso   1.00
C23    C     0.31510   0.20727   0.40298   0.00000  Uiso   1.00
C24    C     0.01635   0.12812   0.09672   0.00000  Uiso   1.00
C25    C     0.25231   0.15285   0.41402   0.00000  Uiso   1.00
C26    C     0.08310   0.17882   0.08636   0.00000  Uiso   1.00
C27    C     0.22798   0.16841   0.45617   0.00000  Uiso   1.00
C28    C     0.10731   0.16220   0.04487   0.00000  Uiso   1.00
C29    C     0.25518   0.19369   0.47702   0.00000  Uiso   1.00
C30    C     0.07977   0.13721   0.02400   0.00000  Uiso   1.00
C31    C     0.17779   0.15975   0.47797   0.00000  Uiso   1.00
C32    C     0.15766   0.17021   0.02325   0.00000  Uiso   1.00
Cu33   Cu    0.04689   0.16667   0.25000   0.00000  Uiso   1.00
Cu34   Cu    0.28645   0.16666   0.25000   0.00000  Uiso   1.00
H35    H     0.17617   0.18846   0.08307   0.00000  Uiso   1.00
H36    H     0.15957   0.14045   0.41841   0.00000  Uiso   1.00
H37    H     0.10384   0.12148   0.30328   0.00000  Uiso   1.00
H38    H     0.22952   0.21182   0.19670   0.00000  Uiso   1.00
N39    N     0.11736   0.16668   0.24999   0.00000  Uiso   1.00
N40    N     0.21597   0.16666   0.25001   0.00000  Uiso   1.00
O41    O     0.03958   0.10655   0.25000   0.00000  Uiso   1.00
O42    O     0.29375   0.22678   0.25000   0.00000  Uiso   1.00
O43    O     0.29372   0.10654   0.25001   0.00000  Uiso   1.00
O44    O     0.03961   0.22679   0.25000   0.00000  Uiso   1.00
O45    O     0.01852   0.16668   0.31492   0.00000  Uiso   1.00
O46    O     0.31481   0.16666   0.18509   0.00000  Uiso   1.00
O47    O     0.27267   0.16667   0.31492   0.00000  Uiso   1.00
O48    O     0.06067   0.16667   0.18508   0.00000  Uiso   1.00
O49    O     0.26570   0.21786   0.04695   0.00000  Uiso   1.00
H50    H     0.24727   0.21907   0.07937   0.00000  Uiso   1.00
O51    O     0.06973   0.11214   0.45428   0.00000  Uiso   1.00
H52    H     0.08851   0.11004   0.42210   0.00000  Uiso   1.00
C53    C     0.09297   0.22296   0.09352   0.00000  Uiso   1.00
H54    H     0.12450   0.24017   0.07188   0.00000  Uiso   1.00
O55    O     0.06361   0.24188   0.12126   0.00000  Uiso   1.00
C56    C     0.24419   0.10924   0.40417   0.00000  Uiso   1.00
H57    H     0.26269   0.09819   0.37154   0.00000  Uiso   1.00
O58    O     0.21998   0.08437   0.43342   0.00000  Uiso   1.00
C59    C     0.30395   0.10746   0.12573   0.00000  Uiso   1.00
H60    H     0.30175   0.09523   0.15967   0.00000  Uiso   1.00
O61    O     0.26795   0.10501   0.11240   0.00000  Uiso   1.00
C62    C     0.01906   0.23671   0.37275   0.00000  Uiso   1.00
H63    H     0.04325   0.22769   0.34123   0.00000  Uiso   1.00
O64    O     0.02231   0.27246   0.38245   0.00000  Uiso   1.00
O65    O     0.32723   0.23604   0.47082   0.00000  Uiso   1.00
H66    H     0.02853   0.23552   0.45319   0.00000  Uiso   1.00
O67    O     0.01034   0.09173   0.03076   0.00000  Uiso   1.00
H68    H     0.32685   0.06995   0.05389   0.00000  Uiso   1.00
O69    O     0.27085   0.04020   0.32009   0.00000  Uiso   1.00
H70    H     0.26529   0.02299   0.34866   0.00000  Uiso   1.00
O71    O     0.07096   0.29407   0.18659   0.00000  Uiso   1.00
H72    H     0.10081   0.31210   0.17723   0.00000  Uiso   1.00
C73    C     0.26128   0.28423   0.32024   0.00000  Uiso   1.00
H74    H     0.26963   0.25408   0.33198   0.00000  Uiso   1.00
O75    O     0.22021   0.29615   0.33537   0.00000  Uiso   1.00
C76    C     0.06086   0.04867   0.17184   0.00000  Uiso   1.00
H77    H     0.06970   0.08110   0.17294   0.00000  Uiso   1.00
O78    O     0.07312   0.03344   0.13504   0.00000  Uiso   1.00
C79    C     0.19202   0.11136   0.31335   0.00000  Uiso   1.00
H80    H     0.22841   0.10644   0.31343   0.00000  Uiso   1.00
O81    O     0.15999   0.09122   0.34163   0.00000  Uiso   1.00
C82    C     0.14152   0.22135   0.18604   0.00000  Uiso   1.00
H83    H     0.10519   0.22581   0.18546   0.00000  Uiso   1.00
O84    O     0.17361   0.24151   0.15783   0.00000  Uiso   1.00
C85    C     0.66626   0.08758   0.24972   0.00000  Uiso   1.00
C86    C     0.33377   0.24584   0.25017   0.00000  Uiso   1.00
C87    C     0.52234   0.18583   0.04676   0.00000  Uiso   1.00
C88    C     0.47995   0.14362   0.45460   0.00000  Uiso   1.00
C89    C     0.57008   0.19949   0.02387   0.00000  Uiso   1.00
C90    C     0.43205   0.13041   0.47741   0.00000  Uiso   1.00
C91    C     0.63329   0.01964   0.28495   0.00000  Uiso   1.00
C92    C     0.36871   0.31413   0.21696   0.00000  Uiso   1.00
C93    C     0.63209   0.30963   0.28502   0.00000  Uiso   1.00
C94    C     0.36560   0.02392   0.21349   0.00000  Uiso   1.00
C95    C     0.33415   0.29059   0.25129   0.00000  Uiso   1.00
C96    C     0.66572   0.04297   0.24884   0.00000  Uiso   1.00
C97    C     0.51389   0.14094   0.28013   0.00000  Uiso   1.00
C98    C     0.48616   0.19226   0.21975   0.00000  Uiso   1.00
C99    C     0.46462   0.14151   0.27982   0.00000  Uiso   1.00
C100   C     0.53539   0.19182   0.22019   0.00000  Uiso   1.00
C101   C     0.63948   0.16911   0.33594   0.00000  Uiso   1.00
C102   C     0.36059   0.16460   0.16398   0.00000  Uiso   1.00
C103   C     0.62529   0.17592   0.38502   0.00000  Uiso   1.00
C104   C     0.37505   0.15753   0.11493   0.00000  Uiso   1.00
C105   C     0.63349   0.21193   0.45049   0.00000  Uiso   1.00
C106   C     0.36763   0.11958   0.05024   0.00000  Uiso   1.00
C107   C     0.64843   0.20727   0.40298   0.00000  Uiso   1.00
C108   C     0.34968   0.12812   0.09672   0.00000  Uiso   1.00
C109   C     0.58565   0.15285   0.41402   0.00000  Uiso   1.00
C110   C     0.41644   0.17882   0.08636   0.00000  Uiso   1.00
C111   C     0.56131   0.16841   0.45617   0.00000  Uiso   1.00
C112   C     0.44064   0.16220   0.04487   0.00000  Uiso   1.00
C113   C     0.58852   0.19369   0.47702   0.00000  Uiso   1.00
C114   C     0.41310   0.13721   0.02400   0.00000  Uiso   1.00
C115   C     0.51113   0.15975   0.47797   0.00000  Uiso   1.00
C116   C     0.49100   0.17021   0.02325   0.00000  Uiso   1.00
Cu117  Cu    0.38022   0.16667   0.25000   0.00000  Uiso   1.00
Cu118  Cu    0.61978   0.16666   0.25000   0.00000  Uiso   1.00
H119   H     0.50950   0.18846   0.08307   0.00000  Uiso   1.00
H120   H     0.49291   0.14045   0.41841   0.00000  Uiso   1.00
H121   H     0.43717   0.12148   0.30328   0.00000  Uiso   1.00
H122   H     0.56285   0.21182   0.19670   0.00000  Uiso   1.00
N123   N     0.45069   0.16668   0.24999   0.00000  Uiso   1.00
N124   N     0.54931   0.16666   0.25001   0.00000  Uiso   1.00
O125   O     0.37291   0.10655   0.25000   0.00000  Uiso   1.00
O126   O     0.62709   0.22678   0.25000   0.00000  Uiso   1.00
O127   O     0.62706   0.10654   0.25001   0.00000  Uiso   1.00
O128   O     0.37294   0.22679   0.25000   0.00000  Uiso   1.00
O129   O     0.35186   0.16668   0.31492   0.00000  Uiso   1.00
O130   O     0.64814   0.16666   0.18509   0.00000  Uiso   1.00
O131   O     0.60600   0.16667   0.31492   0.00000  Uiso   1.00
O132   O     0.39400   0.16667   0.18508   0.00000  Uiso   1.00
O133   O     0.59903   0.21786   0.04695   0.00000  Uiso   1.00
H134   H     0.58061   0.21907   0.07937   0.00000  Uiso   1.00
O135   O     0.40307   0.11214   0.45428   0.00000  Uiso   1.00
H136   H     0.42184   0.11004   0.42210   0.00000  Uiso   1.00
C137   C     0.42630   0.22296   0.09352   0.00000  Uiso   1.00
H138   H     0.45783   0.24017   0.07188   0.00000  Uiso   1.00
O139   O     0.39694   0.24188   0.12126   0.00000  Uiso   1.00
C140   C     0.57752   0.10924   0.40417   0.00000  Uiso   1.00
H141   H     0.59602   0.09819   0.37154   0.00000  Uiso   1.00
O142   O     0.55331   0.08437   0.43342   0.00000  Uiso   1.00
C143   C     0.63728   0.10746   0.12573   0.00000  Uiso   1.00
H144   H     0.63508   0.09523   0.15967   0.00000  Uiso   1.00
O145   O     0.60128   0.10501   0.11240   0.00000  Uiso   1.00
C146   C     0.35239   0.23671   0.37275   0.00000  Uiso   1.00
H147   H     0.37658   0.22769   0.34123   0.00000  Uiso   1.00
O148   O     0.35565   0.27246   0.38245   0.00000  Uiso   1.00
O149   O     0.66056   0.23604   0.47082   0.00000  Uiso   1.00
H150   H     0.36187   0.23552   0.45319   0.00000  Uiso   1.00
O151   O     0.34367   0.09173   0.03076   0.00000  Uiso   1.00
H152   H     0.66019   0.06995   0.05389   0.00000  Uiso   1.00
O153   O     0.60418   0.04020   0.32009   0.00000  Uiso   1.00
H154   H     0.59863   0.02299   0.34866   0.00000  Uiso   1.00
O155   O     0.40429   0.29407   0.18659   0.00000  Uiso   1.00
H156   H     0.43415   0.31210   0.17723   0.00000  Uiso   1.00
C157   C     0.59461   0.28423   0.32024   0.00000  Uiso   1.00
H158   H     0.60297   0.25408   0.33198   0.00000  Uiso   1.00
O159   O     0.55354   0.29615   0.33537   0.00000  Uiso   1.00
C160   C     0.39420   0.04867   0.17184   0.00000  Uiso   1.00
H161   H     0.40303   0.08110   0.17294   0.00000  Uiso   1.00
O162   O     0.40645   0.03344   0.13504   0.00000  Uiso   1.00
C163   C     0.52536   0.11136   0.31335   0.00000  Uiso   1.00
H164   H     0.56174   0.10644   0.31343   0.00000  Uiso   1.00
O165   O     0.49332   0.09122   0.34163   0.00000  Uiso   1.00
C166   C     0.47486   0.22135   0.18604   0.00000  Uiso   1.00
H167   H     0.43853   0.22581   0.18546   0.00000  Uiso   1.00
O168   O     0.50694   0.24151   0.15783   0.00000  Uiso   1.00
C169   C     0.99959   0.08758   0.24972   0.00000  Uiso   1.00
C170   C     0.66710   0.24584   0.25017   0.00000  Uiso   1.00
C171   C     0.85567   0.18583   0.04676   0.00000  Uiso   1.00
C172   C     0.81328   0.14362   0.45460   0.00000  Uiso   1.00
C173   C     0.90341   0.19949   0.02387   0.00000  Uiso   1.00
C174   C     0.76538   0.13041   0.47741   0.00000  Uiso   1.00
C175   C     0.96663   0.01964   0.28495   0.00000  Uiso   1.00
C176   C     0.70204   0.31413   0.21696   0.00000  Uiso   1.00
C177   C     0.96543   0.30963   0.28502   0.00000  Uiso   1.00
C178   C     0.69893   0.02392   0.21349   0.00000  Uiso   1.00
C179   C     0.66748   0.29059   0.25129   0.00000  Uiso   1.00
C180   C     0.99906   0.04297   0.24884   0.00000  Uiso   1.00
C181   C     0.84723   0.14094   0.28013   0.00000  Uiso   1.00
C182   C     0.81949   0.19226   0.21975   0.00000  Uiso   1.00
C183   C     0.79795   0.14151   0.27982   0.00000  Uiso   1.00
C184   C     0.86872   0.19182   0.22019   0.00000  Uiso   1.00
C185   C     0.97281   0.16911   0.33594   0.00000  Uiso   1.00
C186   C     0.69393   0.16460   0.16398   0.00000  Uiso   1.00
C187   C     0.95862   0.17592   0.38502   0.00000  Uiso   1.00
C188   C     0.70838   0.15753   0.11493   0.00000  Uiso   1.00
C189   C     0.96683   0.21193   0.45049   0.00000  Uiso   1.00
C190   C     0.70096   0.11958   0.05024   0.00000  Uiso   1.00
C191   C     0.98176   0.20727   0.40298   0.00000  Uiso   1.00
C192   C     0.68301   0.12812   0.09672   0.00000  Uiso   1.00
C193   C     0.91898   0.15285   0.41402   0.00000  Uiso   1.00
C194   C     0.74977   0.17882   0.08636   0.00000  Uiso   1.00
C195   C     0.89465   0.16841   0.45617   0.00000  Uiso   1.00
C196   C     0.77397   0.16220   0.04487   0.00000  Uiso   1.00
C197   C     0.92185   0.19369   0.47702   0.00000  Uiso   1.00
C198   C     0.74644   0.13721   0.02400   0.00000  Uiso   1.00
C199   C     0.84446   0.15975   0.47797   0.00000  Uiso   1.00
C200   C     0.82433   0.17021   0.02325   0.00000  Uiso   1.00
Cu201  Cu    0.71355   0.16667   0.25000   0.00000  Uiso   1.00
Cu202  Cu    0.95311   0.16666   0.25000   0.00000  Uiso   1.00
H203   H     0.84283   0.18846   0.08307   0.00000  Uiso   1.00
H204   H     0.82624   0.14045   0.41841   0.00000  Uiso   1.00
H205   H     0.77050   0.12148   0.30328   0.00000  Uiso   1.00
H206   H     0.89619   0.21182   0.19670   0.00000  Uiso   1.00
N207   N     0.78403   0.16668   0.24999   0.00000  Uiso   1.00
N208   N     0.88264   0.16666   0.25001   0.00000  Uiso   1.00
O209   O     0.70625   0.10655   0.25000   0.00000  Uiso   1.00
O210   O     0.96042   0.22678   0.25000   0.00000  Uiso   1.00
O211   O     0.96039   0.10654   0.25001   0.00000  Uiso   1.00
O212   O     0.70628   0.22679   0.25000   0.00000  Uiso   1.00
O213   O     0.68519   0.16668   0.31492   0.00000  Uiso   1.00
O214   O     0.98148   0.16666   0.18509   0.00000  Uiso   1.00
O215   O     0.93933   0.16667   0.31492   0.00000  Uiso   1.00
O216   O     0.72733   0.16667   0.18508   0.00000  Uiso   1.00
O217   O     0.93236   0.21786   0.04695   0.00000  Uiso   1.00
H218   H     0.91394   0.21907   0.07937   0.00000  Uiso   1.00
O219   O     0.73640   0.11214   0.45428   0.00000  Uiso   1.00
H220   H     0.75517   0.11004   0.42210   0.00000  Uiso   1.00
C221   C     0.75963   0.22296   0.09352   0.00000  Uiso   1.00
H222   H     0.79116   0.24017   0.07188   0.00000  Uiso   1.00
O223   O     0.73028   0.24188   0.12126   0.00000  Uiso   1.00
C224   C     0.91085   0.10924   0.40417   0.00000  Uiso   1.00
H225   H     0.92936   0.09819   0.37154   0.00000  Uiso   1.00
O226   O     0.88665   0.08437   0.43342   0.00000  Uiso   1.00
C227   C     0.97061   0.10746   0.12573   0.00000  Uiso   1.00
H228   H     0.96842   0.09523   0.15967   0.00000  Uiso   1.00
O229   O     0.93461   0.10501   0.11240   0.00000  Uiso   1.00
C230   C     0.68573   0.23671   0.37275   0.00000  Uiso   1.00
H231   H     0.70992   0.22769   0.34123   0.00000  Uiso   1.00
O232   O     0.68898   0.27246   0.38245   0.00000  Uiso   1.00
O233   O     0.99390   0.23604   0.47082   0.00000  Uiso   1.00
H234   H     0.69520   0.23552   0.45319   0.00000  Uiso   1.00
O235   O     0.67700   0.09173   0.03076   0.00000  Uiso   1.00
H236   H     0.99352   0.06995   0.05389   0.00000  Uiso   1.00
O237   O     0.93751   0.04020   0.32009   0.00000  Uiso   1.00
H238   H     0.93196   0.02299   0.34866   0.00000  Uiso   1.00
O239   O     0.73762   0.29407   0.18659   0.00000  Uiso   1.00
H240   H     0.76748   0.31210   0.17723   0.00000  Uiso   1.00
C241   C     0.92795   0.28423   0.32024   0.00000  Uiso   1.00
H242   H     0.93630   0.25408   0.33198   0.00000  Uiso   1.00
O243   O     0.88687   0.29615   0.33537   0.00000  Uiso   1.00
C244   C     0.72753   0.04867   0.17184   0.00000  Uiso   1.00
H245   H     0.73636   0.08110   0.17294   0.00000  Uiso   1.00
O246   O     0.73979   0.03344   0.13504   0.00000  Uiso   1.00
C247   C     0.85869   0.11136   0.31335   0.00000  Uiso   1.00
H248   H     0.89508   0.10644   0.31343   0.00000  Uiso   1.00
O249   O     0.82665   0.09122   0.34163   0.00000  Uiso   1.00
C250   C     0.80819   0.22135   0.18604   0.00000  Uiso   1.00
H251   H     0.77186   0.22581   0.18546   0.00000  Uiso   1.00
O252   O     0.84028   0.24151   0.15783   0.00000  Uiso   1.00
C253   C     0.33292   0.42091   0.24972   0.00000  Uiso   1.00
C254   C     0.00043   0.57918   0.25017   0.00000  Uiso   1.00
C255   C     0.18900   0.51917   0.04676   0.00000  Uiso   1.00
C256   C     0.14662   0.47696   0.45460   0.00000  Uiso   1.00
C257   C     0.23674   0.53282   0.02387   0.00000  Uiso   1.00
C258   C     0.09872   0.46375   0.47741   0.00000  Uiso   1.00
C259   C     0.29996   0.35298   0.28495   0.00000  Uiso   1.00
C260   C     0.03538   0.64747   0.21696   0.00000  Uiso   1.00
C261   C     0.29876   0.64297   0.28502   0.00000  Uiso   1.00
C262   C     0.03226   0.35725   0.21349   0.00000  Uiso   1.00
C263   C     0.00081   0.62393   0.25129   0.00000  Uiso   1.00
C264   C     0.33239   0.37630   0.24884   0.00000  Uiso   1.00
C265   C     0.18056   0.47427   0.28013   0.00000  Uiso   1.00
C266   C     0.15283   0.52559   0.21975   0.00000  Uiso   1.00
C267   C     0.13128   0.47484   0.27982   0.00000  Uiso   1.00
C268   C     0.20206   0.52516   0.22019   0.00000  Uiso   1.00
C269   C     0.30614   0.50244   0.33594   0.00000  Uiso   1.00
C270   C     0.02726   0.49794   0.16398   0.00000  Uiso   1.00
C271   C     0.29195   0.50926   0.38502   0.00000  Uiso   1.00
C272   C     0.04171   0.49087   0.11493   0.00000  Uiso   1.00
C273   C     0.30016   0.54526   0.45049   0.00000  Uiso   1.00
C274   C     0.03429   0.45291   0.05024   0.00000  Uiso   1.00
C275   C     0.31510   0.54060   0.40298   0.00000  Uiso   1.00
C276   C     0.01635   0.46145   0.09672   0.00000  Uiso   1.00
C277   C     0.25231   0.48618   0.41402   0.00000  Uiso   1.00
C278   C     0.08310   0.51215   0.08636   0.00000  Uiso   1.00
C279   C     0.22798   0.50174   0.45617   0.00000  Uiso   1.00
C280   C     0.10731   0.49554   0.04487   0.00000  Uiso   1.00
C281   C     0.25518   0.52702   0.47702   0.00000  Uiso   1.00
C282   C     0.07977   0.47055   0.02400   0.00000  Uiso   1.00
C283   C     0.17779   0.49308   0.47797   0.00000  Uiso   1.00
C284   C     0.15766   0.50355   0.02325   0.00000  Uiso   1.00
Cu285  Cu    0.04689   0.50001   0.25000   0.00000  Uiso   1.00
Cu286  Cu    0.28645   0.49999   0.25000   0.00000  Uiso   1.00
H287   H     0.17617   0.52179   0.08307   0.00000  Uiso   1.00
H288   H     0.15957   0.47378   0.41841   0.00000  Uiso   1.00
H289   H     0.10384   0.45481   0.30328   0.00000  Uiso   1.00
H290   H     0.22952   0.54515   0.19670   0.00000  Uiso   1.00
N291   N     0.11736   0.50001   0.24999   0.00000  Uiso   1.00
N292   N     0.21597   0.49999   0.25001   0.00000  Uiso   1.00
O293   O     0.03958   0.43989   0.25000   0.00000  Uiso   1.00
O294   O     0.29375   0.56011   0.25000   0.00000  Uiso   1.00
O295   O     0.29372   0.43988   0.25001   0.00000  Uiso   1.00
O296   O     0.03961   0.56012   0.25000   0.00000  Uiso   1.00
O297   O     0.01852   0.50001   0.31492   0.00000  Uiso   1.00
O298   O     0.31481   0.49999   0.18509   0.00000  Uiso   1.00
O299   O     0.27267   0.50000   0.31492   0.00000  Uiso   1.00
O300   O     0.06067   0.50000   0.18508   0.00000  Uiso   1.00
O301   O     0.26570   0.55119   0.04695   0.00000  Uiso   1.00
H302   H     0.24727   0.55240   0.07937   0.00000  Uiso   1.00
O303   O     0.06973   0.44548   0.45428   0.00000  Uiso   1.00
H304   H     0.08851   0.44338   0.42210   0.00000  Uiso   1.00
C305   C     0.09297   0.55629   0.09352   0.00000  Uiso   1.00
H306   H     0.12450   0.57350   0.07188   0.00000  Uiso   1.00
O307   O     0.06361   0.57521   0.12126   0.00000  Uiso   1.00
C308   C     0.24419   0.44257   0.40417   0.00000  Uiso   1.00
H309   H     0.26269   0.43152   0.37154   0.00000  Uiso   1.00
O310   O     0.21998   0.41771   0.43342   0.00000  Uiso   1.00
C311   C     0.30395   0.44079   0.12573   0.00000  Uiso   1.00
H312   H     0.30175   0.42856   0.15967   0.00000  Uiso   1.00
O313   O     0.26795   0.43834   0.11240   0.00000  Uiso   1.00
C314   C     0.01906   0.57005   0.37275   0.00000  Uiso   1.00
H315   H     0.04325   0.56103   0.34123   0.00000  Uiso   1.00
O316   O     0.02231   0.60580   0.38245   0.00000  Uiso   1.00
O317   O     0.32723   0.56938   0.47082   0.00000  Uiso   1.00
H318   H     0.02853   0.56886   0.45319   0.00000  Uiso   1.00
O319   O     0.01034   0.42506   0.03076   0.00000  Uiso   1.00
H320   H     0.32685   0.40329   0.05389   0.00000  Uiso   1.00
O321   O     0.27085   0.37354   0.32009   0.00000  Uiso   1.00
H322   H     0.26529   0.35632   0.34866   0.00000  Uiso   1.00
O323   O     0.07096   0.62740   0.18659   0.00000  Uiso   1.00
H324   H     0.10081   0.64544   0.17723   0.00000  Uiso   1.00
C325   C     0.26128   0.61757   0.32024   0.00000  Uiso   1.00
H326   H     0.26963   0.58742   0.33198   0.00000  Uiso   1.00
O327   O     0.22021   0.62949   0.33537   0.00000  Uiso   1.00
C328   C     0.06086   0.38200   0.17184   0.00000  Uiso   1.00
H329   H     0.06970   0.41443   0.17294   0.00000  Uiso   1.00
O330   O     0.07312   0.36677   0.13504   0.00000  Uiso   1.00
C331   C     0.19202   0.44469   0.31335   0.00000  Uiso   1.00
H332   H     0.22841   0.43978   0.31343   0.00000  Uiso   1.00
O333   O     0.15999   0.42456   0.34163   0.00000  Uiso   1.00
C334   C     0.14152   0.55468   0.18604   0.00000  Uiso   1.00
H335   H     0.10519   0.55914   0.18546   0.00000  Uiso   1.00
O336   O     0.17361   0.57484   0.15783   0.00000  Uiso   1.00
C337   C     0.66626   0.42091   0.24972   0.00000  Uiso   1.00
C338   C     0.33377   0.57918   0.25017   0.00000  Uiso   1.00
C339   C     0.52234   0.51917   0.04676   0.00000  Uiso   1.00
C340   C     0.47995   0.47696   0.45460   0.00000  Uiso   1.00
C341   C     0.57008   0.53282   0.02387   0.00000  Uiso   1.00
C342   C     0.43205   0.46375   0.47741   0.00000  Uiso   1.00
C343   C     0.63329   0.35298   0.28495   0.00000  Uiso   1.00
C344   C     0.36871   0.64747   0.21696   0.00000  Uiso   1.00
C345   C     0.63209   0.64297   0.28502   0.00000  Uiso   1.00
C346   C     0.36560   0.35725   0.21349   0.00000  Uiso   1.00
C347   C     0.33415   0.62393   0.25129   0.00000  Uiso   1.00
C348   C     0.66572   0.37630   0.24884   0.00000  Uiso   1.00
C349   C     0.51389   0.47427   0.28013   0.00000  Uiso   1.00
C350   C     0.48616   0.52559   0.21975   0.00000  Uiso   1.00
C351   C     0.46462   0.47484   0.27982   0.00000  Uiso   1.00
C352   C     0.53539   0.52516   0.22019   0.00000  Uiso   1.00
C353   C     0.63948   0.50244   0.33594   0.00000  Uiso   1.00
C354   C     0.36059   0.49794   0.16398   0.00000  Uiso   1.00
C355   C     0.62529   0.50926   0.38502   0.00000  Uiso   1.00
C356   C     0.37505   0.49087   0.11493   0.00000  Uiso   1.00
C357   C     0.63349   0.54526   0.45049   0.00000  Uiso   1.00
C358   C     0.36763   0.45291   0.05024   0.00000  Uiso   1.00
C359   C     0.64843   0.54060   0.40298   0.00000  Uiso   1.00
C360   C     0.34968   0.46145   0.09672   0.00000  Uiso   1.00
C361   C     0.58565   0.48618   0.41402   0.00000  Uiso   1.00
C362   C     0.41644   0.51215   0.08636   0.00000  Uiso   1.00
C363   C     0.56131   0.50174   0.45617   0.00000  Uiso   1.00
C364   C     0.44064   0.49554   0.04487   0.00000  Uiso   1.00
C365   C     0.58852   0.52702   0.47702   0.00000  Uiso   1.00
C366   C     0.41310   0.47055   0.02400   0.00000  Uiso   1.00
C367   C     0.51113   0.49308   0.47797   0.00000  Uiso   1.00
C368   C     0.49100   0.50355   0.02325   0.00000  Uiso   1.00
Cu369  Cu    0.38022   0.50001   0.25000   0.00000  Uiso   1.00
Cu370  Cu    0.61978   0.49999   0.25000   0.00000  Uiso   1.00
H371   H     0.50950   0.52179   0.08307   0.00000  Uiso   1.00
H372   H     0.49291   0.47378   0.41841   0.00000  Uiso   1.00
H373   H     0.43717   0.45481   0.30328   0.00000  Uiso   1.00
H374   H     0.56285   0.54515   0.19670   0.00000  Uiso   1.00
N375   N     0.45069   0.50001   0.24999   0.00000  Uiso   1.00
N376   N     0.54931   0.49999   0.25001   0.00000  Uiso   1.00
O377   O     0.37291   0.43989   0.25000   0.00000  Uiso   1.00
O378   O     0.62709   0.56011   0.25000   0.00000  Uiso   1.00
O379   O     0.62706   0.43988   0.25001   0.00000  Uiso   1.00
O380   O     0.37294   0.56012   0.25000   0.00000  Uiso   1.00
O381   O     0.35186   0.50001   0.31492   0.00000  Uiso   1.00
O382   O     0.64814   0.49999   0.18509   0.00000  Uiso   1.00
O383   O     0.60600   0.50000   0.31492   0.00000  Uiso   1.00
O384   O     0.39400   0.50000   0.18508   0.00000  Uiso   1.00
O385   O     0.59903   0.55119   0.04695   0.00000  Uiso   1.00
H386   H     0.58061   0.55240   0.07937   0.00000  Uiso   1.00
O387   O     0.40307   0.44548   0.45428   0.00000  Uiso   1.00
H388   H     0.42184   0.44338   0.42210   0.00000  Uiso   1.00
C389   C     0.42630   0.55629   0.09352   0.00000  Uiso   1.00
H390   H     0.45783   0.57350   0.07188   0.00000  Uiso   1.00
O391   O     0.39694   0.57521   0.12126   0.00000  Uiso   1.00
C392   C     0.57752   0.44257   0.40417   0.00000  Uiso   1.00
H393   H     0.59602   0.43152   0.37154   0.00000  Uiso   1.00
O394   O     0.55331   0.41771   0.43342   0.00000  Uiso   1.00
C395   C     0.63728   0.44079   0.12573   0.00000  Uiso   1.00
H396   H     0.63508   0.42856   0.15967   0.00000  Uiso   1.00
O397   O     0.60128   0.43834   0.11240   0.00000  Uiso   1.00
C398   C     0.35239   0.57005   0.37275   0.00000  Uiso   1.00
H399   H     0.37658   0.56103   0.34123   0.00000  Uiso   1.00
O400   O     0.35565   0.60580   0.38245   0.00000  Uiso   1.00
O401   O     0.66056   0.56938   0.47082   0.00000  Uiso   1.00
H402   H     0.36187   0.56886   0.45319   0.00000  Uiso   1.00
O403   O     0.34367   0.42506   0.03076   0.00000  Uiso   1.00
H404   H     0.66019   0.40329   0.05389   0.00000  Uiso   1.00
O405   O     0.60418   0.37354   0.32009   0.00000  Uiso   1.00
H406   H     0.59863   0.35632   0.34866   0.00000  Uiso   1.00
O407   O     0.40429   0.62740   0.18659   0.00000  Uiso   1.00
H408   H     0.43415   0.64544   0.17723   0.00000  Uiso   1.00
C409   C     0.59461   0.61757   0.32024   0.00000  Uiso   1.00
H410   H     0.60297   0.58742   0.33198   0.00000  Uiso   1.00
O411   O     0.55354   0.62949   0.33537   0.00000  Uiso   1.00
C412   C     0.39420   0.38200   0.17184   0.00000  Uiso   1.00
H413   H     0.40303   0.41443   0.17294   0.00000  Uiso   1.00
O414   O     0.40645   0.36677   0.13504   0.00000  Uiso   1.00
C415   C     0.52536   0.44469   0.31335   0.00000  Uiso   1.00
H416   H     0.56174   0.43978   0.31343   0.00000  Uiso   1.00
O417   O     0.49332   0.42456   0.34163   0.00000  Uiso   1.00
C418   C     0.47486   0.55468   0.18604   0.00000  Uiso   1.00
H419   H     0.43853   0.55914   0.18546   0.00000  Uiso   1.00
O420   O     0.50694   0.57484   0.15783   0.00000  Uiso   1.00
C421   C     0.99959   0.42091   0.24972   0.00000  Uiso   1.00
C422   C     0.66710   0.57918   0.25017   0.00000  Uiso   1.00
C423   C     0.85567   0.51917   0.04676   0.00000  Uiso   1.00
C424   C     0.81328   0.47696   0.45460   0.00000  Uiso   1.00
C425   C     0.90341   0.53282   0.02387   0.00000  Uiso   1.00
C426   C     0.76538   0.46375   0.47741   0.00000  Uiso   1.00
C427   C     0.96663   0.35298   0.28495   0.00000  Uiso   1.00
C428   C     0.70204   0.64747   0.21696   0.00000  Uiso   1.00
C429   C     0.96543   0.64297   0.28502   0.00000  Uiso   1.00
C430   C     0.69893   0.35725   0.21349   0.00000  Uiso   1.00
C431   C     0.66748   0.62393   0.25129   0.00000  Uiso   1.00
C432   C     0.99906   0.37630   0.24884   0.00000  Uiso   1.00
C433   C     0.84723   0.47427   0.28013   0.00000  Uiso   1.00
C434   C     0.81949   0.52559   0.21975   0.00000  Uiso   1.00
C435   C     0.79795   0.47484   0.27982   0.00000  Uiso   1.00
C436   C     0.86872   0.52516   0.22019   0.00000  Uiso   1.00
C437   C     0.97281   0.50244   0.33594   0.00000  Uiso   1.00
C438   C     0.69393   0.49794   0.16398   0.00000  Uiso   1.00
C439   C     0.95862   0.50926   0.38502   0.00000  Uiso   1.00
C440   C     0.70838   0.49087   0.11493   0.00000  Uiso   1.00
C441   C     0.96683   0.54526   0.45049   0.00000  Uiso   1.00
C442   C     0.70096   0.45291   0.05024   0.00000  Uiso   1.00
C443   C     0.98176   0.54060   0.40298   0.00000  Uiso   1.00
C444   C     0.68301   0.46145   0.09672   0.00000  Uiso   1.00
C445   C     0.91898   0.48618   0.41402   0.00000  Uiso   1.00
C446   C     0.74977   0.51215   0.08636   0.00000  Uiso   1.00
C447   C     0.89465   0.50174   0.45617   0.00000  Uiso   1.00
C448   C     0.77397   0.49554   0.04487   0.00000  Uiso   1.00
C449   C     0.92185   0.52702   0.47702   0.00000  Uiso   1.00
C450   C     0.74644   0.47055   0.02400   0.00000  Uiso   1.00
C451   C     0.84446   0.49308   0.47797   0.00000  Uiso   1.00
C452   C     0.82433   0.50355   0.02325   0.00000  Uiso   1.00
Cu453  Cu    0.71355   0.50001   0.25000   0.00000  Uiso   1.00
Cu454  Cu    0.95311   0.49999   0.25000   0.00000  Uiso   1.00
H455   H     0.84283   0.52179   0.08307   0.00000  Uiso   1.00
H456   H     0.82624   0.47378   0.41841   0.00000  Uiso   1.00
H457   H     0.77050   0.45481   0.30328   0.00000  Uiso   1.00
H458   H     0.89619   0.54515   0.19670   0.00000  Uiso   1.00
N459   N     0.78403   0.50001   0.24999   0.00000  Uiso   1.00
N460   N     0.88264   0.49999   0.25001   0.00000  Uiso   1.00
O461   O     0.70625   0.43989   0.25000   0.00000  Uiso   1.00
O462   O     0.96042   0.56011   0.25000   0.00000  Uiso   1.00
O463   O     0.96039   0.43988   0.25001   0.00000  Uiso   1.00
O464   O     0.70628   0.56012   0.25000   0.00000  Uiso   1.00
O465   O     0.68519   0.50001   0.31492   0.00000  Uiso   1.00
O466   O     0.98148   0.49999   0.18509   0.00000  Uiso   1.00
O467   O     0.93933   0.50000   0.31492   0.00000  Uiso   1.00
O468   O     0.72733   0.50000   0.18508   0.00000  Uiso   1.00
O469   O     0.93236   0.55119   0.04695   0.00000  Uiso   1.00
H470   H     0.91394   0.55240   0.07937   0.00000  Uiso   1.00
O471   O     0.73640   0.44548   0.45428   0.00000  Uiso   1.00
H472   H     0.75517   0.44338   0.42210   0.00000  Uiso   1.00
C473   C     0.75963   0.55629   0.09352   0.00000  Uiso   1.00
H474   H     0.79116   0.57350   0.07188   0.00000  Uiso   1.00
O475   O     0.73028   0.57521   0.12126   0.00000  Uiso   1.00
C476   C     0.91085   0.44257   0.40417   0.00000  Uiso   1.00
H477   H     0.92936   0.43152   0.37154   0.00000  Uiso   1.00
O478   O     0.88665   0.41771   0.43342   0.00000  Uiso   1.00
C479   C     0.97061   0.44079   0.12573   0.00000  Uiso   1.00
H480   H     0.96842   0.42856   0.15967   0.00000  Uiso   1.00
O481   O     0.93461   0.43834   0.11240   0.00000  Uiso   1.00
C482   C     0.68573   0.57005   0.37275   0.00000  Uiso   1.00
H483   H     0.70992   0.56103   0.34123   0.00000  Uiso   1.00
O484   O     0.68898   0.60580   0.38245   0.00000  Uiso   1.00
O485   O     0.99390   0.56938   0.47082   0.00000  Uiso   1.00
H486   H     0.69520   0.56886   0.45319   0.00000  Uiso   1.00
O487   O     0.67700   0.42506   0.03076   0.00000  Uiso   1.00
H488   H     0.99352   0.40329   0.05389   0.00000  Uiso   1.00
O489   O     0.93751   0.37354   0.32009   0.00000  Uiso   1.00
H490   H     0.93196   0.35632   0.34866   0.00000  Uiso   1.00
O491   O     0.73762   0.62740   0.18659   0.00000  Uiso   1.00
H492   H     0.76748   0.64544   0.17723   0.00000  Uiso   1.00
C493   C     0.92795   0.61757   0.32024   0.00000  Uiso   1.00
H494   H     0.93630   0.58742   0.33198   0.00000  Uiso   1.00
O495   O     0.88687   0.62949   0.33537   0.00000  Uiso   1.00
C496   C     0.72753   0.38200   0.17184   0.00000  Uiso   1.00
H497   H     0.73636   0.41443   0.17294   0.00000  Uiso   1.00
O498   O     0.73979   0.36677   0.13504   0.00000  Uiso   1.00
C499   C     0.85869   0.44469   0.31335   0.00000  Uiso   1.00
H500   H     0.89508   0.43978   0.31343   0.00000  Uiso   1.00
O501   O     0.82665   0.42456   0.34163   0.00000  Uiso   1.00
C502   C     0.80819   0.55468   0.18604   0.00000  Uiso   1.00
H503   H     0.77186   0.55914   0.18546   0.00000  Uiso   1.00
O504   O     0.84028   0.57484   0.15783   0.00000  Uiso   1.00
C505   C     0.33292   0.75424   0.24972   0.00000  Uiso   1.00
C506   C     0.00043   0.91251   0.25017   0.00000  Uiso   1.00
C507   C     0.18900   0.85250   0.04676   0.00000  Uiso   1.00
C508   C     0.14662   0.81029   0.45460   0.00000  Uiso   1.00
C509   C     0.23674   0.86616   0.02387   0.00000  Uiso   1.00
C510   C     0.09872   0.79708   0.47741   0.00000  Uiso   1.00
C511   C     0.29996   0.68631   0.28495   0.00000  Uiso   1.00
C512   C     0.03538   0.98080   0.21696   0.00000  Uiso   1.00
C513   C     0.29876   0.97630   0.28502   0.00000  Uiso   1.00
C514   C     0.03226   0.69058   0.21349   0.00000  Uiso   1.00
C515   C     0.00081   0.95726   0.25129   0.00000  Uiso   1.00
C516   C     0.33239   0.70963   0.24884   0.00000  Uiso   1.00
C517   C     0.18056   0.80760   0.28013   0.00000  Uiso   1.00
C518   C     0.15283   0.85892   0.21975   0.00000  Uiso   1.00
C519   C     0.13128   0.80817   0.27982   0.00000  Uiso   1.00
C520   C     0.20206   0.85849   0.22019   0.00000  Uiso   1.00
C521   C     0.30614   0.83577   0.33594   0.00000  Uiso   1.00
C522   C     0.02726   0.83127   0.16398   0.00000  Uiso   1.00
C523   C     0.29195   0.84259   0.38502   0.00000  Uiso   1.00
C524   C     0.04171   0.82420   0.11493   0.00000  Uiso   1.00
C525   C     0.30016   0.87859   0.45049   0.00000  Uiso   1.00
C526   C     0.03429   0.78625   0.05024   0.00000  Uiso   1.00
C527   C     0.31510   0.87393   0.40298   0.00000  Uiso   1.00
C528   C     0.01635   0.79478   0.09672   0.00000  Uiso   1.00
C529   C     0.25231   0.81951   0.41402   0.00000  Uiso   1.00
C530   C     0.08310   0.84549   0.08636   0.00000  Uiso   1.00
C531   C     0.22798   0.83508   0.45617   0.00000  Uiso   1.00
C532   C     0.10731   0.82887   0.04487   0.00000  Uiso   1.00
C533   C     0.25518   0.86036   0.47702   0.00000  Uiso   1.00
C534   C     0.07977   0.80388   0.02400   0.00000  Uiso   1.00
C535   C     0.17779   0.82642   0.47797   0.00000  Uiso   1.00
C536   C     0.15766   0.83688   0.02325   0.00000  Uiso   1.00
Cu537  Cu    0.04689   0.83334   0.25000   0.00000  Uiso   1.00
Cu538  Cu    0.28645   0.83333   0.25000   0.00000  Uiso   1.00
H539   H     0.17617   0.85513   0.08307   0.00000  Uiso   1.00
H540   H     0.15957   0.80712   0.41841   0.00000  Uiso   1.00
H541   H     0.10384   0.78814   0.30328   0.00000  Uiso   1.00
H542   H     0.22952   0.87848   0.19670   0.00000  Uiso   1.00
N543   N     0.11736   0.83334   0.24999   0.00000  Uiso   1.00
N544   N     0.21597   0.83332   0.25001   0.00000  Uiso   1.00
O545   O     0.03958   0.77322   0.25000   0.00000  Uiso   1.00
O546   O     0.29375   0.89345   0.25000   0.00000  Uiso   1.00
O547   O     0.29372   0.77321   0.25001   0.00000  Uiso   1.00
O548   O     0.03961   0.89346   0.25000   0.00000  Uiso   1.00
O549   O     0.01852   0.83334   0.31492   0.00000  Uiso   1.00
O550   O     0.31481   0.83332   0.18509   0.00000  Uiso   1.00
O551   O     0.27267   0.83333   0.31492   0.00000  Uiso   1.00
O552   O     0.06067   0.83333   0.18508   0.00000  Uiso   1.00
O553   O     0.26570   0.88453   0.04695   0.00000  Uiso   1.00
H554   H     0.24727   0.88573   0.07937   0.00000  Uiso   1.00
O555   O     0.06973   0.77881   0.45428   0.00000  Uiso   1.00
H556   H     0.08851   0.77671   0.42210   0.00000  Uiso   1.00
C557   C     0.09297   0.88962   0.09352   0.00000  Uiso   1.00
H558   H     0.12450   0.90684   0.07188   0.00000  Uiso   1.00
O559   O     0.06361   0.90854   0.12126   0.00000  Uiso   1.00
C560   C     0.24419   0.77590   0.40417   0.00000  Uiso   1.00
H561   H     0.26269   0.76486   0.37154   0.00000  Uiso   1.00
O562   O     0.21998   0.75104   0.43342   0.00000  Uiso   1.00
C563   C     0.30395   0.77412   0.12573   0.00000  Uiso   1.00
H564   H     0.30175   0.76189   0.15967   0.00000  Uiso   1.00
O565   O     0.26795   0.77168   0.11240   0.00000  Uiso   1.00
C566   C     0.01906   0.90338   0.37275   0.00000  Uiso   1.00
H567   H     0.04325   0.89436   0.34123   0.00000  Uiso   1.00
O568   O     0.02231   0.93913   0.38245   0.00000  Uiso   1.00
O569   O     0.32723   0.90271   0.47082   0.00000  Uiso   1.00
H570   H     0.02853   0.90219   0.45319   0.00000  Uiso   1.00
O571   O     0.01034   0.75840   0.03076   0.00000  Uiso   1.00
H572   H     0.32685   0.73662   0.05389   0.00000  Uiso   1.00
O573   O     0.27085   0.70687   0.32009   0.00000  Uiso   1.00
H574   H     0.26529   0.68966   0.34866   0.00000  Uiso   1.00
O575   O     0.07096   0.96073   0.18659   0.00000  Uiso   1.00
H576   H     0.10081   0.97877   0.17723   0.00000  Uiso   1.00
C577   C     0.26128   0.95090   0.32024   0.00000  Uiso   1.00
H578   H     0.26963   0.92075   0.33198   0.00000  Uiso   1.00
O579   O     0.22021   0.96282   0.33537   0.00000  Uiso   1.00
C580   C     0.06086   0.71533   0.17184   0.00000  Uiso   1.00
H581   H     0.06970   0.74777   0.17294   0.00000  Uiso   1.00
O582   O     0.07312   0.70010   0.13504   0.00000  Uiso   1.00
C583   C     0.19202   0.77803   0.31335   0.00000  Uiso   1.00
H584   H     0.22841   0.77311   0.31343   0.00000  Uiso   1.00
O585   O     0.15999   0.75789   0.34163   0.00000  Uiso   1.00
C586   C     0.14152   0.88801   0.18604   0.00000  Uiso   1.00
H587   H     0.10519   0.89247   0.18546   0.00000  Uiso   1.00
O588   O     0.17361   0.90817   0.15783   0.00000  Uiso   1.00
C589   C     0.66626   0.75424   0.24972   0.00000  Uiso   1.00
C590   C     0.33377   0.91251   0.25017   0.00000  Uiso   1.00
C591   C     0.52234   0.85250   0.04676   0.00000  Uiso   1.00
C592   C     0.47995   0.81029   0.45460   0.00000  Uiso   1.00
C593   C     0.57008   0.86616   0.02387   0.00000  Uiso   1.00
C594   C     0.43205   0.79708   0.47741   0.00000  Uiso   1.00
C595   C     0.63329   0.68631   0.28495   0.00000  Uiso   1.00
C596   C     0.36871   0.98080   0.21696   0.00000  Uiso   1.00
C597   C     0.63209   0.97630   0.28502   0.00000  Uiso   1.00
C598   C     0.36560   0.69058   0.21349   0.00000  Uiso   1.00
C599   C     0.33415   0.95726   0.25129   0.00000  Uiso   1.00
C600   C     0.66572   0.70963   0.24884   0.00000  Uiso   1.00
C601   C     0.51389   0.80760   0.28013   0.00000  Uiso   1.00
C602   C     0.48616   0.85892   0.21975   0.00000  Uiso   1.00
C603   C     0.46462   0.80817   0.27982   0.00000  Uiso   1.00
C604   C     0.53539   0.85849   0.22019   0.00000  Uiso   1.00
C605   C     0.63948   0.83577   0.33594   0.00000  Uiso   1.00
C606   C     0.36059   0.83127   0.16398   0.00000  Uiso   1.00
C607   C     0.62529   0.84259   0.38502   0.00000  Uiso   1.00
C608   C     0.37505   0.82420   0.11493   0.00000  Uiso   1.00
C609   C     0.63349   0.87859   0.45049   0.00000  Uiso   1.00
C610   C     0.36763   0.78625   0.05024   0.00000  Uiso   1.00
C611   C     0.64843   0.87393   0.40298   0.00000  Uiso   1.00
C612   C     0.34968   0.79478   0.09672   0.00000  Uiso   1.00
C613   C     0.58565   0.81951   0.41402   0.00000  Uiso   1.00
C614   C     0.41644   0.84549   0.08636   0.00000  Uiso   1.00
C615   C     0.56131   0.83508   0.45617   0.00000  Uiso   1.00
C616   C     0.44064   0.82887   0.04487   0.00000  Uiso   1.00
C617   C     0.58852   0.86036   0.47702   0.00000  Uiso   1.00
C618   C     0.41310   0.80388   0.02400   0.00000  Uiso   1.00
C619   C     0.51113   0.82642   0.47797   0.00000  Uiso   1.00
C620   C     0.49100   0.83688   0.02325   0.00000  Uiso   1.00
Cu621  Cu    0.38022   0.83334   0.25000   0.00000  Uiso   1.00
Cu622  Cu    0.61978   0.83333   0.25000   0.00000  Uiso   1.00
H623   H     0.50950   0.85513   0.08307   0.00000  Uiso   1.00
H624   H     0.49291   0.80712   0.41841   0.00000  Uiso   1.00
H625   H     0.43717   0.78814   0.30328   0.00000  Uiso   1.00
H626   H     0.56285   0.87848   0.19670   0.00000  Uiso   1.00
N627   N     0.45069   0.83334   0.24999   0.00000  Uiso   1.00
N628   N     0.54931   0.83332   0.25001   0.00000  Uiso   1.00
O629   O     0.37291   0.77322   0.25000   0.00000  Uiso   1.00
O630   O     0.62709   0.89345   0.25000   0.00000  Uiso   1.00
O631   O     0.62706   0.77321   0.25001   0.00000  Uiso   1.00
O632   O     0.37294   0.89346   0.25000   0.00000  Uiso   1.00
O633   O     0.35186   0.83334   0.31492   0.00000  Uiso   1.00
O634   O     0.64814   0.83332   0.18509   0.00000  Uiso   1.00
O635   O     0.60600   0.83333   0.31492   0.00000  Uiso   1.00
O636   O     0.39400   0.83333   0.18508   0.00000  Uiso   1.00
O637   O     0.59903   0.88453   0.04695   0.00000  Uiso   1.00
H638   H     0.58061   0.88573   0.07937   0.00000  Uiso   1.00
O639   O     0.40307   0.77881   0.45428   0.00000  Uiso   1.00
H640   H     0.42184   0.77671   0.42210   0.00000  Uiso   1.00
C641   C     0.42630   0.88962   0.09352   0.00000  Uiso   1.00
H642   H     0.45783   0.90684   0.07188   0.00000  Uiso   1.00
O643   O     0.39694   0.90854   0.12126   0.00000  Uiso   1.00
C644   C     0.57752   0.77590   0.40417   0.00000  Uiso   1.00
H645   H     0.59602   0.76486   0.37154   0.00000  Uiso   1.00
O646   O     0.55331   0.75104   0.43342   0.00000  Uiso   1.00
C647   C     0.63728   0.77412   0.12573   0.00000  Uiso   1.00
H648   H     0.63508   0.76189   0.15967   0.00000  Uiso   1.00
O649   O     0.60128   0.77168   0.11240   0.00000  Uiso   1.00
C650   C     0.35239   0.90338   0.37275   0.00000  Uiso   1.00
H651   H     0.37658   0.89436   0.34123   0.00000  Uiso   1.00
O652   O     0.35565   0.93913   0.38245   0.00000  Uiso   1.00
O653   O     0.66056   0.90271   0.47082   0.00000  Uiso   1.00
H654   H     0.36187   0.90219   0.45319   0.00000  Uiso   1.00
O655   O     0.34367   0.75840   0.03076   0.00000  Uiso   1.00
H656   H     0.66019   0.73662   0.05389   0.00000  Uiso   1.00
O657   O     0.60418   0.70687   0.32009   0.00000  Uiso   1.00
H658   H     0.59863   0.68966   0.34866   0.00000  Uiso   1.00
O659   O     0.40429   0.96073   0.18659   0.00000  Uiso   1.00
H660   H     0.43415   0.97877   0.17723   0.00000  Uiso   1.00
C661   C     0.59461   0.95090   0.32024   0.00000  Uiso   1.00
H662   H     0.60297   0.92075   0.33198   0.00000  Uiso   1.00
O663   O     0.55354   0.96282   0.33537   0.00000  Uiso   1.00
C664   C     0.39420   0.71533   0.17184   0.00000  Uiso   1.00
H665   H     0.40303   0.74777   0.17294   0.00000  Uiso   1.00
O666   O     0.40645   0.70010   0.13504   0.00000  Uiso   1.00
C667   C     0.52536   0.77803   0.31335   0.00000  Uiso   1.00
H668   H     0.56174   0.77311   0.31343   0.00000  Uiso   1.00
O669   O     0.49332   0.75789   0.34163   0.00000  Uiso   1.00
C670   C     0.47486   0.88801   0.18604   0.00000  Uiso   1.00
H671   H     0.43853   0.89247   0.18546   0.00000  Uiso   1.00
O672   O     0.50694   0.90817   0.15783   0.00000  Uiso   1.00
C673   C     0.99959   0.75424   0.24972   0.00000  Uiso   1.00
C674   C     0.66710   0.91251   0.25017   0.00000  Uiso   1.00
C675   C     0.85567   0.85250   0.04676   0.00000  Uiso   1.00
C676   C     0.81328   0.81029   0.45460   0.00000  Uiso   1.00
C677   C     0.90341   0.86616   0.02387   0.00000  Uiso   1.00
C678   C     0.76538   0.79708   0.47741   0.00000  Uiso   1.00
C679   C     0.96663   0.68631   0.28495   0.00000  Uiso   1.00
C680   C     0.70204   0.98080   0.21696   0.00000  Uiso   1.00
C681   C     0.96543   0.97630   0.28502   0.00000  Uiso   1.00
C682   C     0.69893   0.69058   0.21349   0.00000  Uiso   1.00
C683   C     0.66748   0.95726   0.25129   0.00000  Uiso   1.00
C684   C     0.99906   0.70963   0.24884   0.00000  Uiso   1.00
C685   C     0.84723   0.80760   0.28013   0.00000  Uiso   1.00
C686   C     0.81949   0.85892   0.21975   0.00000  Uiso   1.00
C687   C     0.79795   0.80817   0.27982   0.00000  Uiso   1.00
C688   C     0.86872   0.85849   0.22019   0.00000  Uiso   1.00
C689   C     0.97281   0.83577   0.33594   0.00000  Uiso   1.00
C690   C     0.69393   0.83127   0.16398   0.00000  Uiso   1.00
C691   C     0.95862   0.84259   0.38502   0.00000  Uiso   1.00
C692   C     0.70838   0.82420   0.11493   0.00000  Uiso   1.00
C693   C     0.96683   0.87859   0.45049   0.00000  Uiso   1.00
C694   C     0.70096   0.78625   0.05024   0.00000  Uiso   1.00
C695   C     0.98176   0.87393   0.40298   0.00000  Uiso   1.00
C696   C     0.68301   0.79478   0.09672   0.00000  Uiso   1.00
C697   C     0.91898   0.81951   0.41402   0.00000  Uiso   1.00
C698   C     0.74977   0.84549   0.08636   0.00000  Uiso   1.00
C699   C     0.89465   0.83508   0.45617   0.00000  Uiso   1.00
C700   C     0.77397   0.82887   0.04487   0.00000  Uiso   1.00
C701   C     0.92185   0.86036   0.47702   0.00000  Uiso   1.00
C702   C     0.74644   0.80388   0.02400   0.00000  Uiso   1.00
C703   C     0.84446   0.82642   0.47797   0.00000  Uiso   1.00
C704   C     0.82433   0.83688   0.02325   0.00000  Uiso   1.00
Cu705  Cu    0.71355   0.83334   0.25000   0.00000  Uiso   1.00
Cu706  Cu    0.95311   0.83333   0.25000   0.00000  Uiso   1.00
H707   H     0.84283   0.85513   0.08307   0.00000  Uiso   1.00
H708   H     0.82624   0.80712   0.41841   0.00000  Uiso   1.00
H709   H     0.77050   0.78814   0.30328   0.00000  Uiso   1.00
H710   H     0.89619   0.87848   0.19670   0.00000  Uiso   1.00
N711   N     0.78403   0.83334   0.24999   0.00000  Uiso   1.00
N712   N     0.88264   0.83332   0.25001   0.00000  Uiso   1.00
O713   O     0.70625   0.77322   0.25000   0.00000  Uiso   1.00
O714   O     0.96042   0.89345   0.25000   0.00000  Uiso   1.00
O715   O     0.96039   0.77321   0.25001   0.00000  Uiso   1.00
O716   O     0.70628   0.89346   0.25000   0.00000  Uiso   1.00
O717   O     0.68519   0.83334   0.31492   0.00000  Uiso   1.00
O718   O     0.98148   0.83332   0.18509   0.00000  Uiso   1.00
O719   O     0.93933   0.83333   0.31492   0.00000  Uiso   1.00
O720   O     0.72733   0.83333   0.18508   0.00000  Uiso   1.00
O721   O     0.93236   0.88453   0.04695   0.00000  Uiso   1.00
H722   H     0.91394   0.88573   0.07937   0.00000  Uiso   1.00
O723   O     0.73640   0.77881   0.45428   0.00000  Uiso   1.00
H724   H     0.75517   0.77671   0.42210   0.00000  Uiso   1.00
C725   C     0.75963   0.88962   0.09352   0.00000  Uiso   1.00
H726   H     0.79116   0.90684   0.07188   0.00000  Uiso   1.00
O727   O     0.73028   0.90854   0.12126   0.00000  Uiso   1.00
C728   C     0.91085   0.77590   0.40417   0.00000  Uiso   1.00
H729   H     0.92936   0.76486   0.37154   0.00000  Uiso   1.00
O730   O     0.88665   0.75104   0.43342   0.00000  Uiso   1.00
C731   C     0.97061   0.77412   0.12573   0.00000  Uiso   1.00
H732   H     0.96842   0.76189   0.15967   0.00000  Uiso   1.00
O733   O     0.93461   0.77168   0.11240   0.00000  Uiso   1.00
C734   C     0.68573   0.90338   0.37275   0.00000  Uiso   1.00
H735   H     0.70992   0.89436   0.34123   0.00000  Uiso   1.00
O736   O     0.68898   0.93913   0.38245   0.00000  Uiso   1.00
O737   O     0.99390   0.90271   0.47082   0.00000  Uiso   1.00
H738   H     0.69520   0.90219   0.45319   0.00000  Uiso   1.00
O739   O     0.67700   0.75840   0.03076   0.00000  Uiso   1.00
H740   H     0.99352   0.73662   0.05389   0.00000  Uiso   1.00
O741   O     0.93751   0.70687   0.32009   0.00000  Uiso   1.00
H742   H     0.93196   0.68966   0.34866   0.00000  Uiso   1.00
O743   O     0.73762   0.96073   0.18659   0.00000  Uiso   1.00
H744   H     0.76748   0.97877   0.17723   0.00000  Uiso   1.00
C745   C     0.92795   0.95090   0.32024   0.00000  Uiso   1.00
H746   H     0.93630   0.92075   0.33198   0.00000  Uiso   1.00
O747   O     0.88687   0.96282   0.33537   0.00000  Uiso   1.00
C748   C     0.72753   0.71533   0.17184   0.00000  Uiso   1.00
H749   H     0.73636   0.74777   0.17294   0.00000  Uiso   1.00
O750   O     0.73979   0.70010   0.13504   0.00000  Uiso   1.00
C751   C     0.85869   0.77803   0.31335   0.00000  Uiso   1.00
H752   H     0.89508   0.77311   0.31343   0.00000  Uiso   1.00
O753   O     0.82665   0.75789   0.34163   0.00000  Uiso   1.00
C754   C     0.80819   0.88801   0.18604   0.00000  Uiso   1.00
H755   H     0.77186   0.89247   0.18546   0.00000  Uiso   1.00
O756   O     0.84028   0.90817   0.15783   0.00000  Uiso   1.00
C757   C     0.33292   0.08758   0.74972   0.00000  Uiso   1.00
C758   C     0.00043   0.24584   0.75017   0.00000  Uiso   1.00
C759   C     0.18900   0.18583   0.54676   0.00000  Uiso   1.00
C760   C     0.14662   0.14362   0.95460   0.00000  Uiso   1.00
C761   C     0.23674   0.19949   0.52387   0.00000  Uiso   1.00
C762   C     0.09872   0.13041   0.97741   0.00000  Uiso   1.00
C763   C     0.29996   0.01964   0.78495   0.00000  Uiso   1.00
C764   C     0.03538   0.31413   0.71696   0.00000  Uiso   1.00
C765   C     0.29876   0.30963   0.78502   0.00000  Uiso   1.00
C766   C     0.03226   0.02392   0.71349   0.00000  Uiso   1.00
C767   C     0.00081   0.29059   0.75129   0.00000  Uiso   1.00
C768   C     0.33239   0.04297   0.74884   0.00000  Uiso   1.00
C769   C     0.18056   0.14094   0.78013   0.00000  Uiso   1.00
C770   C     0.15283   0.19226   0.71975   0.00000  Uiso   1.00
C771   C     0.13128   0.14151   0.77982   0.00000  Uiso   1.00
C772   C     0.20206   0.19182   0.72019   0.00000  Uiso   1.00
C773   C     0.30614   0.16911   0.83594   0.00000  Uiso   1.00
C774   C     0.02726   0.16460   0.66398   0.00000  Uiso   1.00
C775   C     0.29195   0.17592   0.88502   0.00000  Uiso   1.00
C776   C     0.04171   0.15753   0.61493   0.00000  Uiso   1.00
C777   C     0.30016   0.21193   0.95049   0.00000  Uiso   1.00
C778   C     0.03429   0.11958   0.55024   0.00000  Uiso   1.00
C779   C     0.31510   0.20727   0.90298   0.00000  Uiso   1.00
C780   C     0.01635   0.12812   0.59672   0.00000  Uiso   1.00
C781   C     0.25231   0.15285   0.91402   0.00000  Uiso   1.00
C782   C     0.08310   0.17882   0.58636   0.00000  Uiso   1.00
C783   C     0.22798   0.16841   0.95617   0.00000  Uiso   1.00
C784   C     0.10731   0.16220   0.54487   0.00000  Uiso   1.00
C785   C     0.25518   0.19369   0.97702   0.00000  Uiso   1.00
C786   C     0.07977   0.13721   0.52400   0.00000  Uiso   1.00
C787   C     0.17779   0.15975   0.97797   0.00000  Uiso   1.00
C788   C     0.15766   0.17021   0.52325   0.00000  Uiso   1.00
Cu789  Cu    0.04689   0.16667   0.75000   0.00000  Uiso   1.00
Cu790  Cu    0.28645   0.16666   0.75000   0.00000  Uiso   1.00
H791   H     0.17617   0.18846   0.58307   0.00000  Uiso   1.00
H792   H     0.15957   0.14045   0.91841   0.00000  Uiso   1.00
H793   H     0.10384   0.12148   0.80328   0.00000  Uiso   1.00
H794   H     0.22952   0.21182   0.69670   0.00000  Uiso   1.00
N795   N     0.11736   0.16668   0.74999   0.00000  Uiso   1.00
N796   N     0.21597   0.16666   0.75001   0.00000  Uiso   1.00
O797   O     0.03958   0.10655   0.75000   0.00000  Uiso   1.00
O798   O     0.29375   0.22678   0.75000   0.00000  Uiso   1.00
O799   O     0.29372   0.10654   0.75001   0.00000  Uiso   1.00
O800   O     0.03961   0.22679   0.75000   0.00000  Uiso   1.00
O801   O     0.01852   0.16668   0.81492   0.00000  Uiso   1.00
O802   O     0.31481   0.16666   0.68509   0.00000  Uiso   1.00
O803   O     0.27267   0.16667   0.81492   0.00000  Uiso   1.00
O804   O     0.06067   0.16667   0.68508   0.00000  Uiso   1.00
O805   O     0.26570   0.21786   0.54695   0.00000  Uiso   1.00
H806   H     0.24727   0.21907   0.57937   0.00000  Uiso   1.00
O807   O     0.06973   0.11214   0.95428   0.00000  Uiso   1.00
H808   H     0.08851   0.11004   0.92210   0.00000  Uiso   1.00
C809   C     0.09297   0.22296   0.59352   0.00000  Uiso   1.00
H810   H     0.12450   0.24017   0.57188   0.00000  Uiso   1.00
O811   O     0.06361   0.24188   0.62126   0.00000  Uiso   1.00
C812   C     0.24419   0.10924   0.90417   0.00000  Uiso   1.00
H813   H     0.26269   0.09819   0.87154   0.00000  Uiso   1.00
O814   O     0.21998   0.08437   0.93342   0.00000  Uiso   1.00
C815   C     0.30395   0.10746   0.62573   0.00000  Uiso   1.00
H816   H     0.30175   0.09523   0.65967   0.00000  Uiso   1.00
O817   O     0.26795   0.10501   0.61240   0.00000  Uiso   1.00
C818   C     0.01906   0.23671   0.87275   0.00000  Uiso   1.00
H819   H     0.04325   0.22769   0.84123   0.00000  Uiso   1.00
O820   O     0.02231   0.27246   0.88245   0.00000  Uiso   1.00
O821   O     0.32723   0.23604   0.97082   0.00000  Uiso   1.00
H822   H     0.02853   0.23552   0.95319   0.00000  Uiso   1.00
O823   O     0.01034   0.09173   0.53076   0.00000  Uiso   1.00
H824   H     0.32685   0.06995   0.55389   0.00000  Uiso   1.00
O825   O     0.27085   0.04020   0.82009   0.00000  Uiso   1.00
H826   H     0.26529   0.02299   0.84866   0.00000  Uiso   1.00
O827   O     0.07096   0.29407   0.68659   0.00000  Uiso   1.00
H828   H     0.10081   0.31210   0.67723   0.00000  Uiso   1.00
C829   C     0.26128   0.28423   0.82024   0.00000  Uiso   1.00
H830   H     0.26963   0.25408   0.83198   0.00000  Uiso   1.00
O831   O     0.22021   0.29615   0.83537   0.00000  Uiso   1.00
C832   C     0.06086   0.04867   0.67184   0.00000  Uiso   1.00
H833   H     0.06970   0.08110   0.67294   0.00000  Uiso   1.00
O834   O     0.07312   0.03344   0.63504   0.00000  Uiso   1.00
C835   C     0.19202   0.11136   0.81335   0.00000  Uiso   1.00
H836   H     0.22841   0.10644   0.81343   0.00000  Uiso   1.00
O837   O     0.15999   0.09122   0.84163   0.00000  Uiso   1.00
C838   C     0.14152   0.22135   0.68604   0.00000  Uiso   1.00
H839   H     0.10519   0.22581   0.68546   0.00000  Uiso   1.00
O840   O     0.17361   0.24151   0.65783   0.00000  Uiso   1.00
C841   C     0.66626   0.08758   0.74972   0.00000  Uiso   1.00
C842   C     0.33377   0.24584   0.75017   0.00000  Uiso   1.00
C843   C     0.52234   0.18583   0.54676   0.00000  Uiso   1.00
C844   C     0.47995   0.14362   0.95460   0.00000  Uiso   1.00
C845   C     0.57008   0.19949   0.52387   0.00000  Uiso   1.00
C846   C     0.43205   0.13041   0.97741   0.00000  Uiso   1.00
C847   C     0.63329   0.01964   0.78495   0.00000  Uiso   1.00
C848   C     0.36871   0.31413   0.71696   0.00000  Uiso   1.00
C849   C     0.63209   0.30963   0.78502   0.00000  Uiso   1.00
C850   C     0.36560   0.02392   0.71349   0.00000  Uiso   1.00
C851   C     0.33415   0.29059   0.75129   0.00000  Uiso   1.00
C852   C     0.66572   0.04297   0.74884   0.00000  Uiso   1.00
C853   C     0.51389   0.14094   0.78013   0.00000  Uiso   1.00
C854   C     0.48616   0.19226   0.71975   0.00000  Uiso   1.00
C855   C     0.46462   0.14151   0.77982   0.00000  Uiso   1.00
C856   C     0.53539   0.19182   0.72019   0.00000  Uiso   1.00
C857   C     0.63948   0.16911   0.83594   0.00000  Uiso   1.00
C858   C     0.36059   0.16460   0.66398   0.00000  Uiso   1.00
C859   C     0.62529   0.17592   0.88502   0.00000  Uiso   1.00
C860   C     0.37505   0.15753   0.61493   0.00000  Uiso   1.00
C861   C     0.63349   0.21193   0.95049   0.00000  Uiso   1.00
C862   C     0.36763   0.11958   0.55024   0.00000  Uiso   1.00
C863   C     0.64843   0.20727   0.90298   0.00000  Uiso   1.00
C864   C     0.34968   0.12812   0.59672   0.00000  Uiso   1.00
C865   C     0.58565   0.15285   0.91402   0.00000  Uiso   1.00
C866   C     0.41644   0.17882   0.58636   0.00000  Uiso   1.00
C867   C     0.56131   0.16841   0.95617   0.00000  Uiso   1.00
C868   C     0.44064   0.16220   0.54487   0.00000  Uiso   1.00
C869   C     0.58852   0.19369   0.97702   0.00000  Uiso   1.00
C870   C     0.41310   0.13721   0.52400   0.00000  Uiso   1.00
C871   C     0.51113   0.15975   0.97797   0.00000  Uiso   1.00
C872   C     0.49100   0.17021   0.52325   0.00000  Uiso   1.00
Cu873  Cu    0.38022   0.16667   0.75000   0.00000  Uiso   1.00
Cu874  Cu    0.61978   0.16666   0.75000   0.00000  Uiso   1.00
H875   H     0.50950   0.18846   0.58307   0.00000  Uiso   1.00
H876   H     0.49291   0.14045   0.91841   0.00000  Uiso   1.00
H877   H     0.43717   0.12148   0.80328   0.00000  Uiso   1.00
H878   H     0.56285   0.21182   0.69670   0.00000  Uiso   1.00
N879   N     0.45069   0.16668   0.74999   0.00000  Uiso   1.00
N880   N     0.54931   0.16666   0.75001   0.00000  Uiso   1.00
O881   O     0.37291   0.10655   0.75000   0.00000  Uiso   1.00
O882   O     0.62709   0.22678   0.75000   0.00000  Uiso   1.00
O883   O     0.62706   0.10654   0.75001   0.00000  Uiso   1.00
O884   O     0.37294   0.22679   0.75000   0.00000  Uiso   1.00
O885   O     0.35186   0.16668   0.81492   0.00000  Uiso   1.00
O886   O     0.64814   0.16666   0.68509   0.00000  Uiso   1.00
O887   O     0.60600   0.16667   0.81492   0.00000  Uiso   1.00
O888   O     0.39400   0.16667   0.68508   0.00000  Uiso   1.00
O889   O     0.59903   0.21786   0.54695   0.00000  Uiso   1.00
H890   H     0.58061   0.21907   0.57937   0.00000  Uiso   1.00
O891   O     0.40307   0.11214   0.95428   0.00000  Uiso   1.00
H892   H     0.42184   0.11004   0.92210   0.00000  Uiso   1.00
C893   C     0.42630   0.22296   0.59352   0.00000  Uiso   1.00
H894   H     0.45783   0.24017   0.57188   0.00000  Uiso   1.00
O895   O     0.39694   0.24188   0.62126   0.00000  Uiso   1.00
C896   C     0.57752   0.10924   0.90417   0.00000  Uiso   1.00
H897   H     0.59602   0.09819   0.87154   0.00000  Uiso   1.00
O898   O     0.55331   0.08437   0.93342   0.00000  Uiso   1.00
C899   C     0.63728   0.10746   0.62573   0.00000  Uiso   1.00
H900   H     0.63508   0.09523   0.65967   0.00000  Uiso   1.00
O901   O     0.60128   0.10501   0.61240   0.00000  Uiso   1.00
C902   C     0.35239   0.23671   0.87275   0.00000  Uiso   1.00
H903   H     0.37658   0.22769   0.84123   0.00000  Uiso   1.00
O904   O     0.35565   0.27246   0.88245   0.00000  Uiso   1.00
O905   O     0.66056   0.23604   0.97082   0.00000  Uiso   1.00
H906   H     0.36187   0.23552   0.95319   0.00000  Uiso   1.00
O907   O     0.34367   0.09173   0.53076   0.00000  Uiso   1.00
H908   H     0.66019   0.06995   0.55389   0.00000  Uiso   1.00
O909   O     0.60418   0.04020   0.82009   0.00000  Uiso   1.00
H910   H     0.59863   0.02299   0.84866   0.00000  Uiso   1.00
O911   O     0.40429   0.29407   0.68659   0.00000  Uiso   1.00
H912   H     0.43415   0.31210   0.67723   0.00000  Uiso   1.00
C913   C     0.59461   0.28423   0.82024   0.00000  Uiso   1.00
H914   H     0.60297   0.25408   0.83198   0.00000  Uiso   1.00
O915   O     0.55354   0.29615   0.83537   0.00000  Uiso   1.00
C916   C     0.39420   0.04867   0.67184   0.00000  Uiso   1.00
H917   H     0.40303   0.08110   0.67294   0.00000  Uiso   1.00
O918   O     0.40645   0.03344   0.63504   0.00000  Uiso   1.00
C919   C     0.52536   0.11136   0.81335   0.00000  Uiso   1.00
H920   H     0.56174   0.10644   0.81343   0.00000  Uiso   1.00
O921   O     0.49332   0.09122   0.84163   0.00000  Uiso   1.00
C922   C     0.47486   0.22135   0.68604   0.00000  Uiso   1.00
H923   H     0.43853   0.22581   0.68546   0.00000  Uiso   1.00
O924   O     0.50694   0.24151   0.65783   0.00000  Uiso   1.00
C925   C     0.99959   0.08758   0.74972   0.00000  Uiso   1.00
C926   C     0.66710   0.24584   0.75017   0.00000  Uiso   1.00
C927   C     0.85567   0.18583   0.54676   0.00000  Uiso   1.00
C928   C     0.81328   0.14362   0.95460   0.00000  Uiso   1.00
C929   C     0.90341   0.19949   0.52387   0.00000  Uiso   1.00
C930   C     0.76538   0.13041   0.97741   0.00000  Uiso   1.00
C931   C     0.96663   0.01964   0.78495   0.00000  Uiso   1.00
C932   C     0.70204   0.31413   0.71696   0.00000  Uiso   1.00
C933   C     0.96543   0.30963   0.78502   0.00000  Uiso   1.00
C934   C     0.69893   0.02392   0.71349   0.00000  Uiso   1.00
C935   C     0.66748   0.29059   0.75129   0.00000  Uiso   1.00
C936   C     0.99906   0.04297   0.74884   0.00000  Uiso   1.00
C937   C     0.84723   0.14094   0.78013   0.00000  Uiso   1.00
C938   C     0.81949   0.19226   0.71975   0.00000  Uiso   1.00
C939   C     0.79795   0.14151   0.77982   0.00000  Uiso   1.00
C940   C     0.86872   0.19182   0.72019   0.00000  Uiso   1.00
C941   C     0.97281   0.16911   0.83594   0.00000  Uiso   1.00
C942   C     0.69393   0.16460   0.66398   0.00000  Uiso   1.00
C943   C     0.95862   0.17592   0.88502   0.00000  Uiso   1.00
C944   C     0.70838   0.15753   0.61493   0.00000  Uiso   1.00
C945   C     0.96683   0.21193   0.95049   0.00000  Uiso   1.00
C946   C     0.70096   0.11958   0.55024   0.00000  Uiso   1.00
C947   C     0.98176   0.20727   0.90298   0.00000  Uiso   1.00
C948   C     0.68301   0.12812   0.59672   0.00000  Uiso   1.00
C949   C     0.91898   0.15285   0.91402   0.00000  Uiso   1.00
C950   C     0.74977   0.17882   0.58636   0.00000  Uiso   1.00
C951   C     0.89465   0.16841   0.95617   0.00000  Uiso   1.00
C952   C     0.77397   0.16220   0.54487   0.00000  Uiso   1.00
C953   C     0.92185   0.19369   0.97702   0.00000  Uiso   1.00
C954   C     0.74644   0.13721   0.52400   0.00000  Uiso   1.00
C955   C     0.84446   0.15975   0.97797   0.00000  Uiso   1.00
C956   C     0.82433   0.17021   0.52325   0.00000  Uiso   1.00
Cu957  Cu    0.71355   0.16667   0.75000   0.00000  Uiso   1.00
Cu958  Cu    0.95311   0.16666   0.75000   0.00000  Uiso   1.00
H959   H     0.84283   0.18846   0.58307   0.00000  Uiso   1.00
H960   H     0.82624   0.14045   0.91841   0.00000  Uiso   1.00
H961   H     0.77050   0.12148   0.80328   0.00000  Uiso   1.00
H962   H     0.89619   0.21182   0.69670   0.00000  Uiso   1.00
N963   N     0.78403   0.16668   0.74999   0.00000  Uiso   1.00
N964   N     0.88264   0.16666   0.75001   0.00000  Uiso   1.00
O965   O     0.70625   0.10655   0.75000   0.00000  Uiso   1.00
O966   O     0.96042   0.22678   0.75000   0.00000  Uiso   1.00
O967   O     0.96039   0.10654   0.75001   0.00000  Uiso   1.00
O968   O     0.70628   0.22679   0.75000   0.00000  Uiso   1.00
O969   O     0.68519   0.16668   0.81492   0.00000  Uiso   1.00
O970   O     0.98148   0.16666   0.68509   0.00000  Uiso   1.00
O971   O     0.93933   0.16667   0.81492   0.00000  Uiso   1.00
O972   O     0.72733   0.16667   0.68508   0.00000  Uiso   1.00
O973   O     0.93236   0.21786   0.54695   0.00000  Uiso   1.00
H974   H     0.91394   0.21907   0.57937   0.00000  Uiso   1.00
O975   O     0.73640   0.11214   0.95428   0.00000  Uiso   1.00
H976   H     0.75517   0.11004   0.92210   0.00000  Uiso   1.00
C977   C     0.75963   0.22296   0.59352   0.00000  Uiso   1.00
H978   H     0.79116   0.24017   0.57188   0.00000  Uiso   1.00
O979   O     0.73028   0.24188   0.62126   0.00000  Uiso   1.00
C980   C     0.91085   0.10924   0.90417   0.00000  Uiso   1.00
H981   H     0.92936   0.09819   0.87154   0.00000  Uiso   1.00
O982   O     0.88665   0.08437   0.93342   0.00000  Uiso   1.00
C983   C     0.97061   0.10746   0.62573   0.00000  Uiso   1.00
H984   H     0.96842   0.09523   0.65967   0.00000  Uiso   1.00
O985   O     0.93461   0.10501   0.61240   0.00000  Uiso   1.00
C986   C     0.68573   0.23671   0.87275   0.00000  Uiso   1.00
H987   H     0.70992   0.22769   0.84123   0.00000  Uiso   1.00
O988   O     0.68898   0.27246   0.88245   0.00000  Uiso   1.00
O989   O     0.99390   0.23604   0.97082   0.00000  Uiso   1.00
H990   H     0.69520   0.23552   0.95319   0.00000  Uiso   1.00
O991   O     0.67700   0.09173   0.53076   0.00000  Uiso   1.00
H992   H     0.99352   0.06995   0.55389   0.00000  Uiso   1.00
O993   O     0.93751   0.04020   0.82009   0.00000  Uiso   1.00
H994   H     0.93196   0.02299   0.84866   0.00000  Uiso   1.00
O995   O     0.73762   0.29407   0.68659   0.00000  Uiso   1.00
H996   H     0.76748   0.31210   0.67723   0.00000  Uiso   1.00
C997   C     0.92795   0.28423   0.82024   0.00000  Uiso   1.00
H998   H     0.93630   0.25408   0.83198   0.00000  Uiso   1.00
O999   O     0.88687   0.29615   0.83537   0.00000  Uiso   1.00
C1000  C     0.72753   0.04867   0.67184   0.00000  Uiso   1.00
H1001  H     0.73636   0.08110   0.67294   0.00000  Uiso   1.00
O1002  O     0.73979   0.03344   0.63504   0.00000  Uiso   1.00
C1003  C     0.85869   0.11136   0.81335   0.00000  Uiso   1.00
H1004  H     0.89508   0.10644   0.81343   0.00000  Uiso   1.00
O1005  O     0.82665   0.09122   0.84163   0.00000  Uiso   1.00
C1006  C     0.80819   0.22135   0.68604   0.00000  Uiso   1.00
H1007  H     0.77186   0.22581   0.68546   0.00000  Uiso   1.00
O1008  O     0.84028   0.24151   0.65783   0.00000  Uiso   1.00
C1009  C     0.33292   0.42091   0.74972   0.00000  Uiso   1.00
C1010  C     0.00043   0.57918   0.75017   0.00000  Uiso   1.00
C1011  C     0.18900   0.51917   0.54676   0.00000  Uiso   1.00
C1012  C     0.14662   0.47696   0.95460   0.00000  Uiso   1.00
C1013  C     0.23674   0.53282   0.52387   0.00000  Uiso   1.00
C1014  C     0.09872   0.46375   0.97741   0.00000  Uiso   1.00
C1015  C     0.29996   0.35298   0.78495   0.00000  Uiso   1.00
C1016  C     0.03538   0.64747   0.71696   0.00000  Uiso   1.00
C1017  C     0.29876   0.64297   0.78502   0.00000  Uiso   1.00
C1018  C     0.03226   0.35725   0.71349   0.00000  Uiso   1.00
C1019  C     0.00081   0.62393   0.75129   0.00000  Uiso   1.00
C1020  C     0.33239   0.37630   0.74884   0.00000  Uiso   1.00
C1021  C     0.18056   0.47427   0.78013   0.00000  Uiso   1.00
C1022  C     0.15283   0.52559   0.71975   0.00000  Uiso   1.00
C1023  C     0.13128   0.47484   0.77982   0.00000  Uiso   1.00
C1024  C     0.20206   0.52516   0.72019   0.00000  Uiso   1.00
C1025  C     0.30614   0.50244   0.83594   0.00000  Uiso   1.00
C1026  C     0.02726   0.49794   0.66398   0.00000  Uiso   1.00
C1027  C     0.29195   0.50926   0.88502   0.00000  Uiso   1.00
C1028  C     0.04171   0.49087   0.61493   0.00000  Uiso   1.00
C1029  C     0.30016   0.54526   0.95049   0.00000  Uiso   1.00
C1030  C     0.03429   0.45291   0.55024   0.00000  Uiso   1.00
C1031  C     0.31510   0.54060   0.90298   0.00000  Uiso   1.00
C1032  C     0.01635   0.46145   0.59672   0.00000  Uiso   1.00
C1033  C     0.25231   0.48618   0.91402   0.00000  Uiso   1.00
C1034  C     0.08310   0.51215   0.58636   0.00000  Uiso   1.00
C1035  C     0.22798   0.50174   0.95617   0.00000  Uiso   1.00
C1036  C     0.10731   0.49554   0.54487   0.00000  Uiso   1.00
C1037  C     0.25518   0.52702   0.97702   0.00000  Uiso   1.00
C1038  C     0.07977   0.47055   0.52400   0.00000  Uiso   1.00
C1039  C     0.17779   0.49308   0.97797   0.00000  Uiso   1.00
C1040  C     0.15766   0.50355   0.52325   0.00000  Uiso   1.00
Cu1041 Cu    0.04689   0.50001   0.75000   0.00000  Uiso   1.00
Cu1042 Cu    0.28645   0.49999   0.75000   0.00000  Uiso   1.00
H1043  H     0.17617   0.52179   0.58307   0.00000  Uiso   1.00
H1044  H     0.15957   0.47378   0.91841   0.00000  Uiso   1.00
H1045  H     0.10384   0.45481   0.80328   0.00000  Uiso   1.00
H1046  H     0.22952   0.54515   0.69670   0.00000  Uiso   1.00
N1047  N     0.11736   0.50001   0.74999   0.00000  Uiso   1.00
N1048  N     0.21597   0.49999   0.75001   0.00000  Uiso   1.00
O1049  O     0.03958   0.43989   0.75000   0.00000  Uiso   1.00
O1050  O     0.29375   0.56011   0.75000   0.00000  Uiso   1.00
O1051  O     0.29372   0.43988   0.75001   0.00000  Uiso   1.00
O1052  O     0.03961   0.56012   0.75000   0.00000  Uiso   1.00
O1053  O     0.01852   0.50001   0.81492   0.00000  Uiso   1.00
O1054  O     0.31481   0.49999   0.68509   0.00000  Uiso   1.00
O1055  O     0.27267   0.50000   0.81492   0.00000  Uiso   1.00
O1056  O     0.06067   0.50000   0.68508   0.00000  Uiso   1.00
O1057  O     0.26570   0.55119   0.54695   0.00000  Uiso   1.00
H1058  H     0.24727   0.55240   0.57937   0.00000  Uiso   1.00
O1059  O     0.06973   0.44548   0.95428   0.00000  Uiso   1.00
H1060  H     0.08851   0.44338   0.92210   0.00000  Uiso   1.00
C1061  C     0.09297   0.55629   0.59352   0.00000  Uiso   1.00
H1062  H     0.12450   0.57350   0.57188   0.00000  Uiso   1.00
O1063  O     0.06361   0.57521   0.62126   0.00000  Uiso   1.00
C1064  C     0.24419   0.44257   0.90417   0.00000  Uiso   1.00
H1065  H     0.26269   0.43152   0.87154   0.00000  Uiso   1.00
O1066  O     0.21998   0.41771   0.93342   0.00000  Uiso   1.00
C1067  C     0.30395   0.44079   0.62573   0.00000  Uiso   1.00
H1068  H     0.30175   0.42856   0.65967   0.00000  Uiso   1.00
O1069  O     0.26795   0.43834   0.61240   0.00000  Uiso   1.00
C1070  C     0.01906   0.57005   0.87275   0.00000  Uiso   1.00
H1071  H     0.04325   0.56103   0.84123   0.00000  Uiso   1.00
O1072  O     0.02231   0.60580   0.88245   0.00000  Uiso   1.00
O1073  O     0.32723   0.56938   0.97082   0.00000  Uiso   1.00
H1074  H     0.02853   0.56886   0.95319   0.00000  Uiso   1.00
O1075  O     0.01034   0.42506   0.53076   0.00000  Uiso   1.00
H1076  H     0.32685   0.40329   0.55389   0.00000  Uiso   1.00
O1077  O     0.27085   0.37354   0.82009   0.00000  Uiso   1.00
H1078  H     0.26529   0.35632   0.84866   0.00000  Uiso   1.00
O1079  O     0.07096   0.62740   0.68659   0.00000  Uiso   1.00
H1080  H     0.10081   0.64544   0.67723   0.00000  Uiso   1.00
C1081  C     0.26128   0.61757   0.82024   0.00000  Uiso   1.00
H1082  H     0.26963   0.58742   0.83198   0.00000  Uiso   1.00
O1083  O     0.22021   0.62949   0.83537   0.00000  Uiso   1.00
C1084  C     0.06086   0.38200   0.67184   0.00000  Uiso   1.00
H1085  H     0.06970   0.41443   0.67294   0.00000  Uiso   1.00
O1086  O     0.07312   0.36677   0.63504   0.00000  Uiso   1.00
C1087  C     0.19202   0.44469   0.81335   0.00000  Uiso   1.00
H1088  H     0.22841   0.43978   0.81343   0.00000  Uiso   1.00
O1089  O     0.15999   0.42456   0.84163   0.00000  Uiso   1.00
C1090  C     0.14152   0.55468   0.68604   0.00000  Uiso   1.00
H1091  H     0.10519   0.55914   0.68546   0.00000  Uiso   1.00
O1092  O     0.17361   0.57484   0.65783   0.00000  Uiso   1.00
C1093  C     0.66626   0.42091   0.74972   0.00000  Uiso   1.00
C1094  C     0.33377   0.57918   0.75017   0.00000  Uiso   1.00
C1095  C     0.52234   0.51917   0.54676   0.00000  Uiso   1.00
C1096  C     0.47995   0.47696   0.95460   0.00000  Uiso   1.00
C1097  C     0.57008   0.53282   0.52387   0.00000  Uiso   1.00
C1098  C     0.43205   0.46375   0.97741   0.00000  Uiso   1.00
C1099  C     0.63329   0.35298   0.78495   0.00000  Uiso   1.00
C1100  C     0.36871   0.64747   0.71696   0.00000  Uiso   1.00
C1101  C     0.63209   0.64297   0.78502   0.00000  Uiso   1.00
C1102  C     0.36560   0.35725   0.71349   0.00000  Uiso   1.00
C1103  C     0.33415   0.62393   0.75129   0.00000  Uiso   1.00
C1104  C     0.66572   0.37630   0.74884   0.00000  Uiso   1.00
C1105  C     0.51389   0.47427   0.78013   0.00000  Uiso   1.00
C1106  C     0.48616   0.52559   0.71975   0.00000  Uiso   1.00
C1107  C     0.46462   0.47484   0.77982   0.00000  Uiso   1.00
C1108  C     0.53539   0.52516   0.72019   0.00000  Uiso   1.00
C1109  C     0.63948   0.50244   0.83594   0.00000  Uiso   1.00
C1110  C     0.36059   0.49794   0.66398   0.00000  Uiso   1.00
C1111  C     0.62529   0.50926   0.88502   0.00000  Uiso   1.00
C1112  C     0.37505   0.49087   0.61493   0.00000  Uiso   1.00
C1113  C     0.63349   0.54526   0.95049   0.00000  Uiso   1.00
C1114  C     0.36763   0.45291   0.55024   0.00000  Uiso   1.00
C1115  C     0.64843   0.54060   0.90298   0.00000  Uiso   1.00
C1116  C     0.34968   0.46145   0.59672   0.00000  Uiso   1.00
C1117  C     0.58565   0.48618   0.91402   0.00000  Uiso   1.00
C1118  C     0.41644   0.51215   0.58636   0.00000  Uiso   1.00
C1119  C     0.56131   0.50174   0.95617   0.00000  Uiso   1.00
C1120  C     0.44064   0.49554   0.54487   0.00000  Uiso   1.00
C1121  C     0.58852   0.52702   0.97702   0.00000  Uiso   1.00
C1122  C     0.41310   0.47055   0.52400   0.00000  Uiso   1.00
C1123  C     0.51113   0.49308   0.97797   0.00000  Uiso   1.00
C1124  C     0.49100   0.50355   0.52325   0.00000  Uiso   1.00
Cu1125 Cu    0.38022   0.50001   0.75000   0.00000  Uiso   1.00
Cu1126 Cu    0.61978   0.49999   0.75000   0.00000  Uiso   1.00
H1127  H     0.50950   0.52179   0.58307   0.00000  Uiso   1.00
H1128  H     0.49291   0.47378   0.91841   0.00000  Uiso   1.00
H1129  H     0.43717   0.45481   0.80328   0.00000  Uiso   1.00
H1130  H     0.56285   0.54515   0.69670   0.00000  Uiso   1.00
N1131  N     0.45069   0.50001   0.74999   0.00000  Uiso   1.00
N1132  N     0.54931   0.49999   0.75001   0.00000  Uiso   1.00
O1133  O     0.37291   0.43989   0.75000   0.00000  Uiso   1.00
O1134  O     0.62709   0.56011   0.75000   0.00000  Uiso   1.00
O1135  O     0.62706   0.43988   0.75001   0.00000  Uiso   1.00
O1136  O     0.37294   0.56012   0.75000   0.00000  Uiso   1.00
O1137  O     0.35186   0.50001   0.81492   0.00000  Uiso   1.00
O1138  O     0.64814   0.49999   0.68509   0.00000  Uiso   1.00
O1139  O     0.60600   0.50000   0.81492   0.00000  Uiso   1.00
O1140  O     0.39400   0.50000   0.68508   0.00000  Uiso   1.00
O1141  O     0.59903   0.55119   0.54695   0.00000  Uiso   1.00
H1142  H     0.58061   0.55240   0.57937   0.00000  Uiso   1.00
O1143  O     0.40307   0.44548   0.95428   0.00000  Uiso   1.00
H1144  H     0.42184   0.44338   0.92210   0.00000  Uiso   1.00
C1145  C     0.42630   0.55629   0.59352   0.00000  Uiso   1.00
H1146  H     0.45783   0.57350   0.57188   0.00000  Uiso   1.00
O1147  O     0.39694   0.57521   0.62126   0.00000  Uiso   1.00
C1148  C     0.57752   0.44257   0.90417   0.00000  Uiso   1.00
H1149  H     0.59602   0.43152   0.87154   0.00000  Uiso   1.00
O1150  O     0.55331   0.41771   0.93342   0.00000  Uiso   1.00
C1151  C     0.63728   0.44079   0.62573   0.00000  Uiso   1.00
H1152  H     0.63508   0.42856   0.65967   0.00000  Uiso   1.00
O1153  O     0.60128   0.43834   0.61240   0.00000  Uiso   1.00
C1154  C     0.35239   0.57005   0.87275   0.00000  Uiso   1.00
H1155  H     0.37658   0.56103   0.84123   0.00000  Uiso   1.00
O1156  O     0.35565   0.60580   0.88245   0.00000  Uiso   1.00
O1157  O     0.66056   0.56938   0.97082   0.00000  Uiso   1.00
H1158  H     0.36187   0.56886   0.95319   0.00000  Uiso   1.00
O1159  O     0.34367   0.42506   0.53076   0.00000  Uiso   1.00
H1160  H     0.66019   0.40329   0.55389   0.00000  Uiso   1.00
O1161  O     0.60418   0.37354   0.82009   0.00000  Uiso   1.00
H1162  H     0.59863   0.35632   0.84866   0.00000  Uiso   1.00
O1163  O     0.40429   0.62740   0.68659   0.00000  Uiso   1.00
H1164  H     0.43415   0.64544   0.67723   0.00000  Uiso   1.00
C1165  C     0.59461   0.61757   0.82024   0.00000  Uiso   1.00
H1166  H     0.60297   0.58742   0.83198   0.00000  Uiso   1.00
O1167  O     0.55354   0.62949   0.83537   0.00000  Uiso   1.00
C1168  C     0.39420   0.38200   0.67184   0.00000  Uiso   1.00
H1169  H     0.40303   0.41443   0.67294   0.00000  Uiso   1.00
O1170  O     0.40645   0.36677   0.63504   0.00000  Uiso   1.00
C1171  C     0.52536   0.44469   0.81335   0.00000  Uiso   1.00
H1172  H     0.56174   0.43978   0.81343   0.00000  Uiso   1.00
O1173  O     0.49332   0.42456   0.84163   0.00000  Uiso   1.00
C1174  C     0.47486   0.55468   0.68604   0.00000  Uiso   1.00
H1175  H     0.43853   0.55914   0.68546   0.00000  Uiso   1.00
O1176  O     0.50694   0.57484   0.65783   0.00000  Uiso   1.00
C1177  C     0.99959   0.42091   0.74972   0.00000  Uiso   1.00
C1178  C     0.66710   0.57918   0.75017   0.00000  Uiso   1.00
C1179  C     0.85567   0.51917   0.54676   0.00000  Uiso   1.00
C1180  C     0.81328   0.47696   0.95460   0.00000  Uiso   1.00
C1181  C     0.90341   0.53282   0.52387   0.00000  Uiso   1.00
C1182  C     0.76538   0.46375   0.97741   0.00000  Uiso   1.00
C1183  C     0.96663   0.35298   0.78495   0.00000  Uiso   1.00
C1184  C     0.70204   0.64747   0.71696   0.00000  Uiso   1.00
C1185  C     0.96543   0.64297   0.78502   0.00000  Uiso   1.00
C1186  C     0.69893   0.35725   0.71349   0.00000  Uiso   1.00
C1187  C     0.66748   0.62393   0.75129   0.00000  Uiso   1.00
C1188  C     0.99906   0.37630   0.74884   0.00000  Uiso   1.00
C1189  C     0.84723   0.47427   0.78013   0.00000  Uiso   1.00
C1190  C     0.81949   0.52559   0.71975   0.00000  Uiso   1.00
C1191  C     0.79795   0.47484   0.77982   0.00000  Uiso   1.00
C1192  C     0.86872   0.52516   0.72019   0.00000  Uiso   1.00
C1193  C     0.97281   0.50244   0.83594   0.00000  Uiso   1.00
C1194  C     0.69393   0.49794   0.66398   0.00000  Uiso   1.00
C1195  C     0.95862   0.50926   0.88502   0.00000  Uiso   1.00
C1196  C     0.70838   0.49087   0.61493   0.00000  Uiso   1.00
C1197  C     0.96683   0.54526   0.95049   0.00000  Uiso   1.00
C1198  C     0.70096   0.45291   0.55024   0.00000  Uiso   1.00
C1199  C     0.98176   0.54060   0.90298   0.00000  Uiso   1.00
C1200  C     0.68301   0.46145   0.59672   0.00000  Uiso   1.00
C1201  C     0.91898   0.48618   0.91402   0.00000  Uiso   1.00
C1202  C     0.74977   0.51215   0.58636   0.00000  Uiso   1.00
C1203  C     0.89465   0.50174   0.95617   0.00000  Uiso   1.00
C1204  C     0.77397   0.49554   0.54487   0.00000  Uiso   1.00
C1205  C     0.92185   0.52702   0.97702   0.00000  Uiso   1.00
C1206  C     0.74644   0.47055   0.52400   0.00000  Uiso   1.00
C1207  C     0.84446   0.49308   0.97797   0.00000  Uiso   1.00
C1208  C     0.82433   0.50355   0.52325   0.00000  Uiso   1.00
Cu1209 Cu    0.71355   0.50001   0.75000   0.00000  Uiso   1.00
Cu1210 Cu    0.95311   0.49999   0.75000   0.00000  Uiso   1.00
H1211  H     0.84283   0.52179   0.58307   0.00000  Uiso   1.00
H1212  H     0.82624   0.47378   0.91841   0.00000  Uiso   1.00
H1213  H     0.77050   0.45481   0.80328   0.00000  Uiso   1.00
H1214  H     0.89619   0.54515   0.69670   0.00000  Uiso   1.00
N1215  N     0.78403   0.50001   0.74999   0.00000  Uiso   1.00
N1216  N     0.88264   0.49999   0.75001   0.00000  Uiso   1.00
O1217  O     0.70625   0.43989   0.75000   0.00000  Uiso   1.00
O1218  O     0.96042   0.56011   0.75000   0.00000  Uiso   1.00
O1219  O     0.96039   0.43988   0.75001   0.00000  Uiso   1.00
O1220  O     0.70628   0.56012   0.75000   0.00000  Uiso   1.00
O1221  O     0.68519   0.50001   0.81492   0.00000  Uiso   1.00
O1222  O     0.98148   0.49999   0.68509   0.00000  Uiso   1.00
O1223  O     0.93933   0.50000   0.81492   0.00000  Uiso   1.00
O1224  O     0.72733   0.50000   0.68508   0.00000  Uiso   1.00
O1225  O     0.93236   0.55119   0.54695   0.00000  Uiso   1.00
H1226  H     0.91394   0.55240   0.57937   0.00000  Uiso   1.00
O1227  O     0.73640   0.44548   0.95428   0.00000  Uiso   1.00
H1228  H     0.75517   0.44338   0.92210   0.00000  Uiso   1.00
C1229  C     0.75963   0.55629   0.59352   0.00000  Uiso   1.00
H1230  H     0.79116   0.57350   0.57188   0.00000  Uiso   1.00
O1231  O     0.73028   0.57521   0.62126   0.00000  Uiso   1.00
C1232  C     0.91085   0.44257   0.90417   0.00000  Uiso   1.00
H1233  H     0.92936   0.43152   0.87154   0.00000  Uiso   1.00
O1234  O     0.88665   0.41771   0.93342   0.00000  Uiso   1.00
C1235  C     0.97061   0.44079   0.62573   0.00000  Uiso   1.00
H1236  H     0.96842   0.42856   0.65967   0.00000  Uiso   1.00
O1237  O     0.93461   0.43834   0.61240   0.00000  Uiso   1.00
C1238  C     0.68573   0.57005   0.87275   0.00000  Uiso   1.00
H1239  H     0.70992   0.56103   0.84123   0.00000  Uiso   1.00
O1240  O     0.68898   0.60580   0.88245   0.00000  Uiso   1.00
O1241  O     0.99390   0.56938   0.97082   0.00000  Uiso   1.00
H1242  H     0.69520   0.56886   0.95319   0.00000  Uiso   1.00
O1243  O     0.67700   0.42506   0.53076   0.00000  Uiso   1.00
H1244  H     0.99352   0.40329   0.55389   0.00000  Uiso   1.00
O1245  O     0.93751   0.37354   0.82009   0.00000  Uiso   1.00
H1246  H     0.93196   0.35632   0.84866   0.00000  Uiso   1.00
O1247  O     0.73762   0.62740   0.68659   0.00000  Uiso   1.00
H1248  H     0.76748   0.64544   0.67723   0.00000  Uiso   1.00
C1249  C     0.92795   0.61757   0.82024   0.00000  Uiso   1.00
H1250  H     0.93630   0.58742   0.83198   0.00000  Uiso   1.00
O1251  O     0.88687   0.62949   0.83537   0.00000  Uiso   1.00
C1252  C     0.72753   0.38200   0.67184   0.00000  Uiso   1.00
H1253  H     0.73636   0.41443   0.67294   0.00000  Uiso   1.00
O1254  O     0.73979   0.36677   0.63504   0.00000  Uiso   1.00
C1255  C     0.85869   0.44469   0.81335   0.00000  Uiso   1.00
H1256  H     0.89508   0.43978   0.81343   0.00000  Uiso   1.00
O1257  O     0.82665   0.42456   0.84163   0.00000  Uiso   1.00
C1258  C     0.80819   0.55468   0.68604   0.00000  Uiso   1.00
H1259  H     0.77186   0.55914   0.68546   0.00000  Uiso   1.00
O1260  O     0.84028   0.57484   0.65783   0.00000  Uiso   1.00
C1261  C     0.33292   0.75424   0.74972   0.00000  Uiso   1.00
C1262  C     0.00043   0.91251   0.75017   0.00000  Uiso   1.00
C1263  C     0.18900   0.85250   0.54676   0.00000  Uiso   1.00
C1264  C     0.14662   0.81029   0.95460   0.00000  Uiso   1.00
C1265  C     0.23674   0.86616   0.52387   0.00000  Uiso   1.00
C1266  C     0.09872   0.79708   0.97741   0.00000  Uiso   1.00
C1267  C     0.29996   0.68631   0.78495   0.00000  Uiso   1.00
C1268  C     0.03538   0.98080   0.71696   0.00000  Uiso   1.00
C1269  C     0.29876   0.97630   0.78502   0.00000  Uiso   1.00
C1270  C     0.03226   0.69058   0.71349   0.00000  Uiso   1.00
C1271  C     0.00081   0.95726   0.75129   0.00000  Uiso   1.00
C1272  C     0.33239   0.70963   0.74884   0.00000  Uiso   1.00
C1273  C     0.18056   0.80760   0.78013   0.00000  Uiso   1.00
C1274  C     0.15283   0.85892   0.71975   0.00000  Uiso   1.00
C1275  C     0.13128   0.80817   0.77982   0.00000  Uiso   1.00
C1276  C     0.20206   0.85849   0.72019   0.00000  Uiso   1.00
C1277  C     0.30614   0.83577   0.83594   0.00000  Uiso   1.00
C1278  C     0.02726   0.83127   0.66398   0.00000  Uiso   1.00
C1279  C     0.29195   0.84259   0.88502   0.00000  Uiso   1.00
C1280  C     0.04171   0.82420   0.61493   0.00000  Uiso   1.00
C1281  C     0.30016   0.87859   0.95049   0.00000  Uiso   1.00
C1282  C     0.03429   0.78625   0.55024   0.00000  Uiso   1.00
C1283  C     0.31510   0.87393   0.90298   0.00000  Uiso   1.00
C1284  C     0.01635   0.79478   0.59672   0.00000  Uiso   1.00
C1285  C     0.25231   0.81951   0.91402   0.00000  Uiso   1.00
C1286  C     0.08310   0.84549   0.58636   0.00000  Uiso   1.00
C1287  C     0.22798   0.83508   0.95617   0.00000  Uiso   1.00
C1288  C     0.10731   0.82887   0.54487   0.00000  Uiso   1.00
C1289  C     0.25518   0.86036   0.97702   0.00000  Uiso   1.00
C1290  C     0.07977   0.80388   0.52400   0.00000  Uiso   1.00
C1291  C     0.17779   0.82642   0.97797   0.00000  Uiso   1.00
C1292  C     0.15766   0.83688   0.52325   0.00000  Uiso   1.00
Cu1293 Cu    0.04689   0.83334   0.75000   0.00000  Uiso   1.00
Cu1294 Cu    0.28645   0.83333   0.75000   0.00000  Uiso   1.00
H1295  H     0.17617   0.85513   0.58307   0.00000  Uiso   1.00
H1296  H     0.15957   0.80712   0.91841   0.00000  Uiso   1.00
H1297  H     0.10384   0.78814   0.80328   0.00000  Uiso   1.00
H1298  H     0.22952   0.87848   0.69670   0.00000  Uiso   1.00
N1299  N     0.11736   0.83334   0.74999   0.00000  Uiso   1.00
N1300  N     0.21597   0.83332   0.75001   0.00000  Uiso   1.00
O1301  O     0.03958   0.77322   0.75000   0.00000  Uiso   1.00
O1302  O     0.29375   0.89345   0.75000   0.00000  Uiso   1.00
O1303  O     0.29372   0.77321   0.75001   0.00000  Uiso   1.00
O1304  O     0.03961   0.89346   0.75000   0.00000  Uiso   1.00
O1305  O     0.01852   0.83334   0.81492   0.00000  Uiso   1.00
O1306  O     0.31481   0.83332   0.68509   0.00000  Uiso   1.00
O1307  O     0.27267   0.83333   0.81492   0.00000  Uiso   1.00
O1308  O     0.06067   0.83333   0.68508   0.00000  Uiso   1.00
O1309  O     0.26570   0.88453   0.54695   0.00000  Uiso   1.00
H1310  H     0.24727   0.88573   0.57937   0.00000  Uiso   1.00
O1311  O     0.06973   0.77881   0.95428   0.00000  Uiso   1.00
H1312  H     0.08851   0.77671   0.92210   0.00000  Uiso   1.00
C1313  C     0.09297   0.88962   0.59352   0.00000  Uiso   1.00
H1314  H     0.12450   0.90684   0.57188   0.00000  Uiso   1.00
O1315  O     0.06361   0.90854   0.62126   0.00000  Uiso   1.00
C1316  C     0.24419   0.77590   0.90417   0.00000  Uiso   1.00
H1317  H     0.26269   0.76486   0.87154   0.00000  Uiso   1.00
O1318  O     0.21998   0.75104   0.93342   0.00000  Uiso   1.00
C1319  C     0.30395   0.77412   0.62573   0.00000  Uiso   1.00
H1320  H     0.30175   0.76189   0.65967   0.00000  Uiso   1.00
O1321  O     0.26795   0.77168   0.61240   0.00000  Uiso   1.00
C1322  C     0.01906   0.90338   0.87275   0.00000  Uiso   1.00
H1323  H     0.04325   0.89436   0.84123   0.00000  Uiso   1.00
O1324  O     0.02231   0.93913   0.88245   0.00000  Uiso   1.00
O1325  O     0.32723   0.90271   0.97082   0.00000  Uiso   1.00
H1326  H     0.02853   0.90219   0.95319   0.00000  Uiso   1.00
O1327  O     0.01034   0.75840   0.53076   0.00000  Uiso   1.00
H1328  H     0.32685   0.73662   0.55389   0.00000  Uiso   1.00
O1329  O     0.27085   0.70687   0.82009   0.00000  Uiso   1.00
H1330  H     0.26529   0.68966   0.84866   0.00000  Uiso   1.00
O1331  O     0.07096   0.96073   0.68659   0.00000  Uiso   1.00
H1332  H     0.10081   0.97877   0.67723   0.00000  Uiso   1.00
C1333  C     0.26128   0.95090   0.82024   0.00000  Uiso   1.00
H1334  H     0.26963   0.92075   0.83198   0.00000  Uiso   1.00
O1335  O     0.22021   0.96282   0.83537   0.00000  Uiso   1.00
C1336  C     0.06086   0.71533   0.67184   0.00000  Uiso   1.00
H1337  H     0.06970   0.74777   0.67294   0.00000  Uiso   1.00
O1338  O     0.07312   0.70010   0.63504   0.00000  Uiso   1.00
C1339  C     0.19202   0.77803   0.81335   0.00000  Uiso   1.00
H1340  H     0.22841   0.77311   0.81343   0.00000  Uiso   1.00
O1341  O     0.15999   0.75789   0.84163   0.00000  Uiso   1.00
C1342  C     0.14152   0.88801   0.68604   0.00000  Uiso   1.00
H1343  H     0.10519   0.89247   0.68546   0.00000  Uiso   1.00
O1344  O     0.17361   0.90817   0.65783   0.00000  Uiso   1.00
C1345  C     0.66626   0.75424   0.74972   0.00000  Uiso   1.00
C1346  C     0.33377   0.91251   0.75017   0.00000  Uiso   1.00
C1347  C     0.52234   0.85250   0.54676   0.00000  Uiso   1.00
C1348  C     0.47995   0.81029   0.95460   0.00000  Uiso   1.00
C1349  C     0.57008   0.86616   0.52387   0.00000  Uiso   1.00
C1350  C     0.43205   0.79708   0.97741   0.00000  Uiso   1.00
C1351  C     0.63329   0.68631   0.78495   0.00000  Uiso   1.00
C1352  C     0.36871   0.98080   0.71696   0.00000  Uiso   1.00
C1353  C     0.63209   0.97630   0.78502   0.00000  Uiso   1.00
C1354  C     0.36560   0.69058   0.71349   0.00000  Uiso   1.00
C1355  C     0.33415   0.95726   0.75129   0.00000  Uiso   1.00
C1356  C     0.66572   0.70963   0.74884   0.00000  Uiso   1.00
C1357  C     0.51389   0.80760   0.78013   0.00000  Uiso   1.00
C1358  C     0.48616   0.85892   0.71975   0.00000  Uiso   1.00
C1359  C     0.46462   0.80817   0.77982   0.00000  Uiso   1.00
C1360  C     0.53539   0.85849   0.72019   0.00000  Uiso   1.00
C1361  C     0.63948   0.83577   0.83594   0.00000  Uiso   1.00
C1362  C     0.36059   0.83127   0.66398   0.00000  Uiso   1.00
C1363  C     0.62529   0.84259   0.88502   0.00000  Uiso   1.00
C1364  C     0.37505   0.82420   0.61493   0.00000  Uiso   1.00
C1365  C     0.63349   0.87859   0.95049   0.00000  Uiso   1.00
C1366  C     0.36763   0.78625   0.55024   0.00000  Uiso   1.00
C1367  C     0.64843   0.87393   0.90298   0.00000  Uiso   1.00
C1368  C     0.34968   0.79478   0.59672   0.00000  Uiso   1.00
C1369  C     0.58565   0.81951   0.91402   0.00000  Uiso   1.00
C1370  C     0.41644   0.84549   0.58636   0.00000  Uiso   1.00
C1371  C     0.56131   0.83508   0.95617   0.00000  Uiso   1.00
C1372  C     0.44064   0.82887   0.54487   0.00000  Uiso   1.00
C1373  C     0.58852   0.86036   0.97702   0.00000  Uiso   1.00
C1374  C     0.41310   0.80388   0.52400   0.00000  Uiso   1.00
C1375  C     0.51113   0.82642   0.97797   0.00000  Uiso   1.00
C1376  C     0.49100   0.83688   0.52325   0.00000  Uiso   1.00
Cu1377 Cu    0.38022   0.83334   0.75000   0.00000  Uiso   1.00
Cu1378 Cu    0.61978   0.83333   0.75000   0.00000  Uiso   1.00
H1379  H     0.50950   0.85513   0.58307   0.00000  Uiso   1.00
H1380  H     0.49291   0.80712   0.91841   0.00000  Uiso   1.00
H1381  H     0.43717   0.78814   0.80328   0.00000  Uiso   1.00
H1382  H     0.56285   0.87848   0.69670   0.00000  Uiso   1.00
N1383  N     0.45069   0.83334   0.74999   0.00000  Uiso   1.00
N1384  N     0.54931   0.83332   0.75001   0.00000  Uiso   1.00
O1385  O     0.37291   0.77322   0.75000   0.00000  Uiso   1.00
O1386  O     0.62709   0.89345   0.75000   0.00000  Uiso   1.00
O1387  O     0.62706   0.77321   0.75001   0.00000  Uiso   1.00
O1388  O     0.37294   0.89346   0.75000   0.00000  Uiso   1.00
O1389  O     0.35186   0.83334   0.81492   0.00000  Uiso   1.00
O1390  O     0.64814   0.83332   0.68509   0.00000  Uiso   1.00
O1391  O     0.60600   0.83333   0.81492   0.00000  Uiso   1.00
O1392  O     0.39400   0.83333   0.68508   0.00000  Uiso   1.00
O1393  O     0.59903   0.88453   0.54695   0.00000  Uiso   1.00
H1394  H     0.58061   0.88573   0.57937   0.00000  Uiso   1.00
O1395  O     0.40307   0.77881   0.95428   0.00000  Uiso   1.00
H1396  H     0.42184   0.77671   0.92210   0.00000  Uiso   1.00
C1397  C     0.42630   0.88962   0.59352   0.00000  Uiso   1.00
H1398  H     0.45783   0.90684   0.57188   0.00000  Uiso   1.00
O1399  O     0.39694   0.90854   0.62126   0.00000  Uiso   1.00
C1400  C     0.57752   0.77590   0.90417   0.00000  Uiso   1.00
H1401  H     0.59602   0.76486   0.87154   0.00000  Uiso   1.00
O1402  O     0.55331   0.75104   0.93342   0.00000  Uiso   1.00
C1403  C     0.63728   0.77412   0.62573   0.00000  Uiso   1.00
H1404  H     0.63508   0.76189   0.65967   0.00000  Uiso   1.00
O1405  O     0.60128   0.77168   0.61240   0.00000  Uiso   1.00
C1406  C     0.35239   0.90338   0.87275   0.00000  Uiso   1.00
H1407  H     0.37658   0.89436   0.84123   0.00000  Uiso   1.00
O1408  O     0.35565   0.93913   0.88245   0.00000  Uiso   1.00
O1409  O     0.66056   0.90271   0.97082   0.00000  Uiso   1.00
H1410  H     0.36187   0.90219   0.95319   0.00000  Uiso   1.00
O1411  O     0.34367   0.75840   0.53076   0.00000  Uiso   1.00
H1412  H     0.66019   0.73662   0.55389   0.00000  Uiso   1.00
O1413  O     0.60418   0.70687   0.82009   0.00000  Uiso   1.00
H1414  H     0.59863   0.68966   0.84866   0.00000  Uiso   1.00
O1415  O     0.40429   0.96073   0.68659   0.00000  Uiso   1.00
H1416  H     0.43415   0.97877   0.67723   0.00000  Uiso   1.00
C1417  C     0.59461   0.95090   0.82024   0.00000  Uiso   1.00
H1418  H     0.60297   0.92075   0.83198   0.00000  Uiso   1.00
O1419  O     0.55354   0.96282   0.83537   0.00000  Uiso   1.00
C1420  C     0.39420   0.71533   0.67184   0.00000  Uiso   1.00
H1421  H     0.40303   0.74777   0.67294   0.00000  Uiso   1.00
O1422  O     0.40645   0.70010   0.63504   0.00000  Uiso   1.00
C1423  C     0.52536   0.77803   0.81335   0.00000  Uiso   1.00
H1424  H     0.56174   0.77311   0.81343   0.00000  Uiso   1.00
O1425  O     0.49332   0.75789   0.84163   0.00000  Uiso   1.00
C1426  C     0.47486   0.88801   0.68604   0.00000  Uiso   1.00
H1427  H     0.43853   0.89247   0.68546   0.00000  Uiso   1.00
O1428  O     0.50694   0.90817   0.65783   0.00000  Uiso   1.00
C1429  C     0.99959   0.75424   0.74972   0.00000  Uiso   1.00
C1430  C     0.66710   0.91251   0.75017   0.00000  Uiso   1.00
C1431  C     0.85567   0.85250   0.54676   0.00000  Uiso   1.00
C1432  C     0.81328   0.81029   0.95460   0.00000  Uiso   1.00
C1433  C     0.90341   0.86616   0.52387   0.00000  Uiso   1.00
C1434  C     0.76538   0.79708   0.97741   0.00000  Uiso   1.00
C1435  C     0.96663   0.68631   0.78495   0.00000  Uiso   1.00
C1436  C     0.70204   0.98080   0.71696   0.00000  Uiso   1.00
C1437  C     0.96543   0.97630   0.78502   0.00000  Uiso   1.00
C1438  C     0.69893   0.69058   0.71349   0.00000  Uiso   1.00
C1439  C     0.66748   0.95726   0.75129   0.00000  Uiso   1.00
C1440  C     0.99906   0.70963   0.74884   0.00000  Uiso   1.00
C1441  C     0.84723   0.80760   0.78013   0.00000  Uiso   1.00
C1442  C     0.81949   0.85892   0.71975   0.00000  Uiso   1.00
C1443  C     0.79795   0.80817   0.77982   0.00000  Uiso   1.00
C1444  C     0.86872   0.85849   0.72019   0.00000  Uiso   1.00
C1445  C     0.97281   0.83577   0.83594   0.00000  Uiso   1.00
C1446  C     0.69393   0.83127   0.66398   0.00000  Uiso   1.00
C1447  C     0.95862   0.84259   0.88502   0.00000  Uiso   1.00
C1448  C     0.70838   0.82420   0.61493   0.00000  Uiso   1.00
C1449  C     0.96683   0.87859   0.95049   0.00000  Uiso   1.00
C1450  C     0.70096   0.78625   0.55024   0.00000  Uiso   1.00
C1451  C     0.98176   0.87393   0.90298   0.00000  Uiso   1.00
C1452  C     0.68301   0.79478   0.59672   0.00000  Uiso   1.00
C1453  C     0.91898   0.81951   0.91402   0.00000  Uiso   1.00
C1454  C     0.74977   0.84549   0.58636   0.00000  Uiso   1.00
C1455  C     0.89465   0.83508   0.95617   0.00000  Uiso   1.00
C1456  C     0.77397   0.82887   0.54487   0.00000  Uiso   1.00
C1457  C     0.92185   0.86036   0.97702   0.00000  Uiso   1.00
C1458  C     0.74644   0.80388   0.52400   0.00000  Uiso   1.00
C1459  C     0.84446   0.82642   0.97797   0.00000  Uiso   1.00
C1460  C     0.82433   0.83688   0.52325   0.00000  Uiso   1.00
Cu1461 Cu    0.71355   0.83334   0.75000   0.00000  Uiso   1.00
Cu1462 Cu    0.95311   0.83333   0.75000   0.00000  Uiso   1.00
H1463  H     0.84283   0.85513   0.58307   0.00000  Uiso   1.00
H1464  H     0.82624   0.80712   0.91841   0.00000  Uiso   1.00
H1465  H     0.77050   0.78814   0.80328   0.00000  Uiso   1.00
H1466  H     0.89619   0.87848   0.69670   0.00000  Uiso   1.00
N1467  N     0.78403   0.83334   0.74999   0.00000  Uiso   1.00
N1468  N     0.88264   0.83332   0.75001   0.00000  Uiso   1.00
O1469  O     0.70625   0.77322   0.75000   0.00000  Uiso   1.00
O1470  O     0.96042   0.89345   0.75000   0.00000  Uiso   1.00
O1471  O     0.96039   0.77321   0.75001   0.00000  Uiso   1.00
O1472  O     0.70628   0.89346   0.75000   0.00000  Uiso   1.00
O1473  O     0.68519   0.83334   0.81492   0.00000  Uiso   1.00
O1474  O     0.98148   0.83332   0.68509   0.00000  Uiso   1.00
O1475  O     0.93933   0.83333   0.81492   0.00000  Uiso   1.00
O1476  O     0.72733   0.83333   0.68508   0.00000  Uiso   1.00
O1477  O     0.93236   0.88453   0.54695   0.00000  Uiso   1.00
H1478  H     0.91394   0.88573   0.57937   0.00000  Uiso   1.00
O1479  O     0.73640   0.77881   0.95428   0.00000  Uiso   1.00
H1480  H     0.75517   0.77671   0.92210   0.00000  Uiso   1.00
C1481  C     0.75963   0.88962   0.59352   0.00000  Uiso   1.00
H1482  H     0.79116   0.90684   0.57188   0.00000  Uiso   1.00
O1483  O     0.73028   0.90854   0.62126   0.00000  Uiso   1.00
C1484  C     0.91085   0.77590   0.90417   0.00000  Uiso   1.00
H1485  H     0.92936   0.76486   0.87154   0.00000  Uiso   1.00
O1486  O     0.88665   0.75104   0.93342   0.00000  Uiso   1.00
C1487  C     0.97061   0.77412   0.62573   0.00000  Uiso   1.00
H1488  H     0.96842   0.76189   0.65967   0.00000  Uiso   1.00
O1489  O     0.93461   0.77168   0.61240   0.00000  Uiso   1.00
C1490  C     0.68573   0.90338   0.87275   0.00000  Uiso   1.00
H1491  H     0.70992   0.89436   0.84123   0.00000  Uiso   1.00
O1492  O     0.68898   0.93913   0.88245   0.00000  Uiso   1.00
O1493  O     0.99390   0.90271   0.97082   0.00000  Uiso   1.00
H1494  H     0.69520   0.90219   0.95319   0.00000  Uiso   1.00
O1495  O     0.67700   0.75840   0.53076   0.00000  Uiso   1.00
H1496  H     0.99352   0.73662   0.55389   0.00000  Uiso   1.00
O1497  O     0.93751   0.70687   0.82009   0.00000  Uiso   1.00
H1498  H     0.93196   0.68966   0.84866   0.00000  Uiso   1.00
O1499  O     0.73762   0.96073   0.68659   0.00000  Uiso   1.00
H1500  H     0.76748   0.97877   0.67723   0.00000  Uiso   1.00
C1501  C     0.92795   0.95090   0.82024   0.00000  Uiso   1.00
H1502  H     0.93630   0.92075   0.83198   0.00000  Uiso   1.00
O1503  O     0.88687   0.96282   0.83537   0.00000  Uiso   1.00
C1504  C     0.72753   0.71533   0.67184   0.00000  Uiso   1.00
H1505  H     0.73636   0.74777   0.67294   0.00000  Uiso   1.00
O1506  O     0.73979   0.70010   0.63504   0.00000  Uiso   1.00
C1507  C     0.85869   0.77803   0.81335   0.00000  Uiso   1.00
H1508  H     0.89508   0.77311   0.81343   0.00000  Uiso   1.00
O1509  O     0.82665   0.75789   0.84163   0.00000  Uiso   1.00
C1510  C     0.80819   0.88801   0.68604   0.00000  Uiso   1.00
H1511  H     0.77186   0.89247   0.68546   0.00000  Uiso   1.00
O1512  O     0.84028   0.90817   0.65783   0.00000  Uiso   1.00
loop_
_geom_bond_atom_site_label_1
_geom_bond_atom_site_label_2
_geom_bond_distance
_geom_bond_site_symmetry_2
_ccdc_geom_bond_type
C1     O43     1.297   .     A
C1     C12     1.450   .     S
C1     O125    1.295   .     S
C2     O44     1.299   .     A
C2     C11     1.456   .     S
C2     O210    1.295   1_455 S
C3     H35     1.082   .     S
C3     C5      1.403   .     A
C3     C32     1.408   .     A
C4     H36     1.081   .     S
C4     C6      1.402   .     A
C4     C31     1.408   .     A
C5     O49     1.383   .     S
C5     C785    1.413   1_554 S
C6     O51     1.383   .     S
C6     C786    1.413   .     S
C7     C12     1.404   .     A
C7     O69     1.379   .     S
C7     C513    1.407   1_545 S
C8     C11     1.405   .     A
C8     O71     1.377   .     S
C8     C262    1.406   .     S
C9     C73     1.490   .     S
C9     C259    1.407   .     S
C9     C95     1.411   .     S
C10    C76     1.494   .     S
C10    C512    1.406   1_545 S
C10    C180    1.409   1_455 S
C11    C177    1.411   1_455 S
C12    C94     1.409   .     S
C13    C79     1.481   .     S
C13    N40     1.392   .     A
C13    C15     1.422   .     A
C14    N39     1.392   .     A
C14    C16     1.422   .     A
C14    C82     1.480   .     S
C15    H37     1.082   .     S
C15    N39     1.352   .     A
C16    N40     1.351   .     A
C16    H38     1.082   .     S
C17    O47     1.309   .     A
C17    C19     1.479   .     S
C17    O129    1.297   .     S
C18    O48     1.308   .     A
C18    C20     1.480   .     S
C18    O214    1.298   1_455 S
C19    C23     1.421   .     A
C19    C25     1.404   .     A
C20    C24     1.419   .     A
C20    C26     1.404   .     A
C21    C29     1.416   .     A
C21    O65     1.382   .     S
C21    C23     1.420   .     A
C22    C24     1.421   .     A
C22    C30     1.417   .     A
C22    O67     1.383   .     S
C23    C146    1.491   .     S
C24    C227    1.486   1_455 S
C25    C56     1.490   .     S
C25    C27     1.413   .     A
C26    C53     1.494   .     S
C26    C28     1.411   .     A
C27    C29     1.417   .     A
C27    C31     1.423   .     A
C28    C32     1.423   .     A
C28    C30     1.418   .     A
C29    C761    1.413   .     S
C30    C762    1.413   1_554 S
C31    C788    1.412   .     S
C32    C787    1.412   1_554 S
Cu33   O45     1.933   .     S
Cu33   N39     2.029   .     S
Cu33   O44     1.969   .     S
Cu33   O41     1.959   .     S
Cu33   O48     1.925   .     S
Cu33   Cu202   2.699   1_455 S
Cu34   O42     1.959   .     S
Cu34   N40     2.029   .     S
Cu34   O46     1.933   .     S
Cu34   O43     1.969   .     S
Cu34   O47     1.925   .     S
Cu34   Cu117   2.699   .     S
O41    C169    1.295   1_455 S
O42    C86     1.295   .     S
O45    C185    1.297   1_455 S
O46    C102    1.298   .     S
O49    H50     0.992   .     S
O51    H52     0.991   .     S
C53    H54     1.083   .     S
C53    O55     1.220   .     D
C56    H57     1.078   .     S
C56    O58     1.221   .     D
C59    H60     1.084   .     S
C59    O61     1.221   .     D
C59    C108    1.486   .     S
C62    O64     1.221   .     D
C62    H63     1.080   .     S
C62    C191    1.491   1_455 S
O65    H150    0.991   .     S
H66    O233    0.991   1_455 S
O67    H236    0.989   1_455 S
H68    O151    0.989   .     S
O69    H70     0.990   .     S
O71    H72     0.991   .     S
C73    H74     1.084   .     S
C73    O75     1.221   .     D
C76    H77     1.082   .     S
C76    O78     1.221   .     D
C79    O81     1.222   .     D
C79    H80     1.064   .     S
C82    H83     1.064   .     S
C82    O84     1.222   .     D
C85    O127    1.297   .     A
C85    C96     1.450   .     S
C85    O209    1.295   .     S
C86    O128    1.299   .     A
C86    C95     1.456   .     S
C87    H119    1.082   .     S
C87    C89     1.403   .     A
C87    C116    1.408   .     A
C88    H120    1.081   .     S
C88    C90     1.402   .     A
C88    C115    1.408   .     A
C89    O133    1.383   .     S
C89    C869    1.413   1_554 S
C90    O135    1.383   .     S
C90    C870    1.413   .     S
C91    C96     1.404   .     A
C91    O153    1.379   .     S
C91    C597    1.407   1_545 S
C92    C95     1.405   .     A
C92    O155    1.377   .     S
C92    C346    1.406   .     S
C93    C157    1.490   .     S
C93    C343    1.407   .     S
C93    C179    1.411   .     S
C94    C160    1.494   .     S
C94    C596    1.406   1_545 S
C96    C178    1.409   .     S
C97    C163    1.481   .     S
C97    N124    1.392   .     A
C97    C99     1.422   .     A
C98    N123    1.392   .     A
C98    C100    1.422   .     A
C98    C166    1.480   .     S
C99    H121    1.082   .     S
C99    N123    1.352   .     A
C100   N124    1.351   .     A
C100   H122    1.082   .     S
C101   O131    1.309   .     A
C101   C103    1.479   .     S
C101   O213    1.297   .     S
C102   O132    1.308   .     A
C102   C104    1.480   .     S
C103   C107    1.421   .     A
C103   C109    1.404   .     A
C104   C108    1.419   .     A
C104   C110    1.404   .     A
C105   C113    1.416   .     A
C105   O149    1.382   .     S
C105   C107    1.420   .     A
C106   C108    1.421   .     A
C106   C114    1.417   .     A
C106   O151    1.383   .     S
C107   C230    1.491   .     S
C109   C140    1.490   .     S
C109   C111    1.413   .     A
C110   C137    1.494   .     S
C110   C112    1.411   .     A
C111   C113    1.417   .     A
C111   C115    1.423   .     A
C112   C116    1.423   .     A
C112   C114    1.418   .     A
C113   C845    1.413   .     S
C114   C846    1.413   1_554 S
C115   C872    1.412   .     S
C116   C871    1.412   1_554 S
Cu117  O129    1.933   .     S
Cu117  N123    2.029   .     S
Cu117  O128    1.969   .     S
Cu117  O125    1.959   .     S
Cu117  O132    1.925   .     S
Cu118  O126    1.959   .     S
Cu118  N124    2.029   .     S
Cu118  O130    1.933   .     S
Cu118  O127    1.969   .     S
Cu118  O131    1.925   .     S
Cu118  Cu201   2.699   .     S
O126   C170    1.295   .     S
O130   C186    1.298   .     S
O133   H134    0.992   .     S
O135   H136    0.991   .     S
C137   H138    1.083   .     S
C137   O139    1.220   .     D
C140   H141    1.078   .     S
C140   O142    1.221   .     D
C143   H144    1.084   .     S
C143   O145    1.221   .     D
C143   C192    1.486   .     S
C146   O148    1.221   .     D
C146   H147    1.080   .     S
O149   H234    0.991   .     S
H152   O235    0.989   .     S
O153   H154    0.990   .     S
O155   H156    0.991   .     S
C157   H158    1.084   .     S
C157   O159    1.221   .     D
C160   H161    1.082   .     S
C160   O162    1.221   .     D
C163   O165    1.222   .     D
C163   H164    1.064   .     S
C166   H167    1.064   .     S
C166   O168    1.222   .     D
C169   O211    1.297   .     A
C169   C180    1.450   .     S
C169   O41     1.295   1_655 S
C170   O212    1.299   .     A
C170   C179    1.456   .     S
C171   H203    1.082   .     S
C171   C173    1.403   .     A
C171   C200    1.408   .     A
C172   H204    1.081   .     S
C172   C174    1.402   .     A
C172   C199    1.408   .     A
C173   O217    1.383   .     S
C173   C953    1.413   1_554 S
C174   O219    1.383   .     S
C174   C954    1.413   .     S
C175   C180    1.404   .     A
C175   O237    1.379   .     S
C175   C681    1.407   1_545 S
C176   C179    1.405   .     A
C176   O239    1.377   .     S
C176   C430    1.406   .     S
C177   C241    1.490   .     S
C177   C427    1.407   .     S
C177   C11     1.411   1_655 S
C178   C244    1.494   .     S
C178   C680    1.406   1_545 S
C180   C10     1.409   1_655 S
C181   C247    1.481   .     S
C181   N208    1.392   .     A
C181   C183    1.422   .     A
C182   N207    1.392   .     A
C182   C184    1.422   .     A
C182   C250    1.480   .     S
C183   H205    1.082   .     S
C183   N207    1.352   .     A
C184   N208    1.351   .     A
C184   H206    1.082   .     S
C185   O215    1.309   .     A
C185   C187    1.479   .     S
C185   O45     1.297   1_655 S
C186   O216    1.308   .     A
C186   C188    1.480   .     S
C187   C191    1.421   .     A
C187   C193    1.404   .     A
C188   C192    1.419   .     A
C188   C194    1.404   .     A
C189   C197    1.416   .     A
C189   O233    1.382   .     S
C189   C191    1.420   .     A
C190   C192    1.421   .     A
C190   C198    1.417   .     A
C190   O235    1.383   .     S
C191   C62     1.491   1_655 S
C193   C224    1.490   .     S
C193   C195    1.413   .     A
C194   C221    1.494   .     S
C194   C196    1.411   .     A
C195   C197    1.417   .     A
C195   C199    1.423   .     A
C196   C200    1.423   .     A
C196   C198    1.418   .     A
C197   C929    1.413   .     S
C198   C930    1.413   1_554 S
C199   C956    1.412   .     S
C200   C955    1.412   1_554 S
Cu201  O213    1.933   .     S
Cu201  N207    2.029   .     S
Cu201  O212    1.969   .     S
Cu201  O209    1.959   .     S
Cu201  O216    1.925   .     S
Cu202  O210    1.959   .     S
Cu202  N208    2.029   .     S
Cu202  O214    1.933   .     S
Cu202  O211    1.969   .     S
Cu202  O215    1.925   .     S
Cu202  Cu33    2.699   1_655 S
O210   C2      1.295   1_655 S
O214   C18     1.298   1_655 S
O217   H218    0.992   .     S
O219   H220    0.991   .     S
C221   H222    1.083   .     S
C221   O223    1.220   .     D
C224   H225    1.078   .     S
C224   O226    1.221   .     D
C227   H228    1.084   .     S
C227   O229    1.221   .     D
C227   C24     1.486   1_655 S
C230   O232    1.221   .     D
C230   H231    1.080   .     S
O233   H66     0.991   1_655 S
H236   O67     0.989   1_655 S
O237   H238    0.990   .     S
O239   H240    0.991   .     S
C241   H242    1.084   .     S
C241   O243    1.221   .     D
C244   H245    1.082   .     S
C244   O246    1.221   .     D
C247   O249    1.222   .     D
C247   H248    1.064   .     S
C250   H251    1.064   .     S
C250   O252    1.222   .     D
C253   O295    1.297   .     A
C253   C264    1.450   .     S
C253   O377    1.295   .     S
C254   O296    1.299   .     A
C254   C263    1.456   .     S
C254   O462    1.295   1_455 S
C255   H287    1.082   .     S
C255   C257    1.403   .     A
C255   C284    1.408   .     A
C256   H288    1.081   .     S
C256   C258    1.402   .     A
C256   C283    1.408   .     A
C257   O301    1.383   .     S
C257   C1037   1.413   1_554 S
C258   O303    1.383   .     S
C258   C1038   1.413   .     S
C259   C264    1.404   .     A
C259   O321    1.379   .     S
C260   C263    1.405   .     A
C260   O323    1.377   .     S
C260   C514    1.406   .     S
C261   C325    1.490   .     S
C261   C511    1.407   .     S
C261   C347    1.411   .     S
C262   C328    1.494   .     S
C262   C432    1.409   1_455 S
C263   C429    1.411   1_455 S
C264   C346    1.409   .     S
C265   C331    1.481   .     S
C265   N292    1.392   .     A
C265   C267    1.422   .     A
C266   N291    1.392   .     A
C266   C268    1.422   .     A
C266   C334    1.480   .     S
C267   H289    1.082   .     S
C267   N291    1.352   .     A
C268   N292    1.351   .     A
C268   H290    1.082   .     S
C269   O299    1.309   .     A
C269   C271    1.479   .     S
C269   O381    1.297   .     S
C270   O300    1.308   .     A
C270   C272    1.480   .     S
C270   O466    1.298   1_455 S
C271   C275    1.421   .     A
C271   C277    1.404   .     A
C272   C276    1.419   .     A
C272   C278    1.404   .     A
C273   C281    1.416   .     A
C273   O317    1.382   .     S
C273   C275    1.420   .     A
C274   C276    1.421   .     A
C274   C282    1.417   .     A
C274   O319    1.383   .     S
C275   C398    1.491   .     S
C276   C479    1.486   1_455 S
C277   C308    1.490   .     S
C277   C279    1.413   .     A
C278   C305    1.494   .     S
C278   C280    1.411   .     A
C279   C281    1.417   .     A
C279   C283    1.423   .     A
C280   C284    1.423   .     A
C280   C282    1.418   .     A
C281   C1013   1.413   .     S
C282   C1014   1.413   1_554 S
C283   C1040   1.412   .     S
C284   C1039   1.412   1_554 S
Cu285  O297    1.933   .     S
Cu285  N291    2.029   .     S
Cu285  O296    1.969   .     S
Cu285  O293    1.959   .     S
Cu285  O300    1.925   .     S
Cu285  Cu454   2.699   1_455 S
Cu286  O294    1.959   .     S
Cu286  N292    2.029   .     S
Cu286  O298    1.933   .     S
Cu286  O295    1.969   .     S
Cu286  O299    1.925   .     S
Cu286  Cu369   2.699   .     S
O293   C421    1.295   1_455 S
O294   C338    1.295   .     S
O297   C437    1.297   1_455 S
O298   C354    1.298   .     S
O301   H302    0.992   .     S
O303   H304    0.991   .     S
C305   H306    1.083   .     S
C305   O307    1.220   .     D
C308   H309    1.078   .     S
C308   O310    1.221   .     D
C311   H312    1.084   .     S
C311   O313    1.221   .     D
C311   C360    1.486   .     S
C314   O316    1.221   .     D
C314   H315    1.080   .     S
C314   C443    1.491   1_455 S
O317   H402    0.991   .     S
H318   O485    0.991   1_455 S
O319   H488    0.989   1_455 S
H320   O403    0.989   .     S
O321   H322    0.990   .     S
O323   H324    0.991   .     S
C325   H326    1.084   .     S
C325   O327    1.221   .     D
C328   H329    1.082   .     S
C328   O330    1.221   .     D
C331   O333    1.222   .     D
C331   H332    1.064   .     S
C334   H335    1.064   .     S
C334   O336    1.222   .     D
C337   O379    1.297   .     A
C337   C348    1.450   .     S
C337   O461    1.295   .     S
C338   O380    1.299   .     A
C338   C347    1.456   .     S
C339   H371    1.082   .     S
C339   C341    1.403   .     A
C339   C368    1.408   .     A
C340   H372    1.081   .     S
C340   C342    1.402   .     A
C340   C367    1.408   .     A
C341   O385    1.383   .     S
C341   C1121   1.413   1_554 S
C342   O387    1.383   .     S
C342   C1122   1.413   .     S
C343   C348    1.404   .     A
C343   O405    1.379   .     S
C344   C347    1.405   .     A
C344   O407    1.377   .     S
C344   C598    1.406   .     S
C345   C409    1.490   .     S
C345   C595    1.407   .     S
C345   C431    1.411   .     S
C346   C412    1.494   .     S
C348   C430    1.409   .     S
C349   C415    1.481   .     S
C349   N376    1.392   .     A
C349   C351    1.422   .     A
C350   N375    1.392   .     A
C350   C352    1.422   .     A
C350   C418    1.480   .     S
C351   H373    1.082   .     S
C351   N375    1.352   .     A
C352   N376    1.351   .     A
C352   H374    1.082   .     S
C353   O383    1.309   .     A
C353   C355    1.479   .     S
C353   O465    1.297   .     S
C354   O384    1.308   .     A
C354   C356    1.480   .     S
C355   C359    1.421   .     A
C355   C361    1.404   .     A
C356   C360    1.419   .     A
C356   C362    1.404   .     A
C357   C365    1.416   .     A
C357   O401    1.382   .     S
C357   C359    1.420   .     A
C358   C360    1.421   .     A
C358   C366    1.417   .     A
C358   O403    1.383   .     S
C359   C482    1.491   .     S
C361   C392    1.490   .     S
C361   C363    1.413   .     A
C362   C389    1.494   .     S
C362   C364    1.411   .     A
C363   C365    1.417   .     A
C363   C367    1.423   .     A
C364   C368    1.423   .     A
C364   C366    1.418   .     A
C365   C1097   1.413   .     S
C366   C1098   1.413   1_554 S
C367   C1124   1.412   .     S
C368   C1123   1.412   1_554 S
Cu369  O381    1.933   .     S
Cu369  N375    2.029   .     S
Cu369  O380    1.969   .     S
Cu369  O377    1.959   .     S
Cu369  O384    1.925   .     S
Cu370  O378    1.959   .     S
Cu370  N376    2.029   .     S
Cu370  O382    1.933   .     S
Cu370  O379    1.969   .     S
Cu370  O383    1.925   .     S
Cu370  Cu453   2.699   .     S
O378   C422    1.295   .     S
O382   C438    1.298   .     S
O385   H386    0.992   .     S
O387   H388    0.991   .     S
C389   H390    1.083   .     S
C389   O391    1.220   .     D
C392   H393    1.078   .     S
C392   O394    1.221   .     D
C395   H396    1.084   .     S
C395   O397    1.221   .     D
C395   C444    1.486   .     S
C398   O400    1.221   .     D
C398   H399    1.080   .     S
O401   H486    0.991   .     S
H404   O487    0.989   .     S
O405   H406    0.990   .     S
O407   H408    0.991   .     S
C409   H410    1.084   .     S
C409   O411    1.221   .     D
C412   H413    1.082   .     S
C412   O414    1.221   .     D
C415   O417    1.222   .     D
C415   H416    1.064   .     S
C418   H419    1.064   .     S
C418   O420    1.222   .     D
C421   O463    1.297   .     A
C421   C432    1.450   .     S
C421   O293    1.295   1_655 S
C422   O464    1.299   .     A
C422   C431    1.456   .     S
C423   H455    1.082   .     S
C423   C425    1.403   .     A
C423   C452    1.408   .     A
C424   H456    1.081   .     S
C424   C426    1.402   .     A
C424   C451    1.408   .     A
C425   O469    1.383   .     S
C425   C1205   1.413   1_554 S
C426   O471    1.383   .     S
C426   C1206   1.413   .     S
C427   C432    1.404   .     A
C427   O489    1.379   .     S
C428   C431    1.405   .     A
C428   O491    1.377   .     S
C428   C682    1.406   .     S
C429   C493    1.490   .     S
C429   C679    1.407   .     S
C429   C263    1.411   1_655 S
C430   C496    1.494   .     S
C432   C262    1.409   1_655 S
C433   C499    1.481   .     S
C433   N460    1.392   .     A
C433   C435    1.422   .     A
C434   N459    1.392   .     A
C434   C436    1.422   .     A
C434   C502    1.480   .     S
C435   H457    1.082   .     S
C435   N459    1.352   .     A
C436   N460    1.351   .     A
C436   H458    1.082   .     S
C437   O467    1.309   .     A
C437   C439    1.479   .     S
C437   O297    1.297   1_655 S
C438   O468    1.308   .     A
C438   C440    1.480   .     S
C439   C443    1.421   .     A
C439   C445    1.404   .     A
C440   C444    1.419   .     A
C440   C446    1.404   .     A
C441   C449    1.416   .     A
C441   O485    1.382   .     S
C441   C443    1.420   .     A
C442   C444    1.421   .     A
C442   C450    1.417   .     A
C442   O487    1.383   .     S
C443   C314    1.491   1_655 S
C445   C476    1.490   .     S
C445   C447    1.413   .     A
C446   C473    1.494   .     S
C446   C448    1.411   .     A
C447   C449    1.417   .     A
C447   C451    1.423   .     A
C448   C452    1.423   .     A
C448   C450    1.418   .     A
C449   C1181   1.413   .     S
C450   C1182   1.413   1_554 S
C451   C1208   1.412   .     S
C452   C1207   1.412   1_554 S
Cu453  O465    1.933   .     S
Cu453  N459    2.029   .     S
Cu453  O464    1.969   .     S
Cu453  O461    1.959   .     S
Cu453  O468    1.925   .     S
Cu454  O462    1.959   .     S
Cu454  N460    2.029   .     S
Cu454  O466    1.933   .     S
Cu454  O463    1.969   .     S
Cu454  O467    1.925   .     S
Cu454  Cu285   2.699   1_655 S
O462   C254    1.295   1_655 S
O466   C270    1.298   1_655 S
O469   H470    0.992   .     S
O471   H472    0.991   .     S
C473   H474    1.083   .     S
C473   O475    1.220   .     D
C476   H477    1.078   .     S
C476   O478    1.221   .     D
C479   H480    1.084   .     S
C479   O481    1.221   .     D
C479   C276    1.486   1_655 S
C482   O484    1.221   .     D
C482   H483    1.080   .     S
O485   H318    0.991   1_655 S
H488   O319    0.989   1_655 S
O489   H490    0.990   .     S
O491   H492    0.991   .     S
C493   H494    1.084   .     S
C493   O495    1.221   .     D
C496   H497    1.082   .     S
C496   O498    1.221   .     D
C499   O501    1.222   .     D
C499   H500    1.064   .     S
C502   H503    1.064   .     S
C502   O504    1.222   .     D
C505   O547    1.297   .     A
C505   C516    1.450   .     S
C505   O629    1.295   .     S
C506   O548    1.299   .     A
C506   C515    1.456   .     S
C506   O714    1.295   1_455 S
C507   H539    1.082   .     S
C507   C509    1.403   .     A
C507   C536    1.408   .     A
C508   H540    1.081   .     S
C508   C510    1.402   .     A
C508   C535    1.408   .     A
C509   O553    1.383   .     S
C509   C1289   1.413   1_554 S
C510   O555    1.383   .     S
C510   C1290   1.413   .     S
C511   C516    1.404   .     A
C511   O573    1.379   .     S
C512   C515    1.405   .     A
C512   O575    1.377   .     S
C512   C10     1.406   1_565 S
C513   C577    1.490   .     S
C513   C7      1.407   1_565 S
C513   C599    1.411   .     S
C514   C580    1.494   .     S
C514   C684    1.409   1_455 S
C515   C681    1.411   1_455 S
C516   C598    1.409   .     S
C517   C583    1.481   .     S
C517   N544    1.392   .     A
C517   C519    1.422   .     A
C518   N543    1.392   .     A
C518   C520    1.422   .     A
C518   C586    1.480   .     S
C519   H541    1.082   .     S
C519   N543    1.352   .     A
C520   N544    1.351   .     A
C520   H542    1.082   .     S
C521   O551    1.309   .     A
C521   C523    1.479   .     S
C521   O633    1.297   .     S
C522   O552    1.308   .     A
C522   C524    1.480   .     S
C522   O718    1.298   1_455 S
C523   C527    1.421   .     A
C523   C529    1.404   .     A
C524   C528    1.419   .     A
C524   C530    1.404   .     A
C525   C533    1.416   .     A
C525   O569    1.382   .     S
C525   C527    1.420   .     A
C526   C528    1.421   .     A
C526   C534    1.417   .     A
C526   O571    1.383   .     S
C527   C650    1.491   .     S
C528   C731    1.486   1_455 S
C529   C560    1.490   .     S
C529   C531    1.413   .     A
C530   C557    1.494   .     S
C530   C532    1.411   .     A
C531   C533    1.417   .     A
C531   C535    1.423   .     A
C532   C536    1.423   .     A
C532   C534    1.418   .     A
C533   C1265   1.413   .     S
C534   C1266   1.413   1_554 S
C535   C1292   1.412   .     S
C536   C1291   1.412   1_554 S
Cu537  O549    1.933   .     S
Cu537  N543    2.029   .     S
Cu537  O548    1.969   .     S
Cu537  O545    1.959   .     S
Cu537  O552    1.925   .     S
Cu537  Cu706   2.699   1_455 S
Cu538  O546    1.959   .     S
Cu538  N544    2.029   .     S
Cu538  O550    1.933   .     S
Cu538  O547    1.969   .     S
Cu538  O551    1.925   .     S
Cu538  Cu621   2.699   .     S
O545   C673    1.295   1_455 S
O546   C590    1.295   .     S
O549   C689    1.297   1_455 S
O550   C606    1.298   .     S
O553   H554    0.992   .     S
O555   H556    0.991   .     S
C557   H558    1.083   .     S
C557   O559    1.220   .     D
C560   H561    1.078   .     S
C560   O562    1.221   .     D
C563   H564    1.084   .     S
C563   O565    1.221   .     D
C563   C612    1.486   .     S
C566   O568    1.221   .     D
C566   H567    1.080   .     S
C566   C695    1.491   1_455 S
O569   H654    0.991   .     S
H570   O737    0.991   1_455 S
O571   H740    0.989   1_455 S
H572   O655    0.989   .     S
O573   H574    0.990   .     S
O575   H576    0.991   .     S
C577   H578    1.084   .     S
C577   O579    1.221   .     D
C580   H581    1.082   .     S
C580   O582    1.221   .     D
C583   O585    1.222   .     D
C583   H584    1.064   .     S
C586   H587    1.064   .     S
C586   O588    1.222   .     D
C589   O631    1.297   .     A
C589   C600    1.450   .     S
C589   O713    1.295   .     S
C590   O632    1.299   .     A
C590   C599    1.456   .     S
C591   H623    1.082   .     S
C591   C593    1.403   .     A
C591   C620    1.408   .     A
C592   H624    1.081   .     S
C592   C594    1.402   .     A
C592   C619    1.408   .     A
C593   O637    1.383   .     S
C593   C1373   1.413   1_554 S
C594   O639    1.383   .     S
C594   C1374   1.413   .     S
C595   C600    1.404   .     A
C595   O657    1.379   .     S
C596   C599    1.405   .     A
C596   O659    1.377   .     S
C596   C94     1.406   1_565 S
C597   C661    1.490   .     S
C597   C91     1.407   1_565 S
C597   C683    1.411   .     S
C598   C664    1.494   .     S
C600   C682    1.409   .     S
C601   C667    1.481   .     S
C601   N628    1.392   .     A
C601   C603    1.422   .     A
C602   N627    1.392   .     A
C602   C604    1.422   .     A
C602   C670    1.480   .     S
C603   H625    1.082   .     S
C603   N627    1.352   .     A
C604   N628    1.351   .     A
C604   H626    1.082   .     S
C605   O635    1.309   .     A
C605   C607    1.479   .     S
C605   O717    1.297   .     S
C606   O636    1.308   .     A
C606   C608    1.480   .     S
C607   C611    1.421   .     A
C607   C613    1.404   .     A
C608   C612    1.419   .     A
C608   C614    1.404   .     A
C609   C617    1.416   .     A
C609   O653    1.382   .     S
C609   C611    1.420   .     A
C610   C612    1.421   .     A
C610   C618    1.417   .     A
C610   O655    1.383   .     S
C611   C734    1.491   .     S
C613   C644    1.490   .     S
C613   C615    1.413   .     A
C614   C641    1.494   .     S
C614   C616    1.411   .     A
C615   C617    1.417   .     A
C615   C619    1.423   .     A
C616   C620    1.423   .     A
C616   C618    1.418   .     A
C617   C1349   1.413   .     S
C618   C1350   1.413   1_554 S
C619   C1376   1.412   .     S
C620   C1375   1.412   1_554 S
Cu621  O633    1.933   .     S
Cu621  N627    2.029   .     S
Cu621  O632    1.969   .     S
Cu621  O629    1.959   .     S
Cu621  O636    1.925   .     S
Cu622  O630    1.959   .     S
Cu622  N628    2.029   .     S
Cu622  O634    1.933   .     S
Cu622  O631    1.969   .     S
Cu622  O635    1.925   .     S
Cu622  Cu705   2.699   .     S
O630   C674    1.295   .     S
O634   C690    1.298   .     S
O637   H638    0.992   .     S
O639   H640    0.991   .     S
C641   H642    1.083   .     S
C641   O643    1.220   .     D
C644   H645    1.078   .     S
C644   O646    1.221   .     D
C647   H648    1.084   .     S
C647   O649    1.221   .     D
C647   C696    1.486   .     S
C650   O652    1.221   .     D
C650   H651    1.080   .     S
O653   H738    0.991   .     S
H656   O739    0.989   .     S
O657   H658    0.990   .     S
O659   H660    0.991   .     S
C661   H662    1.084   .     S
C661   O663    1.221   .     D
C664   H665    1.082   .     S
C664   O666    1.221   .     D
C667   O669    1.222   .     D
C667   H668    1.064   .     S
C670   H671    1.064   .     S
C670   O672    1.222   .     D
C673   O715    1.297   .     A
C673   C684    1.450   .     S
C673   O545    1.295   1_655 S
C674   O716    1.299   .     A
C674   C683    1.456   .     S
C675   H707    1.082   .     S
C675   C677    1.403   .     A
C675   C704    1.408   .     A
C676   H708    1.081   .     S
C676   C678    1.402   .     A
C676   C703    1.408   .     A
C677   O721    1.383   .     S
C677   C1457   1.413   1_554 S
C678   O723    1.383   .     S
C678   C1458   1.413   .     S
C679   C684    1.404   .     A
C679   O741    1.379   .     S
C680   C683    1.405   .     A
C680   O743    1.377   .     S
C680   C178    1.406   1_565 S
C681   C745    1.490   .     S
C681   C175    1.407   1_565 S
C681   C515    1.411   1_655 S
C682   C748    1.494   .     S
C684   C514    1.409   1_655 S
C685   C751    1.481   .     S
C685   N712    1.392   .     A
C685   C687    1.422   .     A
C686   N711    1.392   .     A
C686   C688    1.422   .     A
C686   C754    1.480   .     S
C687   H709    1.082   .     S
C687   N711    1.352   .     A
C688   N712    1.351   .     A
C688   H710    1.082   .     S
C689   O719    1.309   .     A
C689   C691    1.479   .     S
C689   O549    1.297   1_655 S
C690   O720    1.308   .     A
C690   C692    1.480   .     S
C691   C695    1.421   .     A
C691   C697    1.404   .     A
C692   C696    1.419   .     A
C692   C698    1.404   .     A
C693   C701    1.416   .     A
C693   O737    1.382   .     S
C693   C695    1.420   .     A
C694   C696    1.421   .     A
C694   C702    1.417   .     A
C694   O739    1.383   .     S
C695   C566    1.491   1_655 S
C697   C728    1.490   .     S
C697   C699    1.413   .     A
C698   C725    1.494   .     S
C698   C700    1.411   .     A
C699   C701    1.417   .     A
C699   C703    1.423   .     A
C700   C704    1.423   .     A
C700   C702    1.418   .     A
C701   C1433   1.413   .     S
C702   C1434   1.413   1_554 S
C703   C1460   1.412   .     S
C704   C1459   1.412   1_554 S
Cu705  O717    1.933   .     S
Cu705  N711    2.029   .     S
Cu705  O716    1.969   .     S
Cu705  O713    1.959   .     S
Cu705  O720    1.925   .     S
Cu706  O714    1.959   .     S
Cu706  N712    2.029   .     S
Cu706  O718    1.933   .     S
Cu706  O715    1.969   .     S
Cu706  O719    1.925   .     S
Cu706  Cu537   2.699   1_655 S
O714   C506    1.295   1_655 S
O718   C522    1.298   1_655 S
O721   H722    0.992   .     S
O723   H724    0.991   .     S
C725   H726    1.083   .     S
C725   O727    1.220   .     D
C728   H729    1.078   .     S
C728   O730    1.221   .     D
C731   H732    1.084   .     S
C731   O733    1.221   .     D
C731   C528    1.486   1_655 S
C734   O736    1.221   .     D
C734   H735    1.080   .     S
O737   H570    0.991   1_655 S
H740   O571    0.989   1_655 S
O741   H742    0.990   .     S
O743   H744    0.991   .     S
C745   H746    1.084   .     S
C745   O747    1.221   .     D
C748   H749    1.082   .     S
C748   O750    1.221   .     D
C751   O753    1.222   .     D
C751   H752    1.064   .     S
C754   H755    1.064   .     S
C754   O756    1.222   .     D
C757   O799    1.297   .     A
C757   C768    1.450   .     S
C757   O881    1.295   .     S
C758   O800    1.299   .     A
C758   C767    1.456   .     S
C758   O966    1.295   1_455 S
C759   H791    1.082   .     S
C759   C761    1.403   .     A
C759   C788    1.408   .     A
C760   H792    1.081   .     S
C760   C762    1.402   .     A
C760   C787    1.408   .     A
C761   O805    1.383   .     S
C762   O807    1.383   .     S
C762   C30     1.413   1_556 S
C763   C768    1.404   .     A
C763   O825    1.379   .     S
C763   C1269   1.407   1_545 S
C764   C767    1.405   .     A
C764   O827    1.377   .     S
C764   C1018   1.406   .     S
C765   C829    1.490   .     S
C765   C1015   1.407   .     S
C765   C851    1.411   .     S
C766   C832    1.494   .     S
C766   C1268   1.406   1_545 S
C766   C936    1.409   1_455 S
C767   C933    1.411   1_455 S
C768   C850    1.409   .     S
C769   C835    1.481   .     S
C769   N796    1.392   .     A
C769   C771    1.422   .     A
C770   N795    1.392   .     A
C770   C772    1.422   .     A
C770   C838    1.480   .     S
C771   H793    1.082   .     S
C771   N795    1.352   .     A
C772   N796    1.351   .     A
C772   H794    1.082   .     S
C773   O803    1.309   .     A
C773   C775    1.479   .     S
C773   O885    1.297   .     S
C774   O804    1.308   .     A
C774   C776    1.480   .     S
C774   O970    1.298   1_455 S
C775   C779    1.421   .     A
C775   C781    1.404   .     A
C776   C780    1.419   .     A
C776   C782    1.404   .     A
C777   C785    1.416   .     A
C777   O821    1.382   .     S
C777   C779    1.420   .     A
C778   C780    1.421   .     A
C778   C786    1.417   .     A
C778   O823    1.383   .     S
C779   C902    1.491   .     S
C780   C983    1.486   1_455 S
C781   C812    1.490   .     S
C781   C783    1.413   .     A
C782   C809    1.494   .     S
C782   C784    1.411   .     A
C783   C785    1.417   .     A
C783   C787    1.423   .     A
C784   C788    1.423   .     A
C784   C786    1.418   .     A
C785   C5      1.413   1_556 S
C787   C32     1.412   1_556 S
Cu789  O801    1.933   .     S
Cu789  N795    2.029   .     S
Cu789  O800    1.969   .     S
Cu789  O797    1.959   .     S
Cu789  O804    1.925   .     S
Cu789  Cu958   2.699   1_455 S
Cu790  O798    1.959   .     S
Cu790  N796    2.029   .     S
Cu790  O802    1.933   .     S
Cu790  O799    1.969   .     S
Cu790  O803    1.925   .     S
Cu790  Cu873   2.699   .     S
O797   C925    1.295   1_455 S
O798   C842    1.295   .     S
O801   C941    1.297   1_455 S
O802   C858    1.298   .     S
O805   H806    0.992   .     S
O807   H808    0.991   .     S
C809   H810    1.083   .     S
C809   O811    1.220   .     D
C812   H813    1.078   .     S
C812   O814    1.221   .     D
C815   H816    1.084   .     S
C815   O817    1.221   .     D
C815   C864    1.486   .     S
C818   O820    1.221   .     D
C818   H819    1.080   .     S
C818   C947    1.491   1_455 S
O821   H906    0.991   .     S
H822   O989    0.991   1_455 S
O823   H992    0.989   1_455 S
H824   O907    0.989   .     S
O825   H826    0.990   .     S
O827   H828    0.991   .     S
C829   H830    1.084   .     S
C829   O831    1.221   .     D
C832   H833    1.082   .     S
C832   O834    1.221   .     D
C835   O837    1.222   .     D
C835   H836    1.064   .     S
C838   H839    1.064   .     S
C838   O840    1.222   .     D
C841   O883    1.297   .     A
C841   C852    1.450   .     S
C841   O965    1.295   .     S
C842   O884    1.299   .     A
C842   C851    1.456   .     S
C843   H875    1.082   .     S
C843   C845    1.403   .     A
C843   C872    1.408   .     A
C844   H876    1.081   .     S
C844   C846    1.402   .     A
C844   C871    1.408   .     A
C845   O889    1.383   .     S
C846   O891    1.383   .     S
C846   C114    1.413   1_556 S
C847   C852    1.404   .     A
C847   O909    1.379   .     S
C847   C1353   1.407   1_545 S
C848   C851    1.405   .     A
C848   O911    1.377   .     S
C848   C1102   1.406   .     S
C849   C913    1.490   .     S
C849   C1099   1.407   .     S
C849   C935    1.411   .     S
C850   C916    1.494   .     S
C850   C1352   1.406   1_545 S
C852   C934    1.409   .     S
C853   C919    1.481   .     S
C853   N880    1.392   .     A
C853   C855    1.422   .     A
C854   N879    1.392   .     A
C854   C856    1.422   .     A
C854   C922    1.480   .     S
C855   H877    1.082   .     S
C855   N879    1.352   .     A
C856   N880    1.351   .     A
C856   H878    1.082   .     S
C857   O887    1.309   .     A
C857   C859    1.479   .     S
C857   O969    1.297   .     S
C858   O888    1.308   .     A
C858   C860    1.480   .     S
C859   C863    1.421   .     A
C859   C865    1.404   .     A
C860   C864    1.419   .     A
C860   C866    1.404   .     A
C861   C869    1.416   .     A
C861   O905    1.382   .     S
C861   C863    1.420   .     A
C862   C864    1.421   .     A
C862   C870    1.417   .     A
C862   O907    1.383   .     S
C863   C986    1.491   .     S
C865   C896    1.490   .     S
C865   C867    1.413   .     A
C866   C893    1.494   .     S
C866   C868    1.411   .     A
C867   C869    1.417   .     A
C867   C871    1.423   .     A
C868   C872    1.423   .     A
C868   C870    1.418   .     A
C869   C89     1.413   1_556 S
C871   C116    1.412   1_556 S
Cu873  O885    1.933   .     S
Cu873  N879    2.029   .     S
Cu873  O884    1.969   .     S
Cu873  O881    1.959   .     S
Cu873  O888    1.925   .     S
Cu874  O882    1.959   .     S
Cu874  N880    2.029   .     S
Cu874  O886    1.933   .     S
Cu874  O883    1.969   .     S
Cu874  O887    1.925   .     S
Cu874  Cu957   2.699   .     S
O882   C926    1.295   .     S
O886   C942    1.298   .     S
O889   H890    0.992   .     S
O891   H892    0.991   .     S
C893   H894    1.083   .     S
C893   O895    1.220   .     D
C896   H897    1.078   .     S
C896   O898    1.221   .     D
C899   H900    1.084   .     S
C899   O901    1.221   .     D
C899   C948    1.486   .     S
C902   O904    1.221   .     D
C902   H903    1.080   .     S
O905   H990    0.991   .     S
H908   O991    0.989   .     S
O909   H910    0.990   .     S
O911   H912    0.991   .     S
C913   H914    1.084   .     S
C913   O915    1.221   .     D
C916   H917    1.082   .     S
C916   O918    1.221   .     D
C919   O921    1.222   .     D
C919   H920    1.064   .     S
C922   H923    1.064   .     S
C922   O924    1.222   .     D
C925   O967    1.297   .     A
C925   C936    1.450   .     S
C925   O797    1.295   1_655 S
C926   O968    1.299   .     A
C926   C935    1.456   .     S
C927   H959    1.082   .     S
C927   C929    1.403   .     A
C927   C956    1.408   .     A
C928   H960    1.081   .     S
C928   C930    1.402   .     A
C928   C955    1.408   .     A
C929   O973    1.383   .     S
C930   O975    1.383   .     S
C930   C198    1.413   1_556 S
C931   C936    1.404   .     A
C931   O993    1.379   .     S
C931   C1437   1.407   1_545 S
C932   C935    1.405   .     A
C932   O995    1.377   .     S
C932   C1186   1.406   .     S
C933   C997    1.490   .     S
C933   C1183   1.407   .     S
C933   C767    1.411   1_655 S
C934   C1000   1.494   .     S
C934   C1436   1.406   1_545 S
C936   C766    1.409   1_655 S
C937   C1003   1.481   .     S
C937   N964    1.392   .     A
C937   C939    1.422   .     A
C938   N963    1.392   .     A
C938   C940    1.422   .     A
C938   C1006   1.480   .     S
C939   H961    1.082   .     S
C939   N963    1.352   .     A
C940   N964    1.351   .     A
C940   H962    1.082   .     S
C941   O971    1.309   .     A
C941   C943    1.479   .     S
C941   O801    1.297   1_655 S
C942   O972    1.308   .     A
C942   C944    1.480   .     S
C943   C947    1.421   .     A
C943   C949    1.404   .     A
C944   C948    1.419   .     A
C944   C950    1.404   .     A
C945   C953    1.416   .     A
C945   O989    1.382   .     S
C945   C947    1.420   .     A
C946   C948    1.421   .     A
C946   C954    1.417   .     A
C946   O991    1.383   .     S
C947   C818    1.491   1_655 S
C949   C980    1.490   .     S
C949   C951    1.413   .     A
C950   C977    1.494   .     S
C950   C952    1.411   .     A
C951   C953    1.417   .     A
C951   C955    1.423   .     A
C952   C956    1.423   .     A
C952   C954    1.418   .     A
C953   C173    1.413   1_556 S
C955   C200    1.412   1_556 S
Cu957  O969    1.933   .     S
Cu957  N963    2.029   .     S
Cu957  O968    1.969   .     S
Cu957  O965    1.959   .     S
Cu957  O972    1.925   .     S
Cu958  O966    1.959   .     S
Cu958  N964    2.029   .     S
Cu958  O970    1.933   .     S
Cu958  O967    1.969   .     S
Cu958  O971    1.925   .     S
Cu958  Cu789   2.699   1_655 S
O966   C758    1.295   1_655 S
O970   C774    1.298   1_655 S
O973   H974    0.992   .     S
O975   H976    0.991   .     S
C977   H978    1.083   .     S
C977   O979    1.220   .     D
C980   H981    1.078   .     S
C980   O982    1.221   .     D
C983   H984    1.084   .     S
C983   O985    1.221   .     D
C983   C780    1.486   1_655 S
C986   O988    1.221   .     D
C986   H987    1.080   .     S
O989   H822    0.991   1_655 S
H992   O823    0.989   1_655 S
O993   H994    0.990   .     S
O995   H996    0.991   .     S
C997   H998    1.084   .     S
C997   O999    1.221   .     D
C1000  H1001   1.082   .     S
C1000  O1002   1.221   .     D
C1003  O1005   1.222   .     D
C1003  H1004   1.064   .     S
C1006  H1007   1.064   .     S
C1006  O1008   1.222   .     D
C1009  O1051   1.297   .     A
C1009  C1020   1.450   .     S
C1009  O1133   1.295   .     S
C1010  O1052   1.299   .     A
C1010  C1019   1.456   .     S
C1010  O1218   1.295   1_455 S
C1011  H1043   1.082   .     S
C1011  C1013   1.403   .     A
C1011  C1040   1.408   .     A
C1012  H1044   1.081   .     S
C1012  C1014   1.402   .     A
C1012  C1039   1.408   .     A
C1013  O1057   1.383   .     S
C1014  O1059   1.383   .     S
C1014  C282    1.413   1_556 S
C1015  C1020   1.404   .     A
C1015  O1077   1.379   .     S
C1016  C1019   1.405   .     A
C1016  O1079   1.377   .     S
C1016  C1270   1.406   .     S
C1017  C1081   1.490   .     S
C1017  C1267   1.407   .     S
C1017  C1103   1.411   .     S
C1018  C1084   1.494   .     S
C1018  C1188   1.409   1_455 S
C1019  C1185   1.411   1_455 S
C1020  C1102   1.409   .     S
C1021  C1087   1.481   .     S
C1021  N1048   1.392   .     A
C1021  C1023   1.422   .     A
C1022  N1047   1.392   .     A
C1022  C1024   1.422   .     A
C1022  C1090   1.480   .     S
C1023  H1045   1.082   .     S
C1023  N1047   1.352   .     A
C1024  N1048   1.351   .     A
C1024  H1046   1.082   .     S
C1025  O1055   1.309   .     A
C1025  C1027   1.479   .     S
C1025  O1137   1.297   .     S
C1026  O1056   1.308   .     A
C1026  C1028   1.480   .     S
C1026  O1222   1.298   1_455 S
C1027  C1031   1.421   .     A
C1027  C1033   1.404   .     A
C1028  C1032   1.419   .     A
C1028  C1034   1.404   .     A
C1029  C1037   1.416   .     A
C1029  O1073   1.382   .     S
C1029  C1031   1.420   .     A
C1030  C1032   1.421   .     A
C1030  C1038   1.417   .     A
C1030  O1075   1.383   .     S
C1031  C1154   1.491   .     S
C1032  C1235   1.486   1_455 S
C1033  C1064   1.490   .     S
C1033  C1035   1.413   .     A
C1034  C1061   1.494   .     S
C1034  C1036   1.411   .     A
C1035  C1037   1.417   .     A
C1035  C1039   1.423   .     A
C1036  C1040   1.423   .     A
C1036  C1038   1.418   .     A
C1037  C257    1.413   1_556 S
C1039  C284    1.412   1_556 S
Cu1041 O1053   1.933   .     S
Cu1041 N1047   2.029   .     S
Cu1041 O1052   1.969   .     S
Cu1041 O1049   1.959   .     S
Cu1041 O1056   1.925   .     S
Cu1041 Cu1210  2.699   1_455 S
Cu1042 O1050   1.959   .     S
Cu1042 N1048   2.029   .     S
Cu1042 O1054   1.933   .     S
Cu1042 O1051   1.969   .     S
Cu1042 O1055   1.925   .     S
Cu1042 Cu1125  2.699   .     S
O1049  C1177   1.295   1_455 S
O1050  C1094   1.295   .     S
O1053  C1193   1.297   1_455 S
O1054  C1110   1.298   .     S
O1057  H1058   0.992   .     S
O1059  H1060   0.991   .     S
C1061  H1062   1.083   .     S
C1061  O1063   1.220   .     D
C1064  H1065   1.078   .     S
C1064  O1066   1.221   .     D
C1067  H1068   1.084   .     S
C1067  O1069   1.221   .     D
C1067  C1116   1.486   .     S
C1070  O1072   1.221   .     D
C1070  H1071   1.080   .     S
C1070  C1199   1.491   1_455 S
O1073  H1158   0.991   .     S
H1074  O1241   0.991   1_455 S
O1075  H1244   0.989   1_455 S
H1076  O1159   0.989   .     S
O1077  H1078   0.990   .     S
O1079  H1080   0.991   .     S
C1081  H1082   1.084   .     S
C1081  O1083   1.221   .     D
C1084  H1085   1.082   .     S
C1084  O1086   1.221   .     D
C1087  O1089   1.222   .     D
C1087  H1088   1.064   .     S
C1090  H1091   1.064   .     S
C1090  O1092   1.222   .     D
C1093  O1135   1.297   .     A
C1093  C1104   1.450   .     S
C1093  O1217   1.295   .     S
C1094  O1136   1.299   .     A
C1094  C1103   1.456   .     S
C1095  H1127   1.082   .     S
C1095  C1097   1.403   .     A
C1095  C1124   1.408   .     A
C1096  H1128   1.081   .     S
C1096  C1098   1.402   .     A
C1096  C1123   1.408   .     A
C1097  O1141   1.383   .     S
C1098  O1143   1.383   .     S
C1098  C366    1.413   1_556 S
C1099  C1104   1.404   .     A
C1099  O1161   1.379   .     S
C1100  C1103   1.405   .     A
C1100  O1163   1.377   .     S
C1100  C1354   1.406   .     S
C1101  C1165   1.490   .     S
C1101  C1351   1.407   .     S
C1101  C1187   1.411   .     S
C1102  C1168   1.494   .     S
C1104  C1186   1.409   .     S
C1105  C1171   1.481   .     S
C1105  N1132   1.392   .     A
C1105  C1107   1.422   .     A
C1106  N1131   1.392   .     A
C1106  C1108   1.422   .     A
C1106  C1174   1.480   .     S
C1107  H1129   1.082   .     S
C1107  N1131   1.352   .     A
C1108  N1132   1.351   .     A
C1108  H1130   1.082   .     S
C1109  O1139   1.309   .     A
C1109  C1111   1.479   .     S
C1109  O1221   1.297   .     S
C1110  O1140   1.308   .     A
C1110  C1112   1.480   .     S
C1111  C1115   1.421   .     A
C1111  C1117   1.404   .     A
C1112  C1116   1.419   .     A
C1112  C1118   1.404   .     A
C1113  C1121   1.416   .     A
C1113  O1157   1.382   .     S
C1113  C1115   1.420   .     A
C1114  C1116   1.421   .     A
C1114  C1122   1.417   .     A
C1114  O1159   1.383   .     S
C1115  C1238   1.491   .     S
C1117  C1148   1.490   .     S
C1117  C1119   1.413   .     A
C1118  C1145   1.494   .     S
C1118  C1120   1.411   .     A
C1119  C1121   1.417   .     A
C1119  C1123   1.423   .     A
C1120  C1124   1.423   .     A
C1120  C1122   1.418   .     A
C1121  C341    1.413   1_556 S
C1123  C368    1.412   1_556 S
Cu1125 O1137   1.933   .     S
Cu1125 N1131   2.029   .     S
Cu1125 O1136   1.969   .     S
Cu1125 O1133   1.959   .     S
Cu1125 O1140   1.925   .     S
Cu1126 O1134   1.959   .     S
Cu1126 N1132   2.029   .     S
Cu1126 O1138   1.933   .     S
Cu1126 O1135   1.969   .     S
Cu1126 O1139   1.925   .     S
Cu1126 Cu1209  2.699   .     S
O1134  C1178   1.295   .     S
O1138  C1194   1.298   .     S
O1141  H1142   0.992   .     S
O1143  H1144   0.991   .     S
C1145  H1146   1.083   .     S
C1145  O1147   1.220   .     D
C1148  H1149   1.078   .     S
C1148  O1150   1.221   .     D
C1151  H1152   1.084   .     S
C1151  O1153   1.221   .     D
C1151  C1200   1.486   .     S
C1154  O1156   1.221   .     D
C1154  H1155   1.080   .     S
O1157  H1242   0.991   .     S
H1160  O1243   0.989   .     S
O1161  H1162   0.990   .     S
O1163  H1164   0.991   .     S
C1165  H1166   1.084   .     S
C1165  O1167   1.221   .     D
C1168  H1169   1.082   .     S
C1168  O1170   1.221   .     D
C1171  O1173   1.222   .     D
C1171  H1172   1.064   .     S
C1174  H1175   1.064   .     S
C1174  O1176   1.222   .     D
C1177  O1219   1.297   .     A
C1177  C1188   1.450   .     S
C1177  O1049   1.295   1_655 S
C1178  O1220   1.299   .     A
C1178  C1187   1.456   .     S
C1179  H1211   1.082   .     S
C1179  C1181   1.403   .     A
C1179  C1208   1.408   .     A
C1180  H1212   1.081   .     S
C1180  C1182   1.402   .     A
C1180  C1207   1.408   .     A
C1181  O1225   1.383   .     S
C1182  O1227   1.383   .     S
C1182  C450    1.413   1_556 S
C1183  C1188   1.404   .     A
C1183  O1245   1.379   .     S
C1184  C1187   1.405   .     A
C1184  O1247   1.377   .     S
C1184  C1438   1.406   .     S
C1185  C1249   1.490   .     S
C1185  C1435   1.407   .     S
C1185  C1019   1.411   1_655 S
C1186  C1252   1.494   .     S
C1188  C1018   1.409   1_655 S
C1189  C1255   1.481   .     S
C1189  N1216   1.392   .     A
C1189  C1191   1.422   .     A
C1190  N1215   1.392   .     A
C1190  C1192   1.422   .     A
C1190  C1258   1.480   .     S
C1191  H1213   1.082   .     S
C1191  N1215   1.352   .     A
C1192  N1216   1.351   .     A
C1192  H1214   1.082   .     S
C1193  O1223   1.309   .     A
C1193  C1195   1.479   .     S
C1193  O1053   1.297   1_655 S
C1194  O1224   1.308   .     A
C1194  C1196   1.480   .     S
C1195  C1199   1.421   .     A
C1195  C1201   1.404   .     A
C1196  C1200   1.419   .     A
C1196  C1202   1.404   .     A
C1197  C1205   1.416   .     A
C1197  O1241   1.382   .     S
C1197  C1199   1.420   .     A
C1198  C1200   1.421   .     A
C1198  C1206   1.417   .     A
C1198  O1243   1.383   .     S
C1199  C1070   1.491   1_655 S
C1201  C1232   1.490   .     S
C1201  C1203   1.413   .     A
C1202  C1229   1.494   .     S
C1202  C1204   1.411   .     A
C1203  C1205   1.417   .     A
C1203  C1207   1.423   .     A
C1204  C1208   1.423   .     A
C1204  C1206   1.418   .     A
C1205  C425    1.413   1_556 S
C1207  C452    1.412   1_556 S
Cu1209 O1221   1.933   .     S
Cu1209 N1215   2.029   .     S
Cu1209 O1220   1.969   .     S
Cu1209 O1217   1.959   .     S
Cu1209 O1224   1.925   .     S
Cu1210 O1218   1.959   .     S
Cu1210 N1216   2.029   .     S
Cu1210 O1222   1.933   .     S
Cu1210 O1219   1.969   .     S
Cu1210 O1223   1.925   .     S
Cu1210 Cu1041  2.699   1_655 S
O1218  C1010   1.295   1_655 S
O1222  C1026   1.298   1_655 S
O1225  H1226   0.992   .     S
O1227  H1228   0.991   .     S
C1229  H1230   1.083   .     S
C1229  O1231   1.220   .     D
C1232  H1233   1.078   .     S
C1232  O1234   1.221   .     D
C1235  H1236   1.084   .     S
C1235  O1237   1.221   .     D
C1235  C1032   1.486   1_655 S
C1238  O1240   1.221   .     D
C1238  H1239   1.080   .     S
O1241  H1074   0.991   1_655 S
H1244  O1075   0.989   1_655 S
O1245  H1246   0.990   .     S
O1247  H1248   0.991   .     S
C1249  H1250   1.084   .     S
C1249  O1251   1.221   .     D
C1252  H1253   1.082   .     S
C1252  O1254   1.221   .     D
C1255  O1257   1.222   .     D
C1255  H1256   1.064   .     S
C1258  H1259   1.064   .     S
C1258  O1260   1.222   .     D
C1261  O1303   1.297   .     A
C1261  C1272   1.450   .     S
C1261  O1385   1.295   .     S
C1262  O1304   1.299   .     A
C1262  C1271   1.456   .     S
C1262  O1470   1.295   1_455 S
C1263  H1295   1.082   .     S
C1263  C1265   1.403   .     A
C1263  C1292   1.408   .     A
C1264  H1296   1.081   .     S
C1264  C1266   1.402   .     A
C1264  C1291   1.408   .     A
C1265  O1309   1.383   .     S
C1266  O1311   1.383   .     S
C1266  C534    1.413   1_556 S
C1267  C1272   1.404   .     A
C1267  O1329   1.379   .     S
C1268  C1271   1.405   .     A
C1268  O1331   1.377   .     S
C1268  C766    1.406   1_565 S
C1269  C1333   1.490   .     S
C1269  C763    1.407   1_565 S
C1269  C1355   1.411   .     S
C1270  C1336   1.494   .     S
C1270  C1440   1.409   1_455 S
C1271  C1437   1.411   1_455 S
C1272  C1354   1.409   .     S
C1273  C1339   1.481   .     S
C1273  N1300   1.392   .     A
C1273  C1275   1.422   .     A
C1274  N1299   1.392   .     A
C1274  C1276   1.422   .     A
C1274  C1342   1.480   .     S
C1275  H1297   1.082   .     S
C1275  N1299   1.352   .     A
C1276  N1300   1.351   .     A
C1276  H1298   1.082   .     S
C1277  O1307   1.309   .     A
C1277  C1279   1.479   .     S
C1277  O1389   1.297   .     S
C1278  O1308   1.308   .     A
C1278  C1280   1.480   .     S
C1278  O1474   1.298   1_455 S
C1279  C1283   1.421   .     A
C1279  C1285   1.404   .     A
C1280  C1284   1.419   .     A
C1280  C1286   1.404   .     A
C1281  C1289   1.416   .     A
C1281  O1325   1.382   .     S
C1281  C1283   1.420   .     A
C1282  C1284   1.421   .     A
C1282  C1290   1.417   .     A
C1282  O1327   1.383   .     S
C1283  C1406   1.491   .     S
C1284  C1487   1.486   1_455 S
C1285  C1316   1.490   .     S
C1285  C1287   1.413   .     A
C1286  C1313   1.494   .     S
C1286  C1288   1.411   .     A
C1287  C1289   1.417   .     A
C1287  C1291   1.423   .     A
C1288  C1292   1.423   .     A
C1288  C1290   1.418   .     A
C1289  C509    1.413   1_556 S
C1291  C536    1.412   1_556 S
Cu1293 O1305   1.933   .     S
Cu1293 N1299   2.029   .     S
Cu1293 O1304   1.969   .     S
Cu1293 O1301   1.959   .     S
Cu1293 O1308   1.925   .     S
Cu1293 Cu1462  2.699   1_455 S
Cu1294 O1302   1.959   .     S
Cu1294 N1300   2.029   .     S
Cu1294 O1306   1.933   .     S
Cu1294 O1303   1.969   .     S
Cu1294 O1307   1.925   .     S
Cu1294 Cu1377  2.699   .     S
O1301  C1429   1.295   1_455 S
O1302  C1346   1.295   .     S
O1305  C1445   1.297   1_455 S
O1306  C1362   1.298   .     S
O1309  H1310   0.992   .     S
O1311  H1312   0.991   .     S
C1313  H1314   1.083   .     S
C1313  O1315   1.220   .     D
C1316  H1317   1.078   .     S
C1316  O1318   1.221   .     D
C1319  H1320   1.084   .     S
C1319  O1321   1.221   .     D
C1319  C1368   1.486   .     S
C1322  O1324   1.221   .     D
C1322  H1323   1.080   .     S
C1322  C1451   1.491   1_455 S
O1325  H1410   0.991   .     S
H1326  O1493   0.991   1_455 S
O1327  H1496   0.989   1_455 S
H1328  O1411   0.989   .     S
O1329  H1330   0.990   .     S
O1331  H1332   0.991   .     S
C1333  H1334   1.084   .     S
C1333  O1335   1.221   .     D
C1336  H1337   1.082   .     S
C1336  O1338   1.221   .     D
C1339  O1341   1.222   .     D
C1339  H1340   1.064   .     S
C1342  H1343   1.064   .     S
C1342  O1344   1.222   .     D
C1345  O1387   1.297   .     A
C1345  C1356   1.450   .     S
C1345  O1469   1.295   .     S
C1346  O1388   1.299   .     A
C1346  C1355   1.456   .     S
C1347  H1379   1.082   .     S
C1347  C1349   1.403   .     A
C1347  C1376   1.408   .     A
C1348  H1380   1.081   .     S
C1348  C1350   1.402   .     A
C1348  C1375   1.408   .     A
C1349  O1393   1.383   .     S
C1350  O1395   1.383   .     S
C1350  C618    1.413   1_556 S
C1351  C1356   1.404   .     A
C1351  O1413   1.379   .     S
C1352  C1355   1.405   .     A
C1352  O1415   1.377   .     S
C1352  C850    1.406   1_565 S
C1353  C1417   1.490   .     S
C1353  C847    1.407   1_565 S
C1353  C1439   1.411   .     S
C1354  C1420   1.494   .     S
C1356  C1438   1.409   .     S
C1357  C1423   1.481   .     S
C1357  N1384   1.392   .     A
C1357  C1359   1.422   .     A
C1358  N1383   1.392   .     A
C1358  C1360   1.422   .     A
C1358  C1426   1.480   .     S
C1359  H1381   1.082   .     S
C1359  N1383   1.352   .     A
C1360  N1384   1.351   .     A
C1360  H1382   1.082   .     S
C1361  O1391   1.309   .     A
C1361  C1363   1.479   .     S
C1361  O1473   1.297   .     S
C1362  O1392   1.308   .     A
C1362  C1364   1.480   .     S
C1363  C1367   1.421   .     A
C1363  C1369   1.404   .     A
C1364  C1368   1.419   .     A
C1364  C1370   1.404   .     A
C1365  C1373   1.416   .     A
C1365  O1409   1.382   .     S
C1365  C1367   1.420   .     A
C1366  C1368   1.421   .     A
C1366  C1374   1.417   .     A
C1366  O1411   1.383   .     S
C1367  C1490   1.491   .     S
C1369  C1400   1.490   .     S
C1369  C1371   1.413   .     A
C1370  C1397   1.494   .     S
C1370  C1372   1.411   .     A
C1371  C1373   1.417   .     A
C1371  C1375   1.423   .     A
C1372  C1376   1.423   .     A
C1372  C1374   1.418   .     A
C1373  C593    1.413   1_556 S
C1375  C620    1.412   1_556 S
Cu1377 O1389   1.933   .     S
Cu1377 N1383   2.029   .     S
Cu1377 O1388   1.969   .     S
Cu1377 O1385   1.959   .     S
Cu1377 O1392   1.925   .     S
Cu1378 O1386   1.959   .     S
Cu1378 N1384   2.029   .     S
Cu1378 O1390   1.933   .     S
Cu1378 O1387   1.969   .     S
Cu1378 O1391   1.925   .     S
Cu1378 Cu1461  2.699   .     S
O1386  C1430   1.295   .     S
O1390  C1446   1.298   .     S
O1393  H1394   0.992   .     S
O1395  H1396   0.991   .     S
C1397  H1398   1.083   .     S
C1397  O1399   1.220   .     D
C1400  H1401   1.078   .     S
C1400  O1402   1.221   .     D
C1403  H1404   1.084   .     S
C1403  O1405   1.221   .     D
C1403  C1452   1.486   .     S
C1406  O1408   1.221   .     D
C1406  H1407   1.080   .     S
O1409  H1494   0.991   .     S
H1412  O1495   0.989   .     S
O1413  H1414   0.990   .     S
O1415  H1416   0.991   .     S
C1417  H1418   1.084   .     S
C1417  O1419   1.221   .     D
C1420  H1421   1.082   .     S
C1420  O1422   1.221   .     D
C1423  O1425   1.222   .     D
C1423  H1424   1.064   .     S
C1426  H1427   1.064   .     S
C1426  O1428   1.222   .     D
C1429  O1471   1.297   .     A
C1429  C1440   1.450   .     S
C1429  O1301   1.295   1_655 S
C1430  O1472   1.299   .     A
C1430  C1439   1.456   .     S
C1431  H1463   1.082   .     S
C1431  C1433   1.403   .     A
C1431  C1460   1.408   .     A
C1432  H1464   1.081   .     S
C1432  C1434   1.402   .     A
C1432  C1459   1.408   .     A
C1433  O1477   1.383   .     S
C1434  O1479   1.383   .     S
C1434  C702    1.413   1_556 S
C1435  C1440   1.404   .     A
C1435  O1497   1.379   .     S
C1436  C1439   1.405   .     A
C1436  O1499   1.377   .     S
C1436  C934    1.406   1_565 S
C1437  C1501   1.490   .     S
C1437  C931    1.407   1_565 S
C1437  C1271   1.411   1_655 S
C1438  C1504   1.494   .     S
C1440  C1270   1.409   1_655 S
C1441  C1507   1.481   .     S
C1441  N1468   1.392   .     A
C1441  C1443   1.422   .     A
C1442  N1467   1.392   .     A
C1442  C1444   1.422   .     A
C1442  C1510   1.480   .     S
C1443  H1465   1.082   .     S
C1443  N1467   1.352   .     A
C1444  N1468   1.351   .     A
C1444  H1466   1.082   .     S
C1445  O1475   1.309   .     A
C1445  C1447   1.479   .     S
C1445  O1305   1.297   1_655 S
C1446  O1476   1.308   .     A
C1446  C1448   1.480   .     S
C1447  C1451   1.421   .     A
C1447  C1453   1.404   .     A
C1448  C1452   1.419   .     A
C1448  C1454   1.404   .     A
C1449  C1457   1.416   .     A
C1449  O1493   1.382   .     S
C1449  C1451   1.420   .     A
C1450  C1452   1.421   .     A
C1450  C1458   1.417   .     A
C1450  O1495   1.383   .     S
C1451  C1322   1.491   1_655 S
C1453  C1484   1.490   .     S
C1453  C1455   1.413   .     A
C1454  C1481   1.494   .     S
C1454  C1456   1.411   .     A
C1455  C1457   1.417   .     A
C1455  C1459   1.423   .     A
C1456  C1460   1.423   .     A
C1456  C1458   1.418   .     A
C1457  C677    1.413   1_556 S
C1459  C704    1.412   1_556 S
Cu1461 O1473   1.933   .     S
Cu1461 N1467   2.029   .     S
Cu1461 O1472   1.969   .     S
Cu1461 O1469   1.959   .     S
Cu1461 O1476   1.925   .     S
Cu1462 O1470   1.959   .     S
Cu1462 N1468   2.029   .     S
Cu1462 O1474   1.933   .     S
Cu1462 O1471   1.969   .     S
Cu1462 O1475   1.925   .     S
Cu1462 Cu1293  2.699   1_655 S
O1470  C1262   1.295   1_655 S
O1474  C1278   1.298   1_655 S
O1477  H1478   0.992   .     S
O1479  H1480   0.991   .     S
C1481  H1482   1.083   .     S
C1481  O1483   1.220   .     D
C1484  H1485   1.078   .     S
C1484  O1486   1.221   .     D
C1487  H1488   1.084   .     S
C1487  O1489   1.221   .     D
C1487  C1284   1.486   1_655 S
C1490  O1492   1.221   .     D
C1490  H1491   1.080   .     S
O1493  H1326   0.991   1_655 S
H1496  O1327   0.989   1_655 S
O1497  H1498   0.990   .     S
O1499  H1500   0.991   .     S
C1501  H1502   1.084   .     S
C1501  O1503   1.221   .     D
C1504  H1505   1.082   .     S
C1504  O1506   1.221   .     D
C1507  O1509   1.222   .     D
C1507  H1508   1.064   .     S
C1510  H1511   1.064   .     S
C1510  O1512   1.222   .     D
