data_str_m2_o2_o10_pcu_sym.220
_audit_creation_date              2020-01-03
_audit_creation_method            'Materials Studio'
_symmetry_space_group_name_H-M    'P1'
_symmetry_Int_Tables_number       1
_symmetry_cell_setting            triclinic
loop_
_symmetry_equiv_pos_as_xyz
  x,y,z
_cell_length_a                    26.1538
_cell_length_b                    30.1999
_cell_length_c                    27.7445
_cell_angle_alpha                 90.0062
_cell_angle_beta                  98.0077
_cell_angle_gamma                 90.1955
loop_
_atom_site_label
_atom_site_type_symbol
_atom_site_fract_x
_atom_site_fract_y
_atom_site_fract_z
_atom_site_U_iso_or_equiv
_atom_site_adp_type
_atom_site_occupancy
C1     C     0.16681   0.16504   0.25001   0.00000  Uiso   1.00
C2     C     0.16691   0.33513   0.25005   0.00000  Uiso   1.00
C3     C     0.20621   0.27210   0.05929   0.00000  Uiso   1.00
C4     C     0.15629   0.21060   0.44483   0.00000  Uiso   1.00
C5     C     0.20438   0.27226   0.10990   0.00000  Uiso   1.00
C6     C     0.15523   0.21204   0.39382   0.00000  Uiso   1.00
C7     C     0.12923   0.22781   0.09965   0.00000  Uiso   1.00
C8     C     0.17793   0.28773   0.39721   0.00000  Uiso   1.00
C9     C     0.12860   0.22765   0.04890   0.00000  Uiso   1.00
C10    C     0.17741   0.28835   0.44782   0.00000  Uiso   1.00
C11    C     0.16720   0.24994   0.02753   0.00000  Uiso   1.00
C12    C     0.16678   0.24959   0.47286   0.00000  Uiso   1.00
C13    C     0.06789   0.24998   0.23753   0.00000  Uiso   1.00
C14    C     0.26544   0.25000   0.26246   0.00000  Uiso   1.00
C15    C     0.01258   0.25000   0.23064   0.00000  Uiso   1.00
C16    C     0.32074   0.24997   0.26931   0.00000  Uiso   1.00
C17    C     0.13734   0.04719   0.27823   0.00000  Uiso   1.00
C18    C     0.15411   0.45323   0.20719   0.00000  Uiso   1.00
C19    C     0.13716   0.09334   0.27859   0.00000  Uiso   1.00
C20    C     0.15350   0.40707   0.20711   0.00000  Uiso   1.00
C21    C     0.16790   0.11698   0.25015   0.00000  Uiso   1.00
C22    C     0.16808   0.38352   0.25028   0.00000  Uiso   1.00
C23    C     0.20069   0.09470   0.22271   0.00000  Uiso   1.00
C24    C     0.18505   0.40635   0.29353   0.00000  Uiso   1.00
C25    C     0.20341   0.04871   0.22397   0.00000  Uiso   1.00
C26    C     0.18749   0.45236   0.29391   0.00000  Uiso   1.00
C27    C     0.17121   0.02464   0.25129   0.00000  Uiso   1.00
C28    C     0.17145   0.47610   0.25081   0.00000  Uiso   1.00
Cu29   Cu    0.16667   0.25000   0.29822   0.00000  Uiso   1.00
Cu30   Cu    0.16667   0.25001   0.20179   0.00000  Uiso   1.00
H31    H     0.32587   0.25005   0.19357   0.00000  Uiso   1.00
H32    H     0.00746   0.24992   0.30637   0.00000  Uiso   1.00
H33    H     0.11225   0.11065   0.30038   0.00000  Uiso   1.00
H34    H     0.14121   0.38979   0.17323   0.00000  Uiso   1.00
H35    H     0.22538   0.11315   0.20157   0.00000  Uiso   1.00
H36    H     0.19762   0.38844   0.32688   0.00000  Uiso   1.00
H37    H     0.23369   0.29009   0.13372   0.00000  Uiso   1.00
H38    H     0.14553   0.18218   0.37313   0.00000  Uiso   1.00
H39    H     0.09937   0.21025   0.11524   0.00000  Uiso   1.00
H40    H     0.18718   0.31792   0.37945   0.00000  Uiso   1.00
H41    H     0.09752   0.21052   0.02652   0.00000  Uiso   1.00
H42    H     0.18491   0.31935   0.46713   0.00000  Uiso   1.00
N43    N     0.16667   0.25001   0.12935   0.00000  Uiso   1.00
N44    N     0.16667   0.24999   0.37066   0.00000  Uiso   1.00
O45    O     0.16667   0.18573   0.29072   0.00000  Uiso   1.00
O46    O     0.16666   0.31428   0.20929   0.00000  Uiso   1.00
O47    O     0.16667   0.18573   0.20928   0.00000  Uiso   1.00
O48    O     0.16666   0.31427   0.29072   0.00000  Uiso   1.00
O49    O     0.09161   0.25000   0.28132   0.00000  Uiso   1.00
O50    O     0.24172   0.25001   0.21868   0.00000  Uiso   1.00
O51    O     0.09161   0.25000   0.19989   0.00000  Uiso   1.00
O52    O     0.24172   0.25000   0.30012   0.00000  Uiso   1.00
O53    O     0.10748   0.02452   0.30757   0.00000  Uiso   1.00
C54    C     0.05817   0.01645   0.28118   0.00000  Uiso   1.00
H55    H     0.06034   0.48886   0.25507   0.00000  Uiso   1.00
H56    H     0.04179   0.04642   0.26122   0.00000  Uiso   1.00
C57    C     0.02132   0.00254   0.31630   0.00000  Uiso   1.00
H58    H     0.01784   0.02949   0.34286   0.00000  Uiso   1.00
H59    H     0.31589   0.49551   0.29582   0.00000  Uiso   1.00
H60    H     0.03583   0.47219   0.33624   0.00000  Uiso   1.00
O61    O     0.14254   0.47550   0.16349   0.00000  Uiso   1.00
C62    C     0.08937   0.48544   0.15575   0.00000  Uiso   1.00
H63    H     0.08097   0.01283   0.18017   0.00000  Uiso   1.00
H64    H     0.06510   0.45600   0.16164   0.00000  Uiso   1.00
C65    C     0.07460   0.00094   0.10355   0.00000  Uiso   1.00
H66    H     0.08217   0.47427   0.07791   0.00000  Uiso   1.00
H67    H     0.03292   0.00939   0.09712   0.00000  Uiso   1.00
H68    H     0.09750   0.03076   0.09666   0.00000  Uiso   1.00
Cl69   Cl    0.24933   0.02257   0.19281   0.00000  Uiso   1.00
Cl70   Cl    0.21310   0.47904   0.34854   0.00000  Uiso   1.00
O71    O     0.24517   0.29515   0.04137   0.00000  Uiso   1.00
C72    C     0.28746   0.26649   0.04019   0.00000  Uiso   1.00
H73    H     0.27601   0.23659   0.01764   0.00000  Uiso   1.00
H74    H     0.30387   0.25607   0.07769   0.00000  Uiso   1.00
C75    C     0.32921   0.29078   0.01753   0.00000  Uiso   1.00
H76    H     0.00952   0.32006   0.04000   0.00000  Uiso   1.00
H77    H     0.02899   0.26839   0.01538   0.00000  Uiso   1.00
H78    H     0.31371   0.30189   0.48020   0.00000  Uiso   1.00
O79    O     0.14544   0.17114   0.46649   0.00000  Uiso   1.00
C80    C     0.19190   0.14744   0.47825   0.00000  Uiso   1.00
H81    H     0.22099   0.16718   0.00253   0.00000  Uiso   1.00
H82    H     0.20819   0.13811   0.44464   0.00000  Uiso   1.00
C83    C     0.18103   0.10527   0.00505   0.00000  Uiso   1.00
H84    H     0.15264   0.08439   0.48163   0.00000  Uiso   1.00
H85    H     0.21733   0.08627   0.01453   0.00000  Uiso   1.00
H86    H     0.16523   0.11362   0.03907   0.00000  Uiso   1.00
C87    C     0.50014   0.16504   0.25001   0.00000  Uiso   1.00
C88    C     0.50025   0.33513   0.25005   0.00000  Uiso   1.00
C89    C     0.53954   0.27210   0.05929   0.00000  Uiso   1.00
C90    C     0.48963   0.21060   0.44483   0.00000  Uiso   1.00
C91    C     0.53772   0.27226   0.10990   0.00000  Uiso   1.00
C92    C     0.48856   0.21204   0.39382   0.00000  Uiso   1.00
C93    C     0.46256   0.22781   0.09965   0.00000  Uiso   1.00
C94    C     0.51127   0.28773   0.39721   0.00000  Uiso   1.00
C95    C     0.46193   0.22765   0.04890   0.00000  Uiso   1.00
C96    C     0.51075   0.28835   0.44782   0.00000  Uiso   1.00
C97    C     0.50053   0.24994   0.02753   0.00000  Uiso   1.00
C98    C     0.50011   0.24959   0.47286   0.00000  Uiso   1.00
C99    C     0.40122   0.24998   0.23753   0.00000  Uiso   1.00
C100   C     0.59877   0.25000   0.26246   0.00000  Uiso   1.00
C101   C     0.34592   0.25000   0.23064   0.00000  Uiso   1.00
C102   C     0.65407   0.24997   0.26931   0.00000  Uiso   1.00
C103   C     0.47068   0.04719   0.27823   0.00000  Uiso   1.00
C104   C     0.48745   0.45323   0.20719   0.00000  Uiso   1.00
C105   C     0.47050   0.09334   0.27859   0.00000  Uiso   1.00
C106   C     0.48683   0.40707   0.20711   0.00000  Uiso   1.00
C107   C     0.50124   0.11698   0.25015   0.00000  Uiso   1.00
C108   C     0.50141   0.38352   0.25028   0.00000  Uiso   1.00
C109   C     0.53402   0.09470   0.22271   0.00000  Uiso   1.00
C110   C     0.51838   0.40635   0.29353   0.00000  Uiso   1.00
C111   C     0.53675   0.04871   0.22397   0.00000  Uiso   1.00
C112   C     0.52082   0.45236   0.29391   0.00000  Uiso   1.00
C113   C     0.50454   0.02464   0.25129   0.00000  Uiso   1.00
C114   C     0.50478   0.47610   0.25081   0.00000  Uiso   1.00
Cu115  Cu    0.50000   0.25000   0.29822   0.00000  Uiso   1.00
Cu116  Cu    0.50000   0.25001   0.20179   0.00000  Uiso   1.00
H117   H     0.65920   0.25005   0.19357   0.00000  Uiso   1.00
H118   H     0.34080   0.24992   0.30637   0.00000  Uiso   1.00
H119   H     0.44558   0.11065   0.30038   0.00000  Uiso   1.00
H120   H     0.47454   0.38979   0.17323   0.00000  Uiso   1.00
H121   H     0.55871   0.11315   0.20157   0.00000  Uiso   1.00
H122   H     0.53095   0.38844   0.32688   0.00000  Uiso   1.00
H123   H     0.56702   0.29009   0.13372   0.00000  Uiso   1.00
H124   H     0.47886   0.18218   0.37313   0.00000  Uiso   1.00
H125   H     0.43270   0.21025   0.11524   0.00000  Uiso   1.00
H126   H     0.52051   0.31792   0.37945   0.00000  Uiso   1.00
H127   H     0.43085   0.21052   0.02652   0.00000  Uiso   1.00
H128   H     0.51824   0.31935   0.46713   0.00000  Uiso   1.00
N129   N     0.50000   0.25001   0.12935   0.00000  Uiso   1.00
N130   N     0.50000   0.24999   0.37066   0.00000  Uiso   1.00
O131   O     0.50000   0.18573   0.29072   0.00000  Uiso   1.00
O132   O     0.50000   0.31428   0.20929   0.00000  Uiso   1.00
O133   O     0.50000   0.18573   0.20928   0.00000  Uiso   1.00
O134   O     0.50000   0.31427   0.29072   0.00000  Uiso   1.00
O135   O     0.42495   0.25000   0.28132   0.00000  Uiso   1.00
O136   O     0.57505   0.25001   0.21868   0.00000  Uiso   1.00
O137   O     0.42495   0.25000   0.19989   0.00000  Uiso   1.00
O138   O     0.57505   0.25000   0.30012   0.00000  Uiso   1.00
O139   O     0.44081   0.02452   0.30757   0.00000  Uiso   1.00
C140   C     0.39150   0.01645   0.28118   0.00000  Uiso   1.00
H141   H     0.39367   0.48886   0.25507   0.00000  Uiso   1.00
H142   H     0.37513   0.04642   0.26122   0.00000  Uiso   1.00
C143   C     0.35465   0.00254   0.31630   0.00000  Uiso   1.00
H144   H     0.35117   0.02949   0.34286   0.00000  Uiso   1.00
H145   H     0.64922   0.49551   0.29582   0.00000  Uiso   1.00
H146   H     0.36916   0.47219   0.33624   0.00000  Uiso   1.00
O147   O     0.47587   0.47550   0.16349   0.00000  Uiso   1.00
C148   C     0.42270   0.48544   0.15575   0.00000  Uiso   1.00
H149   H     0.41431   0.01283   0.18017   0.00000  Uiso   1.00
H150   H     0.39843   0.45600   0.16164   0.00000  Uiso   1.00
C151   C     0.40794   0.00094   0.10355   0.00000  Uiso   1.00
H152   H     0.41550   0.47427   0.07791   0.00000  Uiso   1.00
H153   H     0.36625   0.00939   0.09712   0.00000  Uiso   1.00
H154   H     0.43083   0.03076   0.09666   0.00000  Uiso   1.00
Cl155  Cl    0.58266   0.02257   0.19281   0.00000  Uiso   1.00
Cl156  Cl    0.54644   0.47904   0.34854   0.00000  Uiso   1.00
O157   O     0.57850   0.29515   0.04137   0.00000  Uiso   1.00
C158   C     0.62079   0.26649   0.04019   0.00000  Uiso   1.00
H159   H     0.60935   0.23659   0.01764   0.00000  Uiso   1.00
H160   H     0.63720   0.25607   0.07769   0.00000  Uiso   1.00
C161   C     0.66255   0.29078   0.01753   0.00000  Uiso   1.00
H162   H     0.34286   0.32006   0.04000   0.00000  Uiso   1.00
H163   H     0.36233   0.26839   0.01538   0.00000  Uiso   1.00
H164   H     0.64704   0.30189   0.48020   0.00000  Uiso   1.00
O165   O     0.47877   0.17114   0.46649   0.00000  Uiso   1.00
C166   C     0.52523   0.14744   0.47825   0.00000  Uiso   1.00
H167   H     0.55433   0.16718   0.00253   0.00000  Uiso   1.00
H168   H     0.54152   0.13811   0.44464   0.00000  Uiso   1.00
C169   C     0.51437   0.10527   0.00505   0.00000  Uiso   1.00
H170   H     0.48597   0.08439   0.48163   0.00000  Uiso   1.00
H171   H     0.55066   0.08627   0.01453   0.00000  Uiso   1.00
H172   H     0.49857   0.11362   0.03907   0.00000  Uiso   1.00
C173   C     0.83347   0.16504   0.25001   0.00000  Uiso   1.00
C174   C     0.83358   0.33513   0.25005   0.00000  Uiso   1.00
C175   C     0.87287   0.27210   0.05929   0.00000  Uiso   1.00
C176   C     0.82296   0.21060   0.44483   0.00000  Uiso   1.00
C177   C     0.87105   0.27226   0.10990   0.00000  Uiso   1.00
C178   C     0.82189   0.21204   0.39382   0.00000  Uiso   1.00
C179   C     0.79589   0.22781   0.09965   0.00000  Uiso   1.00
C180   C     0.84460   0.28773   0.39721   0.00000  Uiso   1.00
C181   C     0.79527   0.22765   0.04890   0.00000  Uiso   1.00
C182   C     0.84408   0.28835   0.44782   0.00000  Uiso   1.00
C183   C     0.83387   0.24994   0.02753   0.00000  Uiso   1.00
C184   C     0.83344   0.24959   0.47286   0.00000  Uiso   1.00
C185   C     0.73455   0.24998   0.23753   0.00000  Uiso   1.00
C186   C     0.93211   0.25000   0.26246   0.00000  Uiso   1.00
C187   C     0.67925   0.25000   0.23064   0.00000  Uiso   1.00
C188   C     0.98740   0.24997   0.26931   0.00000  Uiso   1.00
C189   C     0.80401   0.04719   0.27823   0.00000  Uiso   1.00
C190   C     0.82078   0.45323   0.20719   0.00000  Uiso   1.00
C191   C     0.80383   0.09334   0.27859   0.00000  Uiso   1.00
C192   C     0.82016   0.40707   0.20711   0.00000  Uiso   1.00
C193   C     0.83457   0.11698   0.25015   0.00000  Uiso   1.00
C194   C     0.83474   0.38352   0.25028   0.00000  Uiso   1.00
C195   C     0.86736   0.09470   0.22271   0.00000  Uiso   1.00
C196   C     0.85172   0.40635   0.29353   0.00000  Uiso   1.00
C197   C     0.87008   0.04871   0.22397   0.00000  Uiso   1.00
C198   C     0.85415   0.45236   0.29391   0.00000  Uiso   1.00
C199   C     0.83787   0.02464   0.25129   0.00000  Uiso   1.00
C200   C     0.83812   0.47610   0.25081   0.00000  Uiso   1.00
Cu201  Cu    0.83333   0.25000   0.29822   0.00000  Uiso   1.00
Cu202  Cu    0.83333   0.25001   0.20179   0.00000  Uiso   1.00
H203   H     0.99253   0.25005   0.19357   0.00000  Uiso   1.00
H204   H     0.67413   0.24992   0.30637   0.00000  Uiso   1.00
H205   H     0.77891   0.11065   0.30038   0.00000  Uiso   1.00
H206   H     0.80787   0.38979   0.17323   0.00000  Uiso   1.00
H207   H     0.89205   0.11315   0.20157   0.00000  Uiso   1.00
H208   H     0.86429   0.38844   0.32688   0.00000  Uiso   1.00
H209   H     0.90036   0.29009   0.13372   0.00000  Uiso   1.00
H210   H     0.81219   0.18218   0.37313   0.00000  Uiso   1.00
H211   H     0.76604   0.21025   0.11524   0.00000  Uiso   1.00
H212   H     0.85384   0.31792   0.37945   0.00000  Uiso   1.00
H213   H     0.76418   0.21052   0.02652   0.00000  Uiso   1.00
H214   H     0.85157   0.31935   0.46713   0.00000  Uiso   1.00
N215   N     0.83333   0.25001   0.12935   0.00000  Uiso   1.00
N216   N     0.83333   0.24999   0.37066   0.00000  Uiso   1.00
O217   O     0.83334   0.18573   0.29072   0.00000  Uiso   1.00
O218   O     0.83333   0.31428   0.20929   0.00000  Uiso   1.00
O219   O     0.83334   0.18573   0.20928   0.00000  Uiso   1.00
O220   O     0.83333   0.31427   0.29072   0.00000  Uiso   1.00
O221   O     0.75828   0.25000   0.28132   0.00000  Uiso   1.00
O222   O     0.90839   0.25001   0.21868   0.00000  Uiso   1.00
O223   O     0.75828   0.25000   0.19989   0.00000  Uiso   1.00
O224   O     0.90839   0.25000   0.30012   0.00000  Uiso   1.00
O225   O     0.77415   0.02452   0.30757   0.00000  Uiso   1.00
C226   C     0.72483   0.01645   0.28118   0.00000  Uiso   1.00
H227   H     0.72701   0.48886   0.25507   0.00000  Uiso   1.00
H228   H     0.70846   0.04642   0.26122   0.00000  Uiso   1.00
C229   C     0.68799   0.00254   0.31630   0.00000  Uiso   1.00
H230   H     0.68451   0.02949   0.34286   0.00000  Uiso   1.00
H231   H     0.98255   0.49551   0.29582   0.00000  Uiso   1.00
H232   H     0.70250   0.47219   0.33624   0.00000  Uiso   1.00
O233   O     0.80920   0.47550   0.16349   0.00000  Uiso   1.00
C234   C     0.75604   0.48544   0.15575   0.00000  Uiso   1.00
H235   H     0.74764   0.01283   0.18017   0.00000  Uiso   1.00
H236   H     0.73177   0.45600   0.16164   0.00000  Uiso   1.00
C237   C     0.74127   0.00094   0.10355   0.00000  Uiso   1.00
H238   H     0.74884   0.47427   0.07791   0.00000  Uiso   1.00
H239   H     0.69958   0.00939   0.09712   0.00000  Uiso   1.00
H240   H     0.76416   0.03076   0.09666   0.00000  Uiso   1.00
Cl241  Cl    0.91600   0.02257   0.19281   0.00000  Uiso   1.00
Cl242  Cl    0.87977   0.47904   0.34854   0.00000  Uiso   1.00
O243   O     0.91184   0.29515   0.04137   0.00000  Uiso   1.00
C244   C     0.95413   0.26649   0.04019   0.00000  Uiso   1.00
H245   H     0.94268   0.23659   0.01764   0.00000  Uiso   1.00
H246   H     0.97054   0.25607   0.07769   0.00000  Uiso   1.00
C247   C     0.99588   0.29078   0.01753   0.00000  Uiso   1.00
H248   H     0.67619   0.32006   0.04000   0.00000  Uiso   1.00
H249   H     0.69566   0.26839   0.01538   0.00000  Uiso   1.00
H250   H     0.98037   0.30189   0.48020   0.00000  Uiso   1.00
O251   O     0.81211   0.17114   0.46649   0.00000  Uiso   1.00
C252   C     0.85857   0.14744   0.47825   0.00000  Uiso   1.00
H253   H     0.88766   0.16718   0.00253   0.00000  Uiso   1.00
H254   H     0.87486   0.13811   0.44464   0.00000  Uiso   1.00
C255   C     0.84770   0.10527   0.00505   0.00000  Uiso   1.00
H256   H     0.81930   0.08439   0.48163   0.00000  Uiso   1.00
H257   H     0.88399   0.08627   0.01453   0.00000  Uiso   1.00
H258   H     0.83190   0.11362   0.03907   0.00000  Uiso   1.00
C259   C     0.16681   0.66504   0.25001   0.00000  Uiso   1.00
C260   C     0.16691   0.83513   0.25005   0.00000  Uiso   1.00
C261   C     0.20621   0.77210   0.05929   0.00000  Uiso   1.00
C262   C     0.15629   0.71060   0.44483   0.00000  Uiso   1.00
C263   C     0.20438   0.77226   0.10990   0.00000  Uiso   1.00
C264   C     0.15523   0.71204   0.39382   0.00000  Uiso   1.00
C265   C     0.12923   0.72781   0.09965   0.00000  Uiso   1.00
C266   C     0.17793   0.78773   0.39721   0.00000  Uiso   1.00
C267   C     0.12860   0.72765   0.04890   0.00000  Uiso   1.00
C268   C     0.17741   0.78835   0.44782   0.00000  Uiso   1.00
C269   C     0.16720   0.74994   0.02753   0.00000  Uiso   1.00
C270   C     0.16678   0.74959   0.47286   0.00000  Uiso   1.00
C271   C     0.06789   0.74998   0.23753   0.00000  Uiso   1.00
C272   C     0.26544   0.75000   0.26246   0.00000  Uiso   1.00
C273   C     0.01258   0.75000   0.23064   0.00000  Uiso   1.00
C274   C     0.32074   0.74997   0.26931   0.00000  Uiso   1.00
C275   C     0.13734   0.54719   0.27823   0.00000  Uiso   1.00
C276   C     0.15411   0.95323   0.20719   0.00000  Uiso   1.00
C277   C     0.13716   0.59334   0.27859   0.00000  Uiso   1.00
C278   C     0.15350   0.90707   0.20711   0.00000  Uiso   1.00
C279   C     0.16790   0.61698   0.25015   0.00000  Uiso   1.00
C280   C     0.16808   0.88352   0.25028   0.00000  Uiso   1.00
C281   C     0.20069   0.59470   0.22271   0.00000  Uiso   1.00
C282   C     0.18505   0.90635   0.29353   0.00000  Uiso   1.00
C283   C     0.20341   0.54871   0.22397   0.00000  Uiso   1.00
C284   C     0.18749   0.95236   0.29391   0.00000  Uiso   1.00
C285   C     0.17121   0.52464   0.25129   0.00000  Uiso   1.00
C286   C     0.17145   0.97610   0.25081   0.00000  Uiso   1.00
Cu287  Cu    0.16667   0.75000   0.29822   0.00000  Uiso   1.00
Cu288  Cu    0.16667   0.75001   0.20179   0.00000  Uiso   1.00
H289   H     0.32587   0.75005   0.19357   0.00000  Uiso   1.00
H290   H     0.00746   0.74992   0.30637   0.00000  Uiso   1.00
H291   H     0.11225   0.61065   0.30038   0.00000  Uiso   1.00
H292   H     0.14121   0.88979   0.17323   0.00000  Uiso   1.00
H293   H     0.22538   0.61315   0.20157   0.00000  Uiso   1.00
H294   H     0.19762   0.88844   0.32688   0.00000  Uiso   1.00
H295   H     0.23369   0.79009   0.13372   0.00000  Uiso   1.00
H296   H     0.14553   0.68218   0.37313   0.00000  Uiso   1.00
H297   H     0.09937   0.71025   0.11524   0.00000  Uiso   1.00
H298   H     0.18718   0.81792   0.37945   0.00000  Uiso   1.00
H299   H     0.09752   0.71052   0.02652   0.00000  Uiso   1.00
H300   H     0.18491   0.81935   0.46713   0.00000  Uiso   1.00
N301   N     0.16667   0.75001   0.12935   0.00000  Uiso   1.00
N302   N     0.16667   0.74999   0.37066   0.00000  Uiso   1.00
O303   O     0.16667   0.68573   0.29072   0.00000  Uiso   1.00
O304   O     0.16666   0.81428   0.20929   0.00000  Uiso   1.00
O305   O     0.16667   0.68573   0.20928   0.00000  Uiso   1.00
O306   O     0.16666   0.81427   0.29072   0.00000  Uiso   1.00
O307   O     0.09161   0.75000   0.28132   0.00000  Uiso   1.00
O308   O     0.24172   0.75001   0.21868   0.00000  Uiso   1.00
O309   O     0.09161   0.75000   0.19989   0.00000  Uiso   1.00
O310   O     0.24172   0.75000   0.30012   0.00000  Uiso   1.00
O311   O     0.10748   0.52452   0.30757   0.00000  Uiso   1.00
C312   C     0.05817   0.51645   0.28118   0.00000  Uiso   1.00
H313   H     0.06034   0.98886   0.25507   0.00000  Uiso   1.00
H314   H     0.04179   0.54642   0.26122   0.00000  Uiso   1.00
C315   C     0.02132   0.50254   0.31630   0.00000  Uiso   1.00
H316   H     0.01784   0.52949   0.34286   0.00000  Uiso   1.00
H317   H     0.31589   0.99551   0.29582   0.00000  Uiso   1.00
H318   H     0.03583   0.97219   0.33624   0.00000  Uiso   1.00
O319   O     0.14254   0.97550   0.16349   0.00000  Uiso   1.00
C320   C     0.08937   0.98544   0.15575   0.00000  Uiso   1.00
H321   H     0.08097   0.51283   0.18017   0.00000  Uiso   1.00
H322   H     0.06510   0.95600   0.16164   0.00000  Uiso   1.00
C323   C     0.07460   0.50094   0.10355   0.00000  Uiso   1.00
H324   H     0.08217   0.97427   0.07791   0.00000  Uiso   1.00
H325   H     0.03292   0.50939   0.09712   0.00000  Uiso   1.00
H326   H     0.09750   0.53076   0.09666   0.00000  Uiso   1.00
Cl327  Cl    0.24933   0.52257   0.19281   0.00000  Uiso   1.00
Cl328  Cl    0.21310   0.97904   0.34854   0.00000  Uiso   1.00
O329   O     0.24517   0.79515   0.04137   0.00000  Uiso   1.00
C330   C     0.28746   0.76649   0.04019   0.00000  Uiso   1.00
H331   H     0.27601   0.73659   0.01764   0.00000  Uiso   1.00
H332   H     0.30387   0.75607   0.07769   0.00000  Uiso   1.00
C333   C     0.32921   0.79078   0.01753   0.00000  Uiso   1.00
H334   H     0.00952   0.82006   0.04000   0.00000  Uiso   1.00
H335   H     0.02899   0.76839   0.01538   0.00000  Uiso   1.00
H336   H     0.31371   0.80189   0.48020   0.00000  Uiso   1.00
O337   O     0.14544   0.67114   0.46649   0.00000  Uiso   1.00
C338   C     0.19190   0.64744   0.47825   0.00000  Uiso   1.00
H339   H     0.22099   0.66718   0.00253   0.00000  Uiso   1.00
H340   H     0.20819   0.63811   0.44464   0.00000  Uiso   1.00
C341   C     0.18103   0.60527   0.00505   0.00000  Uiso   1.00
H342   H     0.15264   0.58439   0.48163   0.00000  Uiso   1.00
H343   H     0.21733   0.58627   0.01453   0.00000  Uiso   1.00
H344   H     0.16523   0.61362   0.03907   0.00000  Uiso   1.00
C345   C     0.50014   0.66504   0.25001   0.00000  Uiso   1.00
C346   C     0.50025   0.83513   0.25005   0.00000  Uiso   1.00
C347   C     0.53954   0.77210   0.05929   0.00000  Uiso   1.00
C348   C     0.48963   0.71060   0.44483   0.00000  Uiso   1.00
C349   C     0.53772   0.77226   0.10990   0.00000  Uiso   1.00
C350   C     0.48856   0.71204   0.39382   0.00000  Uiso   1.00
C351   C     0.46256   0.72781   0.09965   0.00000  Uiso   1.00
C352   C     0.51127   0.78773   0.39721   0.00000  Uiso   1.00
C353   C     0.46193   0.72765   0.04890   0.00000  Uiso   1.00
C354   C     0.51075   0.78835   0.44782   0.00000  Uiso   1.00
C355   C     0.50053   0.74994   0.02753   0.00000  Uiso   1.00
C356   C     0.50011   0.74959   0.47286   0.00000  Uiso   1.00
C357   C     0.40122   0.74998   0.23753   0.00000  Uiso   1.00
C358   C     0.59877   0.75000   0.26246   0.00000  Uiso   1.00
C359   C     0.34592   0.75000   0.23064   0.00000  Uiso   1.00
C360   C     0.65407   0.74997   0.26931   0.00000  Uiso   1.00
C361   C     0.47068   0.54719   0.27823   0.00000  Uiso   1.00
C362   C     0.48745   0.95323   0.20719   0.00000  Uiso   1.00
C363   C     0.47050   0.59334   0.27859   0.00000  Uiso   1.00
C364   C     0.48683   0.90707   0.20711   0.00000  Uiso   1.00
C365   C     0.50124   0.61698   0.25015   0.00000  Uiso   1.00
C366   C     0.50141   0.88352   0.25028   0.00000  Uiso   1.00
C367   C     0.53402   0.59470   0.22271   0.00000  Uiso   1.00
C368   C     0.51838   0.90635   0.29353   0.00000  Uiso   1.00
C369   C     0.53675   0.54871   0.22397   0.00000  Uiso   1.00
C370   C     0.52082   0.95236   0.29391   0.00000  Uiso   1.00
C371   C     0.50454   0.52464   0.25129   0.00000  Uiso   1.00
C372   C     0.50478   0.97610   0.25081   0.00000  Uiso   1.00
Cu373  Cu    0.50000   0.75000   0.29822   0.00000  Uiso   1.00
Cu374  Cu    0.50000   0.75001   0.20179   0.00000  Uiso   1.00
H375   H     0.65920   0.75005   0.19357   0.00000  Uiso   1.00
H376   H     0.34080   0.74992   0.30637   0.00000  Uiso   1.00
H377   H     0.44558   0.61065   0.30038   0.00000  Uiso   1.00
H378   H     0.47454   0.88979   0.17323   0.00000  Uiso   1.00
H379   H     0.55871   0.61315   0.20157   0.00000  Uiso   1.00
H380   H     0.53095   0.88844   0.32688   0.00000  Uiso   1.00
H381   H     0.56702   0.79009   0.13372   0.00000  Uiso   1.00
H382   H     0.47886   0.68218   0.37313   0.00000  Uiso   1.00
H383   H     0.43270   0.71025   0.11524   0.00000  Uiso   1.00
H384   H     0.52051   0.81792   0.37945   0.00000  Uiso   1.00
H385   H     0.43085   0.71052   0.02652   0.00000  Uiso   1.00
H386   H     0.51824   0.81935   0.46713   0.00000  Uiso   1.00
N387   N     0.50000   0.75001   0.12935   0.00000  Uiso   1.00
N388   N     0.50000   0.74999   0.37066   0.00000  Uiso   1.00
O389   O     0.50000   0.68573   0.29072   0.00000  Uiso   1.00
O390   O     0.50000   0.81428   0.20929   0.00000  Uiso   1.00
O391   O     0.50000   0.68573   0.20928   0.00000  Uiso   1.00
O392   O     0.50000   0.81427   0.29072   0.00000  Uiso   1.00
O393   O     0.42495   0.75000   0.28132   0.00000  Uiso   1.00
O394   O     0.57505   0.75001   0.21868   0.00000  Uiso   1.00
O395   O     0.42495   0.75000   0.19989   0.00000  Uiso   1.00
O396   O     0.57505   0.75000   0.30012   0.00000  Uiso   1.00
O397   O     0.44081   0.52452   0.30757   0.00000  Uiso   1.00
C398   C     0.39150   0.51645   0.28118   0.00000  Uiso   1.00
H399   H     0.39367   0.98886   0.25507   0.00000  Uiso   1.00
H400   H     0.37513   0.54642   0.26122   0.00000  Uiso   1.00
C401   C     0.35465   0.50254   0.31630   0.00000  Uiso   1.00
H402   H     0.35117   0.52949   0.34286   0.00000  Uiso   1.00
H403   H     0.64922   0.99551   0.29582   0.00000  Uiso   1.00
H404   H     0.36916   0.97219   0.33624   0.00000  Uiso   1.00
O405   O     0.47587   0.97550   0.16349   0.00000  Uiso   1.00
C406   C     0.42270   0.98544   0.15575   0.00000  Uiso   1.00
H407   H     0.41431   0.51283   0.18017   0.00000  Uiso   1.00
H408   H     0.39843   0.95600   0.16164   0.00000  Uiso   1.00
C409   C     0.40794   0.50094   0.10355   0.00000  Uiso   1.00
H410   H     0.41550   0.97427   0.07791   0.00000  Uiso   1.00
H411   H     0.36625   0.50939   0.09712   0.00000  Uiso   1.00
H412   H     0.43083   0.53076   0.09666   0.00000  Uiso   1.00
Cl413  Cl    0.58266   0.52257   0.19281   0.00000  Uiso   1.00
Cl414  Cl    0.54644   0.97904   0.34854   0.00000  Uiso   1.00
O415   O     0.57850   0.79515   0.04137   0.00000  Uiso   1.00
C416   C     0.62079   0.76649   0.04019   0.00000  Uiso   1.00
H417   H     0.60935   0.73659   0.01764   0.00000  Uiso   1.00
H418   H     0.63720   0.75607   0.07769   0.00000  Uiso   1.00
C419   C     0.66255   0.79078   0.01753   0.00000  Uiso   1.00
H420   H     0.34286   0.82006   0.04000   0.00000  Uiso   1.00
H421   H     0.36233   0.76839   0.01538   0.00000  Uiso   1.00
H422   H     0.64704   0.80189   0.48020   0.00000  Uiso   1.00
O423   O     0.47877   0.67114   0.46649   0.00000  Uiso   1.00
C424   C     0.52523   0.64744   0.47825   0.00000  Uiso   1.00
H425   H     0.55433   0.66718   0.00253   0.00000  Uiso   1.00
H426   H     0.54152   0.63811   0.44464   0.00000  Uiso   1.00
C427   C     0.51437   0.60527   0.00505   0.00000  Uiso   1.00
H428   H     0.48597   0.58439   0.48163   0.00000  Uiso   1.00
H429   H     0.55066   0.58627   0.01453   0.00000  Uiso   1.00
H430   H     0.49857   0.61362   0.03907   0.00000  Uiso   1.00
C431   C     0.83347   0.66504   0.25001   0.00000  Uiso   1.00
C432   C     0.83358   0.83513   0.25005   0.00000  Uiso   1.00
C433   C     0.87287   0.77210   0.05929   0.00000  Uiso   1.00
C434   C     0.82296   0.71060   0.44483   0.00000  Uiso   1.00
C435   C     0.87105   0.77226   0.10990   0.00000  Uiso   1.00
C436   C     0.82189   0.71204   0.39382   0.00000  Uiso   1.00
C437   C     0.79589   0.72781   0.09965   0.00000  Uiso   1.00
C438   C     0.84460   0.78773   0.39721   0.00000  Uiso   1.00
C439   C     0.79527   0.72765   0.04890   0.00000  Uiso   1.00
C440   C     0.84408   0.78835   0.44782   0.00000  Uiso   1.00
C441   C     0.83387   0.74994   0.02753   0.00000  Uiso   1.00
C442   C     0.83344   0.74959   0.47286   0.00000  Uiso   1.00
C443   C     0.73455   0.74998   0.23753   0.00000  Uiso   1.00
C444   C     0.93211   0.75000   0.26246   0.00000  Uiso   1.00
C445   C     0.67925   0.75000   0.23064   0.00000  Uiso   1.00
C446   C     0.98740   0.74997   0.26931   0.00000  Uiso   1.00
C447   C     0.80401   0.54719   0.27823   0.00000  Uiso   1.00
C448   C     0.82078   0.95323   0.20719   0.00000  Uiso   1.00
C449   C     0.80383   0.59334   0.27859   0.00000  Uiso   1.00
C450   C     0.82016   0.90707   0.20711   0.00000  Uiso   1.00
C451   C     0.83457   0.61698   0.25015   0.00000  Uiso   1.00
C452   C     0.83474   0.88352   0.25028   0.00000  Uiso   1.00
C453   C     0.86736   0.59470   0.22271   0.00000  Uiso   1.00
C454   C     0.85172   0.90635   0.29353   0.00000  Uiso   1.00
C455   C     0.87008   0.54871   0.22397   0.00000  Uiso   1.00
C456   C     0.85415   0.95236   0.29391   0.00000  Uiso   1.00
C457   C     0.83787   0.52464   0.25129   0.00000  Uiso   1.00
C458   C     0.83812   0.97610   0.25081   0.00000  Uiso   1.00
Cu459  Cu    0.83333   0.75000   0.29822   0.00000  Uiso   1.00
Cu460  Cu    0.83333   0.75001   0.20179   0.00000  Uiso   1.00
H461   H     0.99253   0.75005   0.19357   0.00000  Uiso   1.00
H462   H     0.67413   0.74992   0.30637   0.00000  Uiso   1.00
H463   H     0.77891   0.61065   0.30038   0.00000  Uiso   1.00
H464   H     0.80787   0.88979   0.17323   0.00000  Uiso   1.00
H465   H     0.89205   0.61315   0.20157   0.00000  Uiso   1.00
H466   H     0.86429   0.88844   0.32688   0.00000  Uiso   1.00
H467   H     0.90036   0.79009   0.13372   0.00000  Uiso   1.00
H468   H     0.81219   0.68218   0.37313   0.00000  Uiso   1.00
H469   H     0.76604   0.71025   0.11524   0.00000  Uiso   1.00
H470   H     0.85384   0.81792   0.37945   0.00000  Uiso   1.00
H471   H     0.76418   0.71052   0.02652   0.00000  Uiso   1.00
H472   H     0.85157   0.81935   0.46713   0.00000  Uiso   1.00
N473   N     0.83333   0.75001   0.12935   0.00000  Uiso   1.00
N474   N     0.83333   0.74999   0.37066   0.00000  Uiso   1.00
O475   O     0.83334   0.68573   0.29072   0.00000  Uiso   1.00
O476   O     0.83333   0.81428   0.20929   0.00000  Uiso   1.00
O477   O     0.83334   0.68573   0.20928   0.00000  Uiso   1.00
O478   O     0.83333   0.81427   0.29072   0.00000  Uiso   1.00
O479   O     0.75828   0.75000   0.28132   0.00000  Uiso   1.00
O480   O     0.90839   0.75001   0.21868   0.00000  Uiso   1.00
O481   O     0.75828   0.75000   0.19989   0.00000  Uiso   1.00
O482   O     0.90839   0.75000   0.30012   0.00000  Uiso   1.00
O483   O     0.77415   0.52452   0.30757   0.00000  Uiso   1.00
C484   C     0.72483   0.51645   0.28118   0.00000  Uiso   1.00
H485   H     0.72701   0.98886   0.25507   0.00000  Uiso   1.00
H486   H     0.70846   0.54642   0.26122   0.00000  Uiso   1.00
C487   C     0.68799   0.50254   0.31630   0.00000  Uiso   1.00
H488   H     0.68451   0.52949   0.34286   0.00000  Uiso   1.00
H489   H     0.98255   0.99551   0.29582   0.00000  Uiso   1.00
H490   H     0.70250   0.97219   0.33624   0.00000  Uiso   1.00
O491   O     0.80920   0.97550   0.16349   0.00000  Uiso   1.00
C492   C     0.75604   0.98544   0.15575   0.00000  Uiso   1.00
H493   H     0.74764   0.51283   0.18017   0.00000  Uiso   1.00
H494   H     0.73177   0.95600   0.16164   0.00000  Uiso   1.00
C495   C     0.74127   0.50094   0.10355   0.00000  Uiso   1.00
H496   H     0.74884   0.97427   0.07791   0.00000  Uiso   1.00
H497   H     0.69958   0.50939   0.09712   0.00000  Uiso   1.00
H498   H     0.76416   0.53076   0.09666   0.00000  Uiso   1.00
Cl499  Cl    0.91600   0.52257   0.19281   0.00000  Uiso   1.00
Cl500  Cl    0.87977   0.97904   0.34854   0.00000  Uiso   1.00
O501   O     0.91184   0.79515   0.04137   0.00000  Uiso   1.00
C502   C     0.95413   0.76649   0.04019   0.00000  Uiso   1.00
H503   H     0.94268   0.73659   0.01764   0.00000  Uiso   1.00
H504   H     0.97054   0.75607   0.07769   0.00000  Uiso   1.00
C505   C     0.99588   0.79078   0.01753   0.00000  Uiso   1.00
H506   H     0.67619   0.82006   0.04000   0.00000  Uiso   1.00
H507   H     0.69566   0.76839   0.01538   0.00000  Uiso   1.00
H508   H     0.98037   0.80189   0.48020   0.00000  Uiso   1.00
O509   O     0.81211   0.67114   0.46649   0.00000  Uiso   1.00
C510   C     0.85857   0.64744   0.47825   0.00000  Uiso   1.00
H511   H     0.88766   0.66718   0.00253   0.00000  Uiso   1.00
H512   H     0.87486   0.63811   0.44464   0.00000  Uiso   1.00
C513   C     0.84770   0.60527   0.00505   0.00000  Uiso   1.00
H514   H     0.81930   0.58439   0.48163   0.00000  Uiso   1.00
H515   H     0.88399   0.58627   0.01453   0.00000  Uiso   1.00
H516   H     0.83190   0.61362   0.03907   0.00000  Uiso   1.00
C517   C     0.16681   0.16504   0.75001   0.00000  Uiso   1.00
C518   C     0.16691   0.33513   0.75005   0.00000  Uiso   1.00
C519   C     0.20621   0.27210   0.55929   0.00000  Uiso   1.00
C520   C     0.15629   0.21060   0.94483   0.00000  Uiso   1.00
C521   C     0.20438   0.27226   0.60990   0.00000  Uiso   1.00
C522   C     0.15523   0.21204   0.89382   0.00000  Uiso   1.00
C523   C     0.12923   0.22781   0.59965   0.00000  Uiso   1.00
C524   C     0.17793   0.28773   0.89721   0.00000  Uiso   1.00
C525   C     0.12860   0.22765   0.54890   0.00000  Uiso   1.00
C526   C     0.17741   0.28835   0.94782   0.00000  Uiso   1.00
C527   C     0.16720   0.24994   0.52753   0.00000  Uiso   1.00
C528   C     0.16678   0.24959   0.97286   0.00000  Uiso   1.00
C529   C     0.06789   0.24998   0.73753   0.00000  Uiso   1.00
C530   C     0.26544   0.25000   0.76246   0.00000  Uiso   1.00
C531   C     0.01258   0.25000   0.73064   0.00000  Uiso   1.00
C532   C     0.32074   0.24997   0.76931   0.00000  Uiso   1.00
C533   C     0.13734   0.04719   0.77823   0.00000  Uiso   1.00
C534   C     0.15411   0.45323   0.70719   0.00000  Uiso   1.00
C535   C     0.13716   0.09334   0.77859   0.00000  Uiso   1.00
C536   C     0.15350   0.40707   0.70711   0.00000  Uiso   1.00
C537   C     0.16790   0.11698   0.75015   0.00000  Uiso   1.00
C538   C     0.16808   0.38352   0.75028   0.00000  Uiso   1.00
C539   C     0.20069   0.09470   0.72271   0.00000  Uiso   1.00
C540   C     0.18505   0.40635   0.79353   0.00000  Uiso   1.00
C541   C     0.20341   0.04871   0.72397   0.00000  Uiso   1.00
C542   C     0.18749   0.45236   0.79391   0.00000  Uiso   1.00
C543   C     0.17121   0.02464   0.75129   0.00000  Uiso   1.00
C544   C     0.17145   0.47610   0.75081   0.00000  Uiso   1.00
Cu545  Cu    0.16667   0.25000   0.79822   0.00000  Uiso   1.00
Cu546  Cu    0.16667   0.25001   0.70179   0.00000  Uiso   1.00
H547   H     0.32587   0.25005   0.69357   0.00000  Uiso   1.00
H548   H     0.00746   0.24992   0.80637   0.00000  Uiso   1.00
H549   H     0.11225   0.11065   0.80038   0.00000  Uiso   1.00
H550   H     0.14121   0.38979   0.67323   0.00000  Uiso   1.00
H551   H     0.22538   0.11315   0.70157   0.00000  Uiso   1.00
H552   H     0.19762   0.38844   0.82688   0.00000  Uiso   1.00
H553   H     0.23369   0.29009   0.63372   0.00000  Uiso   1.00
H554   H     0.14553   0.18218   0.87313   0.00000  Uiso   1.00
H555   H     0.09937   0.21025   0.61524   0.00000  Uiso   1.00
H556   H     0.18718   0.31792   0.87945   0.00000  Uiso   1.00
H557   H     0.09752   0.21052   0.52652   0.00000  Uiso   1.00
H558   H     0.18491   0.31935   0.96713   0.00000  Uiso   1.00
N559   N     0.16667   0.25001   0.62935   0.00000  Uiso   1.00
N560   N     0.16667   0.24999   0.87066   0.00000  Uiso   1.00
O561   O     0.16667   0.18573   0.79072   0.00000  Uiso   1.00
O562   O     0.16666   0.31428   0.70929   0.00000  Uiso   1.00
O563   O     0.16667   0.18573   0.70928   0.00000  Uiso   1.00
O564   O     0.16666   0.31427   0.79072   0.00000  Uiso   1.00
O565   O     0.09161   0.25000   0.78132   0.00000  Uiso   1.00
O566   O     0.24172   0.25001   0.71868   0.00000  Uiso   1.00
O567   O     0.09161   0.25000   0.69989   0.00000  Uiso   1.00
O568   O     0.24172   0.25000   0.80012   0.00000  Uiso   1.00
O569   O     0.10748   0.02452   0.80757   0.00000  Uiso   1.00
C570   C     0.05817   0.01645   0.78118   0.00000  Uiso   1.00
H571   H     0.06034   0.48886   0.75507   0.00000  Uiso   1.00
H572   H     0.04179   0.04642   0.76122   0.00000  Uiso   1.00
C573   C     0.02132   0.00254   0.81630   0.00000  Uiso   1.00
H574   H     0.01784   0.02949   0.84286   0.00000  Uiso   1.00
H575   H     0.31589   0.49551   0.79582   0.00000  Uiso   1.00
H576   H     0.03583   0.47219   0.83624   0.00000  Uiso   1.00
O577   O     0.14254   0.47550   0.66349   0.00000  Uiso   1.00
C578   C     0.08937   0.48544   0.65575   0.00000  Uiso   1.00
H579   H     0.08097   0.01283   0.68017   0.00000  Uiso   1.00
H580   H     0.06510   0.45600   0.66164   0.00000  Uiso   1.00
C581   C     0.07460   0.00094   0.60355   0.00000  Uiso   1.00
H582   H     0.08217   0.47427   0.57791   0.00000  Uiso   1.00
H583   H     0.03292   0.00939   0.59712   0.00000  Uiso   1.00
H584   H     0.09750   0.03076   0.59666   0.00000  Uiso   1.00
Cl585  Cl    0.24933   0.02257   0.69281   0.00000  Uiso   1.00
Cl586  Cl    0.21310   0.47904   0.84854   0.00000  Uiso   1.00
O587   O     0.24517   0.29515   0.54137   0.00000  Uiso   1.00
C588   C     0.28746   0.26649   0.54019   0.00000  Uiso   1.00
H589   H     0.27601   0.23659   0.51764   0.00000  Uiso   1.00
H590   H     0.30387   0.25607   0.57769   0.00000  Uiso   1.00
C591   C     0.32921   0.29078   0.51753   0.00000  Uiso   1.00
H592   H     0.00952   0.32006   0.54000   0.00000  Uiso   1.00
H593   H     0.02899   0.26839   0.51538   0.00000  Uiso   1.00
H594   H     0.31371   0.30189   0.98020   0.00000  Uiso   1.00
O595   O     0.14544   0.17114   0.96649   0.00000  Uiso   1.00
C596   C     0.19190   0.14744   0.97825   0.00000  Uiso   1.00
H597   H     0.22099   0.16718   0.50253   0.00000  Uiso   1.00
H598   H     0.20819   0.13811   0.94464   0.00000  Uiso   1.00
C599   C     0.18103   0.10527   0.50505   0.00000  Uiso   1.00
H600   H     0.15264   0.08439   0.98163   0.00000  Uiso   1.00
H601   H     0.21733   0.08627   0.51453   0.00000  Uiso   1.00
H602   H     0.16523   0.11362   0.53907   0.00000  Uiso   1.00
C603   C     0.50014   0.16504   0.75001   0.00000  Uiso   1.00
C604   C     0.50025   0.33513   0.75005   0.00000  Uiso   1.00
C605   C     0.53954   0.27210   0.55929   0.00000  Uiso   1.00
C606   C     0.48963   0.21060   0.94483   0.00000  Uiso   1.00
C607   C     0.53772   0.27226   0.60990   0.00000  Uiso   1.00
C608   C     0.48856   0.21204   0.89382   0.00000  Uiso   1.00
C609   C     0.46256   0.22781   0.59965   0.00000  Uiso   1.00
C610   C     0.51127   0.28773   0.89721   0.00000  Uiso   1.00
C611   C     0.46193   0.22765   0.54890   0.00000  Uiso   1.00
C612   C     0.51075   0.28835   0.94782   0.00000  Uiso   1.00
C613   C     0.50053   0.24994   0.52753   0.00000  Uiso   1.00
C614   C     0.50011   0.24959   0.97286   0.00000  Uiso   1.00
C615   C     0.40122   0.24998   0.73753   0.00000  Uiso   1.00
C616   C     0.59877   0.25000   0.76246   0.00000  Uiso   1.00
C617   C     0.34592   0.25000   0.73064   0.00000  Uiso   1.00
C618   C     0.65407   0.24997   0.76931   0.00000  Uiso   1.00
C619   C     0.47068   0.04719   0.77823   0.00000  Uiso   1.00
C620   C     0.48745   0.45323   0.70719   0.00000  Uiso   1.00
C621   C     0.47050   0.09334   0.77859   0.00000  Uiso   1.00
C622   C     0.48683   0.40707   0.70711   0.00000  Uiso   1.00
C623   C     0.50124   0.11698   0.75015   0.00000  Uiso   1.00
C624   C     0.50141   0.38352   0.75028   0.00000  Uiso   1.00
C625   C     0.53402   0.09470   0.72271   0.00000  Uiso   1.00
C626   C     0.51838   0.40635   0.79353   0.00000  Uiso   1.00
C627   C     0.53675   0.04871   0.72397   0.00000  Uiso   1.00
C628   C     0.52082   0.45236   0.79391   0.00000  Uiso   1.00
C629   C     0.50454   0.02464   0.75129   0.00000  Uiso   1.00
C630   C     0.50478   0.47610   0.75081   0.00000  Uiso   1.00
Cu631  Cu    0.50000   0.25000   0.79822   0.00000  Uiso   1.00
Cu632  Cu    0.50000   0.25001   0.70179   0.00000  Uiso   1.00
H633   H     0.65920   0.25005   0.69357   0.00000  Uiso   1.00
H634   H     0.34080   0.24992   0.80637   0.00000  Uiso   1.00
H635   H     0.44558   0.11065   0.80038   0.00000  Uiso   1.00
H636   H     0.47454   0.38979   0.67323   0.00000  Uiso   1.00
H637   H     0.55871   0.11315   0.70157   0.00000  Uiso   1.00
H638   H     0.53095   0.38844   0.82688   0.00000  Uiso   1.00
H639   H     0.56702   0.29009   0.63372   0.00000  Uiso   1.00
H640   H     0.47886   0.18218   0.87313   0.00000  Uiso   1.00
H641   H     0.43270   0.21025   0.61524   0.00000  Uiso   1.00
H642   H     0.52051   0.31792   0.87945   0.00000  Uiso   1.00
H643   H     0.43085   0.21052   0.52652   0.00000  Uiso   1.00
H644   H     0.51824   0.31935   0.96713   0.00000  Uiso   1.00
N645   N     0.50000   0.25001   0.62935   0.00000  Uiso   1.00
N646   N     0.50000   0.24999   0.87066   0.00000  Uiso   1.00
O647   O     0.50000   0.18573   0.79072   0.00000  Uiso   1.00
O648   O     0.50000   0.31428   0.70929   0.00000  Uiso   1.00
O649   O     0.50000   0.18573   0.70928   0.00000  Uiso   1.00
O650   O     0.50000   0.31427   0.79072   0.00000  Uiso   1.00
O651   O     0.42495   0.25000   0.78132   0.00000  Uiso   1.00
O652   O     0.57505   0.25001   0.71868   0.00000  Uiso   1.00
O653   O     0.42495   0.25000   0.69989   0.00000  Uiso   1.00
O654   O     0.57505   0.25000   0.80012   0.00000  Uiso   1.00
O655   O     0.44081   0.02452   0.80757   0.00000  Uiso   1.00
C656   C     0.39150   0.01645   0.78118   0.00000  Uiso   1.00
H657   H     0.39367   0.48886   0.75507   0.00000  Uiso   1.00
H658   H     0.37513   0.04642   0.76122   0.00000  Uiso   1.00
C659   C     0.35465   0.00254   0.81630   0.00000  Uiso   1.00
H660   H     0.35117   0.02949   0.84286   0.00000  Uiso   1.00
H661   H     0.64922   0.49551   0.79582   0.00000  Uiso   1.00
H662   H     0.36916   0.47219   0.83624   0.00000  Uiso   1.00
O663   O     0.47587   0.47550   0.66349   0.00000  Uiso   1.00
C664   C     0.42270   0.48544   0.65575   0.00000  Uiso   1.00
H665   H     0.41431   0.01283   0.68017   0.00000  Uiso   1.00
H666   H     0.39843   0.45600   0.66164   0.00000  Uiso   1.00
C667   C     0.40794   0.00094   0.60355   0.00000  Uiso   1.00
H668   H     0.41550   0.47427   0.57791   0.00000  Uiso   1.00
H669   H     0.36625   0.00939   0.59712   0.00000  Uiso   1.00
H670   H     0.43083   0.03076   0.59666   0.00000  Uiso   1.00
Cl671  Cl    0.58266   0.02257   0.69281   0.00000  Uiso   1.00
Cl672  Cl    0.54644   0.47904   0.84854   0.00000  Uiso   1.00
O673   O     0.57850   0.29515   0.54137   0.00000  Uiso   1.00
C674   C     0.62079   0.26649   0.54019   0.00000  Uiso   1.00
H675   H     0.60935   0.23659   0.51764   0.00000  Uiso   1.00
H676   H     0.63720   0.25607   0.57769   0.00000  Uiso   1.00
C677   C     0.66255   0.29078   0.51753   0.00000  Uiso   1.00
H678   H     0.34286   0.32006   0.54000   0.00000  Uiso   1.00
H679   H     0.36233   0.26839   0.51538   0.00000  Uiso   1.00
H680   H     0.64704   0.30189   0.98020   0.00000  Uiso   1.00
O681   O     0.47877   0.17114   0.96649   0.00000  Uiso   1.00
C682   C     0.52523   0.14744   0.97825   0.00000  Uiso   1.00
H683   H     0.55433   0.16718   0.50253   0.00000  Uiso   1.00
H684   H     0.54152   0.13811   0.94464   0.00000  Uiso   1.00
C685   C     0.51437   0.10527   0.50505   0.00000  Uiso   1.00
H686   H     0.48597   0.08439   0.98163   0.00000  Uiso   1.00
H687   H     0.55066   0.08627   0.51453   0.00000  Uiso   1.00
H688   H     0.49857   0.11362   0.53907   0.00000  Uiso   1.00
C689   C     0.83347   0.16504   0.75001   0.00000  Uiso   1.00
C690   C     0.83358   0.33513   0.75005   0.00000  Uiso   1.00
C691   C     0.87287   0.27210   0.55929   0.00000  Uiso   1.00
C692   C     0.82296   0.21060   0.94483   0.00000  Uiso   1.00
C693   C     0.87105   0.27226   0.60990   0.00000  Uiso   1.00
C694   C     0.82189   0.21204   0.89382   0.00000  Uiso   1.00
C695   C     0.79589   0.22781   0.59965   0.00000  Uiso   1.00
C696   C     0.84460   0.28773   0.89721   0.00000  Uiso   1.00
C697   C     0.79527   0.22765   0.54890   0.00000  Uiso   1.00
C698   C     0.84408   0.28835   0.94782   0.00000  Uiso   1.00
C699   C     0.83387   0.24994   0.52753   0.00000  Uiso   1.00
C700   C     0.83344   0.24959   0.97286   0.00000  Uiso   1.00
C701   C     0.73455   0.24998   0.73753   0.00000  Uiso   1.00
C702   C     0.93211   0.25000   0.76246   0.00000  Uiso   1.00
C703   C     0.67925   0.25000   0.73064   0.00000  Uiso   1.00
C704   C     0.98740   0.24997   0.76931   0.00000  Uiso   1.00
C705   C     0.80401   0.04719   0.77823   0.00000  Uiso   1.00
C706   C     0.82078   0.45323   0.70719   0.00000  Uiso   1.00
C707   C     0.80383   0.09334   0.77859   0.00000  Uiso   1.00
C708   C     0.82016   0.40707   0.70711   0.00000  Uiso   1.00
C709   C     0.83457   0.11698   0.75015   0.00000  Uiso   1.00
C710   C     0.83474   0.38352   0.75028   0.00000  Uiso   1.00
C711   C     0.86736   0.09470   0.72271   0.00000  Uiso   1.00
C712   C     0.85172   0.40635   0.79353   0.00000  Uiso   1.00
C713   C     0.87008   0.04871   0.72397   0.00000  Uiso   1.00
C714   C     0.85415   0.45236   0.79391   0.00000  Uiso   1.00
C715   C     0.83787   0.02464   0.75129   0.00000  Uiso   1.00
C716   C     0.83812   0.47610   0.75081   0.00000  Uiso   1.00
Cu717  Cu    0.83333   0.25000   0.79822   0.00000  Uiso   1.00
Cu718  Cu    0.83333   0.25001   0.70179   0.00000  Uiso   1.00
H719   H     0.99253   0.25005   0.69357   0.00000  Uiso   1.00
H720   H     0.67413   0.24992   0.80637   0.00000  Uiso   1.00
H721   H     0.77891   0.11065   0.80038   0.00000  Uiso   1.00
H722   H     0.80787   0.38979   0.67323   0.00000  Uiso   1.00
H723   H     0.89205   0.11315   0.70157   0.00000  Uiso   1.00
H724   H     0.86429   0.38844   0.82688   0.00000  Uiso   1.00
H725   H     0.90036   0.29009   0.63372   0.00000  Uiso   1.00
H726   H     0.81219   0.18218   0.87313   0.00000  Uiso   1.00
H727   H     0.76604   0.21025   0.61524   0.00000  Uiso   1.00
H728   H     0.85384   0.31792   0.87945   0.00000  Uiso   1.00
H729   H     0.76418   0.21052   0.52652   0.00000  Uiso   1.00
H730   H     0.85157   0.31935   0.96713   0.00000  Uiso   1.00
N731   N     0.83333   0.25001   0.62935   0.00000  Uiso   1.00
N732   N     0.83333   0.24999   0.87066   0.00000  Uiso   1.00
O733   O     0.83334   0.18573   0.79072   0.00000  Uiso   1.00
O734   O     0.83333   0.31428   0.70929   0.00000  Uiso   1.00
O735   O     0.83334   0.18573   0.70928   0.00000  Uiso   1.00
O736   O     0.83333   0.31427   0.79072   0.00000  Uiso   1.00
O737   O     0.75828   0.25000   0.78132   0.00000  Uiso   1.00
O738   O     0.90839   0.25001   0.71868   0.00000  Uiso   1.00
O739   O     0.75828   0.25000   0.69989   0.00000  Uiso   1.00
O740   O     0.90839   0.25000   0.80012   0.00000  Uiso   1.00
O741   O     0.77415   0.02452   0.80757   0.00000  Uiso   1.00
C742   C     0.72483   0.01645   0.78118   0.00000  Uiso   1.00
H743   H     0.72701   0.48886   0.75507   0.00000  Uiso   1.00
H744   H     0.70846   0.04642   0.76122   0.00000  Uiso   1.00
C745   C     0.68799   0.00254   0.81630   0.00000  Uiso   1.00
H746   H     0.68451   0.02949   0.84286   0.00000  Uiso   1.00
H747   H     0.98255   0.49551   0.79582   0.00000  Uiso   1.00
H748   H     0.70250   0.47219   0.83624   0.00000  Uiso   1.00
O749   O     0.80920   0.47550   0.66349   0.00000  Uiso   1.00
C750   C     0.75604   0.48544   0.65575   0.00000  Uiso   1.00
H751   H     0.74764   0.01283   0.68017   0.00000  Uiso   1.00
H752   H     0.73177   0.45600   0.66164   0.00000  Uiso   1.00
C753   C     0.74127   0.00094   0.60355   0.00000  Uiso   1.00
H754   H     0.74884   0.47427   0.57791   0.00000  Uiso   1.00
H755   H     0.69958   0.00939   0.59712   0.00000  Uiso   1.00
H756   H     0.76416   0.03076   0.59666   0.00000  Uiso   1.00
Cl757  Cl    0.91600   0.02257   0.69281   0.00000  Uiso   1.00
Cl758  Cl    0.87977   0.47904   0.84854   0.00000  Uiso   1.00
O759   O     0.91184   0.29515   0.54137   0.00000  Uiso   1.00
C760   C     0.95413   0.26649   0.54019   0.00000  Uiso   1.00
H761   H     0.94268   0.23659   0.51764   0.00000  Uiso   1.00
H762   H     0.97054   0.25607   0.57769   0.00000  Uiso   1.00
C763   C     0.99588   0.29078   0.51753   0.00000  Uiso   1.00
H764   H     0.67619   0.32006   0.54000   0.00000  Uiso   1.00
H765   H     0.69566   0.26839   0.51538   0.00000  Uiso   1.00
H766   H     0.98037   0.30189   0.98020   0.00000  Uiso   1.00
O767   O     0.81211   0.17114   0.96649   0.00000  Uiso   1.00
C768   C     0.85857   0.14744   0.97825   0.00000  Uiso   1.00
H769   H     0.88766   0.16718   0.50253   0.00000  Uiso   1.00
H770   H     0.87486   0.13811   0.94464   0.00000  Uiso   1.00
C771   C     0.84770   0.10527   0.50505   0.00000  Uiso   1.00
H772   H     0.81930   0.08439   0.98163   0.00000  Uiso   1.00
H773   H     0.88399   0.08627   0.51453   0.00000  Uiso   1.00
H774   H     0.83190   0.11362   0.53907   0.00000  Uiso   1.00
C775   C     0.16681   0.66504   0.75001   0.00000  Uiso   1.00
C776   C     0.16691   0.83513   0.75005   0.00000  Uiso   1.00
C777   C     0.20621   0.77210   0.55929   0.00000  Uiso   1.00
C778   C     0.15629   0.71060   0.94483   0.00000  Uiso   1.00
C779   C     0.20438   0.77226   0.60990   0.00000  Uiso   1.00
C780   C     0.15523   0.71204   0.89382   0.00000  Uiso   1.00
C781   C     0.12923   0.72781   0.59965   0.00000  Uiso   1.00
C782   C     0.17793   0.78773   0.89721   0.00000  Uiso   1.00
C783   C     0.12860   0.72765   0.54890   0.00000  Uiso   1.00
C784   C     0.17741   0.78835   0.94782   0.00000  Uiso   1.00
C785   C     0.16720   0.74994   0.52753   0.00000  Uiso   1.00
C786   C     0.16678   0.74959   0.97286   0.00000  Uiso   1.00
C787   C     0.06789   0.74998   0.73753   0.00000  Uiso   1.00
C788   C     0.26544   0.75000   0.76246   0.00000  Uiso   1.00
C789   C     0.01258   0.75000   0.73064   0.00000  Uiso   1.00
C790   C     0.32074   0.74997   0.76931   0.00000  Uiso   1.00
C791   C     0.13734   0.54719   0.77823   0.00000  Uiso   1.00
C792   C     0.15411   0.95323   0.70719   0.00000  Uiso   1.00
C793   C     0.13716   0.59334   0.77859   0.00000  Uiso   1.00
C794   C     0.15350   0.90707   0.70711   0.00000  Uiso   1.00
C795   C     0.16790   0.61698   0.75015   0.00000  Uiso   1.00
C796   C     0.16808   0.88352   0.75028   0.00000  Uiso   1.00
C797   C     0.20069   0.59470   0.72271   0.00000  Uiso   1.00
C798   C     0.18505   0.90635   0.79353   0.00000  Uiso   1.00
C799   C     0.20341   0.54871   0.72397   0.00000  Uiso   1.00
C800   C     0.18749   0.95236   0.79391   0.00000  Uiso   1.00
C801   C     0.17121   0.52464   0.75129   0.00000  Uiso   1.00
C802   C     0.17145   0.97610   0.75081   0.00000  Uiso   1.00
Cu803  Cu    0.16667   0.75000   0.79822   0.00000  Uiso   1.00
Cu804  Cu    0.16667   0.75001   0.70179   0.00000  Uiso   1.00
H805   H     0.32587   0.75005   0.69357   0.00000  Uiso   1.00
H806   H     0.00746   0.74992   0.80637   0.00000  Uiso   1.00
H807   H     0.11225   0.61065   0.80038   0.00000  Uiso   1.00
H808   H     0.14121   0.88979   0.67323   0.00000  Uiso   1.00
H809   H     0.22538   0.61315   0.70157   0.00000  Uiso   1.00
H810   H     0.19762   0.88844   0.82688   0.00000  Uiso   1.00
H811   H     0.23369   0.79009   0.63372   0.00000  Uiso   1.00
H812   H     0.14553   0.68218   0.87313   0.00000  Uiso   1.00
H813   H     0.09937   0.71025   0.61524   0.00000  Uiso   1.00
H814   H     0.18718   0.81792   0.87945   0.00000  Uiso   1.00
H815   H     0.09752   0.71052   0.52652   0.00000  Uiso   1.00
H816   H     0.18491   0.81935   0.96713   0.00000  Uiso   1.00
N817   N     0.16667   0.75001   0.62935   0.00000  Uiso   1.00
N818   N     0.16667   0.74999   0.87066   0.00000  Uiso   1.00
O819   O     0.16667   0.68573   0.79072   0.00000  Uiso   1.00
O820   O     0.16666   0.81428   0.70929   0.00000  Uiso   1.00
O821   O     0.16667   0.68573   0.70928   0.00000  Uiso   1.00
O822   O     0.16666   0.81427   0.79072   0.00000  Uiso   1.00
O823   O     0.09161   0.75000   0.78132   0.00000  Uiso   1.00
O824   O     0.24172   0.75001   0.71868   0.00000  Uiso   1.00
O825   O     0.09161   0.75000   0.69989   0.00000  Uiso   1.00
O826   O     0.24172   0.75000   0.80012   0.00000  Uiso   1.00
O827   O     0.10748   0.52452   0.80757   0.00000  Uiso   1.00
C828   C     0.05817   0.51645   0.78118   0.00000  Uiso   1.00
H829   H     0.06034   0.98886   0.75507   0.00000  Uiso   1.00
H830   H     0.04179   0.54642   0.76122   0.00000  Uiso   1.00
C831   C     0.02132   0.50254   0.81630   0.00000  Uiso   1.00
H832   H     0.01784   0.52949   0.84286   0.00000  Uiso   1.00
H833   H     0.31589   0.99551   0.79582   0.00000  Uiso   1.00
H834   H     0.03583   0.97219   0.83624   0.00000  Uiso   1.00
O835   O     0.14254   0.97550   0.66349   0.00000  Uiso   1.00
C836   C     0.08937   0.98544   0.65575   0.00000  Uiso   1.00
H837   H     0.08097   0.51283   0.68017   0.00000  Uiso   1.00
H838   H     0.06510   0.95600   0.66164   0.00000  Uiso   1.00
C839   C     0.07460   0.50094   0.60355   0.00000  Uiso   1.00
H840   H     0.08217   0.97427   0.57791   0.00000  Uiso   1.00
H841   H     0.03292   0.50939   0.59712   0.00000  Uiso   1.00
H842   H     0.09750   0.53076   0.59666   0.00000  Uiso   1.00
Cl843  Cl    0.24933   0.52257   0.69281   0.00000  Uiso   1.00
Cl844  Cl    0.21310   0.97904   0.84854   0.00000  Uiso   1.00
O845   O     0.24517   0.79515   0.54137   0.00000  Uiso   1.00
C846   C     0.28746   0.76649   0.54019   0.00000  Uiso   1.00
H847   H     0.27601   0.73659   0.51764   0.00000  Uiso   1.00
H848   H     0.30387   0.75607   0.57769   0.00000  Uiso   1.00
C849   C     0.32921   0.79078   0.51753   0.00000  Uiso   1.00
H850   H     0.00952   0.82006   0.54000   0.00000  Uiso   1.00
H851   H     0.02899   0.76839   0.51538   0.00000  Uiso   1.00
H852   H     0.31371   0.80189   0.98020   0.00000  Uiso   1.00
O853   O     0.14544   0.67114   0.96649   0.00000  Uiso   1.00
C854   C     0.19190   0.64744   0.97825   0.00000  Uiso   1.00
H855   H     0.22099   0.66718   0.50253   0.00000  Uiso   1.00
H856   H     0.20819   0.63811   0.94464   0.00000  Uiso   1.00
C857   C     0.18103   0.60527   0.50505   0.00000  Uiso   1.00
H858   H     0.15264   0.58439   0.98163   0.00000  Uiso   1.00
H859   H     0.21733   0.58627   0.51453   0.00000  Uiso   1.00
H860   H     0.16523   0.61362   0.53907   0.00000  Uiso   1.00
C861   C     0.50014   0.66504   0.75001   0.00000  Uiso   1.00
C862   C     0.50025   0.83513   0.75005   0.00000  Uiso   1.00
C863   C     0.53954   0.77210   0.55929   0.00000  Uiso   1.00
C864   C     0.48963   0.71060   0.94483   0.00000  Uiso   1.00
C865   C     0.53772   0.77226   0.60990   0.00000  Uiso   1.00
C866   C     0.48856   0.71204   0.89382   0.00000  Uiso   1.00
C867   C     0.46256   0.72781   0.59965   0.00000  Uiso   1.00
C868   C     0.51127   0.78773   0.89721   0.00000  Uiso   1.00
C869   C     0.46193   0.72765   0.54890   0.00000  Uiso   1.00
C870   C     0.51075   0.78835   0.94782   0.00000  Uiso   1.00
C871   C     0.50053   0.74994   0.52753   0.00000  Uiso   1.00
C872   C     0.50011   0.74959   0.97286   0.00000  Uiso   1.00
C873   C     0.40122   0.74998   0.73753   0.00000  Uiso   1.00
C874   C     0.59877   0.75000   0.76246   0.00000  Uiso   1.00
C875   C     0.34592   0.75000   0.73064   0.00000  Uiso   1.00
C876   C     0.65407   0.74997   0.76931   0.00000  Uiso   1.00
C877   C     0.47068   0.54719   0.77823   0.00000  Uiso   1.00
C878   C     0.48745   0.95323   0.70719   0.00000  Uiso   1.00
C879   C     0.47050   0.59334   0.77859   0.00000  Uiso   1.00
C880   C     0.48683   0.90707   0.70711   0.00000  Uiso   1.00
C881   C     0.50124   0.61698   0.75015   0.00000  Uiso   1.00
C882   C     0.50141   0.88352   0.75028   0.00000  Uiso   1.00
C883   C     0.53402   0.59470   0.72271   0.00000  Uiso   1.00
C884   C     0.51838   0.90635   0.79353   0.00000  Uiso   1.00
C885   C     0.53675   0.54871   0.72397   0.00000  Uiso   1.00
C886   C     0.52082   0.95236   0.79391   0.00000  Uiso   1.00
C887   C     0.50454   0.52464   0.75129   0.00000  Uiso   1.00
C888   C     0.50478   0.97610   0.75081   0.00000  Uiso   1.00
Cu889  Cu    0.50000   0.75000   0.79822   0.00000  Uiso   1.00
Cu890  Cu    0.50000   0.75001   0.70179   0.00000  Uiso   1.00
H891   H     0.65920   0.75005   0.69357   0.00000  Uiso   1.00
H892   H     0.34080   0.74992   0.80637   0.00000  Uiso   1.00
H893   H     0.44558   0.61065   0.80038   0.00000  Uiso   1.00
H894   H     0.47454   0.88979   0.67323   0.00000  Uiso   1.00
H895   H     0.55871   0.61315   0.70157   0.00000  Uiso   1.00
H896   H     0.53095   0.88844   0.82688   0.00000  Uiso   1.00
H897   H     0.56702   0.79009   0.63372   0.00000  Uiso   1.00
H898   H     0.47886   0.68218   0.87313   0.00000  Uiso   1.00
H899   H     0.43270   0.71025   0.61524   0.00000  Uiso   1.00
H900   H     0.52051   0.81792   0.87945   0.00000  Uiso   1.00
H901   H     0.43085   0.71052   0.52652   0.00000  Uiso   1.00
H902   H     0.51824   0.81935   0.96713   0.00000  Uiso   1.00
N903   N     0.50000   0.75001   0.62935   0.00000  Uiso   1.00
N904   N     0.50000   0.74999   0.87066   0.00000  Uiso   1.00
O905   O     0.50000   0.68573   0.79072   0.00000  Uiso   1.00
O906   O     0.50000   0.81428   0.70929   0.00000  Uiso   1.00
O907   O     0.50000   0.68573   0.70928   0.00000  Uiso   1.00
O908   O     0.50000   0.81427   0.79072   0.00000  Uiso   1.00
O909   O     0.42495   0.75000   0.78132   0.00000  Uiso   1.00
O910   O     0.57505   0.75001   0.71868   0.00000  Uiso   1.00
O911   O     0.42495   0.75000   0.69989   0.00000  Uiso   1.00
O912   O     0.57505   0.75000   0.80012   0.00000  Uiso   1.00
O913   O     0.44081   0.52452   0.80757   0.00000  Uiso   1.00
C914   C     0.39150   0.51645   0.78118   0.00000  Uiso   1.00
H915   H     0.39367   0.98886   0.75507   0.00000  Uiso   1.00
H916   H     0.37513   0.54642   0.76122   0.00000  Uiso   1.00
C917   C     0.35465   0.50254   0.81630   0.00000  Uiso   1.00
H918   H     0.35117   0.52949   0.84286   0.00000  Uiso   1.00
H919   H     0.64922   0.99551   0.79582   0.00000  Uiso   1.00
H920   H     0.36916   0.97219   0.83624   0.00000  Uiso   1.00
O921   O     0.47587   0.97550   0.66349   0.00000  Uiso   1.00
C922   C     0.42270   0.98544   0.65575   0.00000  Uiso   1.00
H923   H     0.41431   0.51283   0.68017   0.00000  Uiso   1.00
H924   H     0.39843   0.95600   0.66164   0.00000  Uiso   1.00
C925   C     0.40794   0.50094   0.60355   0.00000  Uiso   1.00
H926   H     0.41550   0.97427   0.57791   0.00000  Uiso   1.00
H927   H     0.36625   0.50939   0.59712   0.00000  Uiso   1.00
H928   H     0.43083   0.53076   0.59666   0.00000  Uiso   1.00
Cl929  Cl    0.58266   0.52257   0.69281   0.00000  Uiso   1.00
Cl930  Cl    0.54644   0.97904   0.84854   0.00000  Uiso   1.00
O931   O     0.57850   0.79515   0.54137   0.00000  Uiso   1.00
C932   C     0.62079   0.76649   0.54019   0.00000  Uiso   1.00
H933   H     0.60935   0.73659   0.51764   0.00000  Uiso   1.00
H934   H     0.63720   0.75607   0.57769   0.00000  Uiso   1.00
C935   C     0.66255   0.79078   0.51753   0.00000  Uiso   1.00
H936   H     0.34286   0.82006   0.54000   0.00000  Uiso   1.00
H937   H     0.36233   0.76839   0.51538   0.00000  Uiso   1.00
H938   H     0.64704   0.80189   0.98020   0.00000  Uiso   1.00
O939   O     0.47877   0.67114   0.96649   0.00000  Uiso   1.00
C940   C     0.52523   0.64744   0.97825   0.00000  Uiso   1.00
H941   H     0.55433   0.66718   0.50253   0.00000  Uiso   1.00
H942   H     0.54152   0.63811   0.94464   0.00000  Uiso   1.00
C943   C     0.51437   0.60527   0.50505   0.00000  Uiso   1.00
H944   H     0.48597   0.58439   0.98163   0.00000  Uiso   1.00
H945   H     0.55066   0.58627   0.51453   0.00000  Uiso   1.00
H946   H     0.49857   0.61362   0.53907   0.00000  Uiso   1.00
C947   C     0.83347   0.66504   0.75001   0.00000  Uiso   1.00
C948   C     0.83358   0.83513   0.75005   0.00000  Uiso   1.00
C949   C     0.87287   0.77210   0.55929   0.00000  Uiso   1.00
C950   C     0.82296   0.71060   0.94483   0.00000  Uiso   1.00
C951   C     0.87105   0.77226   0.60990   0.00000  Uiso   1.00
C952   C     0.82189   0.71204   0.89382   0.00000  Uiso   1.00
C953   C     0.79589   0.72781   0.59965   0.00000  Uiso   1.00
C954   C     0.84460   0.78773   0.89721   0.00000  Uiso   1.00
C955   C     0.79527   0.72765   0.54890   0.00000  Uiso   1.00
C956   C     0.84408   0.78835   0.94782   0.00000  Uiso   1.00
C957   C     0.83387   0.74994   0.52753   0.00000  Uiso   1.00
C958   C     0.83344   0.74959   0.97286   0.00000  Uiso   1.00
C959   C     0.73455   0.74998   0.73753   0.00000  Uiso   1.00
C960   C     0.93211   0.75000   0.76246   0.00000  Uiso   1.00
C961   C     0.67925   0.75000   0.73064   0.00000  Uiso   1.00
C962   C     0.98740   0.74997   0.76931   0.00000  Uiso   1.00
C963   C     0.80401   0.54719   0.77823   0.00000  Uiso   1.00
C964   C     0.82078   0.95323   0.70719   0.00000  Uiso   1.00
C965   C     0.80383   0.59334   0.77859   0.00000  Uiso   1.00
C966   C     0.82016   0.90707   0.70711   0.00000  Uiso   1.00
C967   C     0.83457   0.61698   0.75015   0.00000  Uiso   1.00
C968   C     0.83474   0.88352   0.75028   0.00000  Uiso   1.00
C969   C     0.86736   0.59470   0.72271   0.00000  Uiso   1.00
C970   C     0.85172   0.90635   0.79353   0.00000  Uiso   1.00
C971   C     0.87008   0.54871   0.72397   0.00000  Uiso   1.00
C972   C     0.85415   0.95236   0.79391   0.00000  Uiso   1.00
C973   C     0.83787   0.52464   0.75129   0.00000  Uiso   1.00
C974   C     0.83812   0.97610   0.75081   0.00000  Uiso   1.00
Cu975  Cu    0.83333   0.75000   0.79822   0.00000  Uiso   1.00
Cu976  Cu    0.83333   0.75001   0.70179   0.00000  Uiso   1.00
H977   H     0.99253   0.75005   0.69357   0.00000  Uiso   1.00
H978   H     0.67413   0.74992   0.80637   0.00000  Uiso   1.00
H979   H     0.77891   0.61065   0.80038   0.00000  Uiso   1.00
H980   H     0.80787   0.88979   0.67323   0.00000  Uiso   1.00
H981   H     0.89205   0.61315   0.70157   0.00000  Uiso   1.00
H982   H     0.86429   0.88844   0.82688   0.00000  Uiso   1.00
H983   H     0.90036   0.79009   0.63372   0.00000  Uiso   1.00
H984   H     0.81219   0.68218   0.87313   0.00000  Uiso   1.00
H985   H     0.76604   0.71025   0.61524   0.00000  Uiso   1.00
H986   H     0.85384   0.81792   0.87945   0.00000  Uiso   1.00
H987   H     0.76418   0.71052   0.52652   0.00000  Uiso   1.00
H988   H     0.85157   0.81935   0.96713   0.00000  Uiso   1.00
N989   N     0.83333   0.75001   0.62935   0.00000  Uiso   1.00
N990   N     0.83333   0.74999   0.87066   0.00000  Uiso   1.00
O991   O     0.83334   0.68573   0.79072   0.00000  Uiso   1.00
O992   O     0.83333   0.81428   0.70929   0.00000  Uiso   1.00
O993   O     0.83334   0.68573   0.70928   0.00000  Uiso   1.00
O994   O     0.83333   0.81427   0.79072   0.00000  Uiso   1.00
O995   O     0.75828   0.75000   0.78132   0.00000  Uiso   1.00
O996   O     0.90839   0.75001   0.71868   0.00000  Uiso   1.00
O997   O     0.75828   0.75000   0.69989   0.00000  Uiso   1.00
O998   O     0.90839   0.75000   0.80012   0.00000  Uiso   1.00
O999   O     0.77415   0.52452   0.80757   0.00000  Uiso   1.00
C1000  C     0.72483   0.51645   0.78118   0.00000  Uiso   1.00
H1001  H     0.72701   0.98886   0.75507   0.00000  Uiso   1.00
H1002  H     0.70846   0.54642   0.76122   0.00000  Uiso   1.00
C1003  C     0.68799   0.50254   0.81630   0.00000  Uiso   1.00
H1004  H     0.68451   0.52949   0.84286   0.00000  Uiso   1.00
H1005  H     0.98255   0.99551   0.79582   0.00000  Uiso   1.00
H1006  H     0.70250   0.97219   0.83624   0.00000  Uiso   1.00
O1007  O     0.80920   0.97550   0.66349   0.00000  Uiso   1.00
C1008  C     0.75604   0.98544   0.65575   0.00000  Uiso   1.00
H1009  H     0.74764   0.51283   0.68017   0.00000  Uiso   1.00
H1010  H     0.73177   0.95600   0.66164   0.00000  Uiso   1.00
C1011  C     0.74127   0.50094   0.60355   0.00000  Uiso   1.00
H1012  H     0.74884   0.97427   0.57791   0.00000  Uiso   1.00
H1013  H     0.69958   0.50939   0.59712   0.00000  Uiso   1.00
H1014  H     0.76416   0.53076   0.59666   0.00000  Uiso   1.00
Cl1015 Cl    0.91600   0.52257   0.69281   0.00000  Uiso   1.00
Cl1016 Cl    0.87977   0.97904   0.84854   0.00000  Uiso   1.00
O1017  O     0.91184   0.79515   0.54137   0.00000  Uiso   1.00
C1018  C     0.95413   0.76649   0.54019   0.00000  Uiso   1.00
H1019  H     0.94268   0.73659   0.51764   0.00000  Uiso   1.00
H1020  H     0.97054   0.75607   0.57769   0.00000  Uiso   1.00
C1021  C     0.99588   0.79078   0.51753   0.00000  Uiso   1.00
H1022  H     0.67619   0.82006   0.54000   0.00000  Uiso   1.00
H1023  H     0.69566   0.76839   0.51538   0.00000  Uiso   1.00
H1024  H     0.98037   0.80189   0.98020   0.00000  Uiso   1.00
O1025  O     0.81211   0.67114   0.96649   0.00000  Uiso   1.00
C1026  C     0.85857   0.64744   0.97825   0.00000  Uiso   1.00
H1027  H     0.88766   0.66718   0.50253   0.00000  Uiso   1.00
H1028  H     0.87486   0.63811   0.94464   0.00000  Uiso   1.00
C1029  C     0.84770   0.60527   0.50505   0.00000  Uiso   1.00
H1030  H     0.81930   0.58439   0.98163   0.00000  Uiso   1.00
H1031  H     0.88399   0.58627   0.51453   0.00000  Uiso   1.00
H1032  H     0.83190   0.61362   0.53907   0.00000  Uiso   1.00
loop_
_geom_bond_atom_site_label_1
_geom_bond_atom_site_label_2
_geom_bond_distance
_geom_bond_site_symmetry_2
_ccdc_geom_bond_type
C1     C21     1.452   .     S
C1     O47     1.291   .     A
C1     O45     1.291   .     A
C2     O46     1.294   .     A
C2     C22     1.462   .     S
C2     O48     1.293   .     A
C3     O71     1.381   .     S
C3     C5      1.412   .     A
C3     C11     1.418   .     A
C4     C12     1.416   .     A
C4     O79     1.381   .     S
C4     C6      1.412   .     A
C5     H37     1.082   .     S
C5     N43     1.364   .     A
C6     H38     1.080   .     S
C6     N44     1.367   .     A
C7     N43     1.363   .     A
C7     C9      1.406   .     A
C7     H39     1.081   .     S
C8     N44     1.366   .     A
C8     C10     1.406   .     A
C8     H40     1.079   .     S
C9     C11     1.409   .     A
C9     H41     1.082   .     S
C10    H42     1.082   .     S
C10    C12     1.408   .     A
C11    C528    1.515   1_554 S
C12    C527    1.515   .     S
C13    O51     1.287   .     A
C13    O49     1.285   .     A
C13    C15     1.432   .     S
C14    O52     1.287   .     A
C14    C16     1.432   .     S
C14    O50     1.285   .     A
C15    C188    1.335   1_455 S
C15    H203    1.088   1_455 S
C16    C101    1.335   .     S
C16    H118    1.087   .     S
C17    C27     1.412   .     A
C17    O53     1.384   .     S
C17    C19     1.394   .     A
C18    C28     1.411   .     A
C18    O61     1.383   .     S
C18    C20     1.394   .     A
C19    C21     1.397   .     A
C19    H33     1.084   .     S
C20    H34     1.084   .     S
C20    C22     1.400   .     A
C21    C23     1.398   .     A
C22    C24     1.401   .     A
C23    H35     1.084   .     S
C23    C25     1.391   .     A
C24    H36     1.083   .     S
C24    C26     1.391   .     A
C25    C27     1.409   .     A
C25    Cl69    1.763   .     S
C26    Cl70    1.763   .     S
C26    C28     1.408   .     A
C27    C286    1.466   1_545 S
C28    C285    1.466   .     S
Cu29   O49     1.954   .     S
Cu29   Cu30    2.675   .     S
Cu29   O48     1.952   .     S
Cu29   O45     1.952   .     S
Cu29   N44     2.010   .     S
Cu29   O52     1.956   .     S
Cu30   O51     1.956   .     S
Cu30   O50     1.954   .     S
Cu30   O47     1.952   .     S
Cu30   N43     2.010   .     S
Cu30   O46     1.952   .     S
H31    C101    1.088   .     S
H32    C188    1.087   1_455 S
O53    C54     1.412   .     S
C54    H56     1.116   .     S
C54    C57     1.521   .     S
C54    H313    1.111   1_545 S
H55    C312    1.111   .     S
C57    H58     1.111   .     S
C57    H489    1.111   1_445 S
C57    H318    1.111   1_545 S
H59    C401    1.111   .     S
H60    C315    1.111   .     S
O61    C62     1.410   .     S
C62    H64     1.116   .     S
C62    H321    1.111   .     S
C62    C323    1.520   .     S
H63    C320    1.111   1_545 S
C65    H67     1.111   .     S
C65    H68     1.111   .     S
C65    C320    1.520   1_545 S
C65    H324    1.111   1_545 S
H66    C323    1.111   .     S
O71    C72     1.411   .     S
C72    H74     1.114   .     S
C72    H73     1.115   .     S
C72    C75     1.521   .     S
C75    H162    1.111   .     S
C75    H163    1.109   .     S
C75    H594    1.111   1_554 S
H76    C247    1.111   1_455 S
H77    C247    1.109   1_455 S
H78    C591    1.111   .     S
O79    C80     1.411   .     S
C80    H82     1.114   .     S
C80    H597    1.115   .     S
C80    C599    1.521   .     S
H81    C596    1.115   1_554 S
C83    H85     1.110   .     S
C83    H86     1.111   .     S
C83    C596    1.521   1_554 S
C83    H600    1.111   1_554 S
H84    C599    1.111   .     S
C87    C107    1.452   .     S
C87    O133    1.291   .     A
C87    O131    1.291   .     A
C88    O132    1.294   .     A
C88    C108    1.462   .     S
C88    O134    1.293   .     A
C89    O157    1.381   .     S
C89    C91     1.412   .     A
C89    C97     1.418   .     A
C90    C98     1.416   .     A
C90    O165    1.381   .     S
C90    C92     1.412   .     A
C91    H123    1.082   .     S
C91    N129    1.364   .     A
C92    H124    1.080   .     S
C92    N130    1.367   .     A
C93    N129    1.363   .     A
C93    C95     1.406   .     A
C93    H125    1.081   .     S
C94    N130    1.366   .     A
C94    C96     1.406   .     A
C94    H126    1.079   .     S
C95    C97     1.409   .     A
C95    H127    1.082   .     S
C96    H128    1.082   .     S
C96    C98     1.408   .     A
C97    C614    1.515   1_554 S
C98    C613    1.515   .     S
C99    O137    1.287   .     A
C99    O135    1.285   .     A
C99    C101    1.432   .     S
C100   O138    1.287   .     A
C100   C102    1.432   .     S
C100   O136    1.285   .     A
C102   C187    1.335   .     S
C102   H204    1.087   .     S
C103   C113    1.412   .     A
C103   O139    1.384   .     S
C103   C105    1.394   .     A
C104   C114    1.411   .     A
C104   O147    1.383   .     S
C104   C106    1.394   .     A
C105   C107    1.397   .     A
C105   H119    1.084   .     S
C106   H120    1.084   .     S
C106   C108    1.400   .     A
C107   C109    1.398   .     A
C108   C110    1.401   .     A
C109   H121    1.084   .     S
C109   C111    1.391   .     A
C110   H122    1.083   .     S
C110   C112    1.391   .     A
C111   C113    1.409   .     A
C111   Cl155   1.763   .     S
C112   Cl156   1.763   .     S
C112   C114    1.408   .     A
C113   C372    1.466   1_545 S
C114   C371    1.466   .     S
Cu115  O135    1.954   .     S
Cu115  Cu116   2.675   .     S
Cu115  O134    1.952   .     S
Cu115  O131    1.952   .     S
Cu115  N130    2.010   .     S
Cu115  O138    1.956   .     S
Cu116  O137    1.956   .     S
Cu116  O136    1.954   .     S
Cu116  O133    1.952   .     S
Cu116  N129    2.010   .     S
Cu116  O132    1.952   .     S
H117   C187    1.088   .     S
O139   C140    1.412   .     S
C140   H142    1.116   .     S
C140   C143    1.521   .     S
C140   H399    1.111   1_545 S
H141   C398    1.111   .     S
C143   H144    1.111   .     S
C143   H317    1.111   1_545 S
C143   H404    1.111   1_545 S
H145   C487    1.111   .     S
H146   C401    1.111   .     S
O147   C148    1.410   .     S
C148   H150    1.116   .     S
C148   H407    1.111   .     S
C148   C409    1.520   .     S
H149   C406    1.111   1_545 S
C151   H153    1.111   .     S
C151   H154    1.111   .     S
C151   C406    1.520   1_545 S
C151   H410    1.111   1_545 S
H152   C409    1.111   .     S
O157   C158    1.411   .     S
C158   H160    1.114   .     S
C158   H159    1.115   .     S
C158   C161    1.521   .     S
C161   H248    1.111   .     S
C161   H249    1.109   .     S
C161   H680    1.111   1_554 S
H164   C677    1.111   .     S
O165   C166    1.411   .     S
C166   H168    1.114   .     S
C166   H683    1.115   .     S
C166   C685    1.521   .     S
H167   C682    1.115   1_554 S
C169   H171    1.110   .     S
C169   H172    1.111   .     S
C169   C682    1.521   1_554 S
C169   H686    1.111   1_554 S
H170   C685    1.111   .     S
C173   C193    1.452   .     S
C173   O219    1.291   .     A
C173   O217    1.291   .     A
C174   O218    1.294   .     A
C174   C194    1.462   .     S
C174   O220    1.293   .     A
C175   O243    1.381   .     S
C175   C177    1.412   .     A
C175   C183    1.418   .     A
C176   C184    1.416   .     A
C176   O251    1.381   .     S
C176   C178    1.412   .     A
C177   H209    1.082   .     S
C177   N215    1.364   .     A
C178   H210    1.080   .     S
C178   N216    1.367   .     A
C179   N215    1.363   .     A
C179   C181    1.406   .     A
C179   H211    1.081   .     S
C180   N216    1.366   .     A
C180   C182    1.406   .     A
C180   H212    1.079   .     S
C181   C183    1.409   .     A
C181   H213    1.082   .     S
C182   H214    1.082   .     S
C182   C184    1.408   .     A
C183   C700    1.515   1_554 S
C184   C699    1.515   .     S
C185   O223    1.287   .     A
C185   O221    1.285   .     A
C185   C187    1.432   .     S
C186   O224    1.287   .     A
C186   C188    1.432   .     S
C186   O222    1.285   .     A
C188   C15     1.335   1_655 S
C188   H32     1.087   1_655 S
C189   C199    1.412   .     A
C189   O225    1.384   .     S
C189   C191    1.394   .     A
C190   C200    1.411   .     A
C190   O233    1.383   .     S
C190   C192    1.394   .     A
C191   C193    1.397   .     A
C191   H205    1.084   .     S
C192   H206    1.084   .     S
C192   C194    1.400   .     A
C193   C195    1.398   .     A
C194   C196    1.401   .     A
C195   H207    1.084   .     S
C195   C197    1.391   .     A
C196   H208    1.083   .     S
C196   C198    1.391   .     A
C197   C199    1.409   .     A
C197   Cl241   1.763   .     S
C198   Cl242   1.763   .     S
C198   C200    1.408   .     A
C199   C458    1.466   1_545 S
C200   C457    1.466   .     S
Cu201  O221    1.954   .     S
Cu201  Cu202   2.675   .     S
Cu201  O220    1.952   .     S
Cu201  O217    1.952   .     S
Cu201  N216    2.010   .     S
Cu201  O224    1.956   .     S
Cu202  O223    1.956   .     S
Cu202  O222    1.954   .     S
Cu202  O219    1.952   .     S
Cu202  N215    2.010   .     S
Cu202  O218    1.952   .     S
H203   C15     1.088   1_655 S
O225   C226    1.412   .     S
C226   H228    1.116   .     S
C226   C229    1.521   .     S
C226   H485    1.111   1_545 S
H227   C484    1.111   .     S
C229   H230    1.111   .     S
C229   H403    1.111   1_545 S
C229   H490    1.111   1_545 S
H231   C315    1.111   1_655 S
H232   C487    1.111   .     S
O233   C234    1.410   .     S
C234   H236    1.116   .     S
C234   H493    1.111   .     S
C234   C495    1.520   .     S
H235   C492    1.111   1_545 S
C237   H239    1.111   .     S
C237   H240    1.111   .     S
C237   C492    1.520   1_545 S
C237   H496    1.111   1_545 S
H238   C495    1.111   .     S
O243   C244    1.411   .     S
C244   H246    1.114   .     S
C244   H245    1.115   .     S
C244   C247    1.521   .     S
C247   H76     1.111   1_655 S
C247   H77     1.109   1_655 S
C247   H766    1.111   1_554 S
H250   C763    1.111   .     S
O251   C252    1.411   .     S
C252   H254    1.114   .     S
C252   H769    1.115   .     S
C252   C771    1.521   .     S
H253   C768    1.115   1_554 S
C255   H257    1.110   .     S
C255   H258    1.111   .     S
C255   C768    1.521   1_554 S
C255   H772    1.111   1_554 S
H256   C771    1.111   .     S
C259   C279    1.452   .     S
C259   O305    1.291   .     A
C259   O303    1.291   .     A
C260   O304    1.294   .     A
C260   C280    1.462   .     S
C260   O306    1.293   .     A
C261   O329    1.381   .     S
C261   C263    1.412   .     A
C261   C269    1.418   .     A
C262   C270    1.416   .     A
C262   O337    1.381   .     S
C262   C264    1.412   .     A
C263   H295    1.082   .     S
C263   N301    1.364   .     A
C264   H296    1.080   .     S
C264   N302    1.367   .     A
C265   N301    1.363   .     A
C265   C267    1.406   .     A
C265   H297    1.081   .     S
C266   N302    1.366   .     A
C266   C268    1.406   .     A
C266   H298    1.079   .     S
C267   C269    1.409   .     A
C267   H299    1.082   .     S
C268   H300    1.082   .     S
C268   C270    1.408   .     A
C269   C786    1.515   1_554 S
C270   C785    1.515   .     S
C271   O309    1.287   .     A
C271   O307    1.285   .     A
C271   C273    1.432   .     S
C272   O310    1.287   .     A
C272   C274    1.432   .     S
C272   O308    1.285   .     A
C273   C446    1.335   1_455 S
C273   H461    1.088   1_455 S
C274   C359    1.335   .     S
C274   H376    1.087   .     S
C275   C285    1.412   .     A
C275   O311    1.384   .     S
C275   C277    1.394   .     A
C276   C286    1.411   .     A
C276   O319    1.383   .     S
C276   C278    1.394   .     A
C277   C279    1.397   .     A
C277   H291    1.084   .     S
C278   H292    1.084   .     S
C278   C280    1.400   .     A
C279   C281    1.398   .     A
C280   C282    1.401   .     A
C281   H293    1.084   .     S
C281   C283    1.391   .     A
C282   H294    1.083   .     S
C282   C284    1.391   .     A
C283   C285    1.409   .     A
C283   Cl327   1.763   .     S
C284   Cl328   1.763   .     S
C284   C286    1.408   .     A
C286   C27     1.466   1_565 S
Cu287  O307    1.954   .     S
Cu287  Cu288   2.675   .     S
Cu287  O306    1.952   .     S
Cu287  O303    1.952   .     S
Cu287  N302    2.010   .     S
Cu287  O310    1.956   .     S
Cu288  O309    1.956   .     S
Cu288  O308    1.954   .     S
Cu288  O305    1.952   .     S
Cu288  N301    2.010   .     S
Cu288  O304    1.952   .     S
H289   C359    1.088   .     S
H290   C446    1.087   1_455 S
O311   C312    1.412   .     S
C312   H314    1.116   .     S
C312   C315    1.521   .     S
H313   C54     1.111   1_565 S
C315   H316    1.111   .     S
C315   H231    1.111   1_455 S
H317   C143    1.111   1_565 S
H318   C57     1.111   1_565 S
O319   C320    1.410   .     S
C320   H322    1.116   .     S
C320   H63     1.111   1_565 S
C320   C65     1.520   1_565 S
C323   H325    1.111   .     S
C323   H326    1.111   .     S
H324   C65     1.111   1_565 S
O329   C330    1.411   .     S
C330   H332    1.114   .     S
C330   H331    1.115   .     S
C330   C333    1.521   .     S
C333   H420    1.111   .     S
C333   H421    1.109   .     S
C333   H852    1.111   1_554 S
H334   C505    1.111   1_455 S
H335   C505    1.109   1_455 S
H336   C849    1.111   .     S
O337   C338    1.411   .     S
C338   H340    1.114   .     S
C338   H855    1.115   .     S
C338   C857    1.521   .     S
H339   C854    1.115   1_554 S
C341   H343    1.110   .     S
C341   H344    1.111   .     S
C341   C854    1.521   1_554 S
C341   H858    1.111   1_554 S
H342   C857    1.111   .     S
C345   C365    1.452   .     S
C345   O391    1.291   .     A
C345   O389    1.291   .     A
C346   O390    1.294   .     A
C346   C366    1.462   .     S
C346   O392    1.293   .     A
C347   O415    1.381   .     S
C347   C349    1.412   .     A
C347   C355    1.418   .     A
C348   C356    1.416   .     A
C348   O423    1.381   .     S
C348   C350    1.412   .     A
C349   H381    1.082   .     S
C349   N387    1.364   .     A
C350   H382    1.080   .     S
C350   N388    1.367   .     A
C351   N387    1.363   .     A
C351   C353    1.406   .     A
C351   H383    1.081   .     S
C352   N388    1.366   .     A
C352   C354    1.406   .     A
C352   H384    1.079   .     S
C353   C355    1.409   .     A
C353   H385    1.082   .     S
C354   H386    1.082   .     S
C354   C356    1.408   .     A
C355   C872    1.515   1_554 S
C356   C871    1.515   .     S
C357   O395    1.287   .     A
C357   O393    1.285   .     A
C357   C359    1.432   .     S
C358   O396    1.287   .     A
C358   C360    1.432   .     S
C358   O394    1.285   .     A
C360   C445    1.335   .     S
C360   H462    1.087   .     S
C361   C371    1.412   .     A
C361   O397    1.384   .     S
C361   C363    1.394   .     A
C362   C372    1.411   .     A
C362   O405    1.383   .     S
C362   C364    1.394   .     A
C363   C365    1.397   .     A
C363   H377    1.084   .     S
C364   H378    1.084   .     S
C364   C366    1.400   .     A
C365   C367    1.398   .     A
C366   C368    1.401   .     A
C367   H379    1.084   .     S
C367   C369    1.391   .     A
C368   H380    1.083   .     S
C368   C370    1.391   .     A
C369   C371    1.409   .     A
C369   Cl413   1.763   .     S
C370   Cl414   1.763   .     S
C370   C372    1.408   .     A
C372   C113    1.466   1_565 S
Cu373  O393    1.954   .     S
Cu373  Cu374   2.675   .     S
Cu373  O392    1.952   .     S
Cu373  O389    1.952   .     S
Cu373  N388    2.010   .     S
Cu373  O396    1.956   .     S
Cu374  O395    1.956   .     S
Cu374  O394    1.954   .     S
Cu374  O391    1.952   .     S
Cu374  N387    2.010   .     S
Cu374  O390    1.952   .     S
H375   C445    1.088   .     S
O397   C398    1.412   .     S
C398   H400    1.116   .     S
C398   C401    1.521   .     S
H399   C140    1.111   1_565 S
C401   H402    1.111   .     S
H403   C229    1.111   1_565 S
H404   C143    1.111   1_565 S
O405   C406    1.410   .     S
C406   H408    1.116   .     S
C406   H149    1.111   1_565 S
C406   C151    1.520   1_565 S
C409   H411    1.111   .     S
C409   H412    1.111   .     S
H410   C151    1.111   1_565 S
O415   C416    1.411   .     S
C416   H418    1.114   .     S
C416   H417    1.115   .     S
C416   C419    1.521   .     S
C419   H506    1.111   .     S
C419   H507    1.109   .     S
C419   H938    1.111   1_554 S
H422   C935    1.111   .     S
O423   C424    1.411   .     S
C424   H426    1.114   .     S
C424   H941    1.115   .     S
C424   C943    1.521   .     S
H425   C940    1.115   1_554 S
C427   H429    1.110   .     S
C427   H430    1.111   .     S
C427   C940    1.521   1_554 S
C427   H944    1.111   1_554 S
H428   C943    1.111   .     S
C431   C451    1.452   .     S
C431   O477    1.291   .     A
C431   O475    1.291   .     A
C432   O476    1.294   .     A
C432   C452    1.462   .     S
C432   O478    1.293   .     A
C433   O501    1.381   .     S
C433   C435    1.412   .     A
C433   C441    1.418   .     A
C434   C442    1.416   .     A
C434   O509    1.381   .     S
C434   C436    1.412   .     A
C435   H467    1.082   .     S
C435   N473    1.364   .     A
C436   H468    1.080   .     S
C436   N474    1.367   .     A
C437   N473    1.363   .     A
C437   C439    1.406   .     A
C437   H469    1.081   .     S
C438   N474    1.366   .     A
C438   C440    1.406   .     A
C438   H470    1.079   .     S
C439   C441    1.409   .     A
C439   H471    1.082   .     S
C440   H472    1.082   .     S
C440   C442    1.408   .     A
C441   C958    1.515   1_554 S
C442   C957    1.515   .     S
C443   O481    1.287   .     A
C443   O479    1.285   .     A
C443   C445    1.432   .     S
C444   O482    1.287   .     A
C444   C446    1.432   .     S
C444   O480    1.285   .     A
C446   C273    1.335   1_655 S
C446   H290    1.087   1_655 S
C447   C457    1.412   .     A
C447   O483    1.384   .     S
C447   C449    1.394   .     A
C448   C458    1.411   .     A
C448   O491    1.383   .     S
C448   C450    1.394   .     A
C449   C451    1.397   .     A
C449   H463    1.084   .     S
C450   H464    1.084   .     S
C450   C452    1.400   .     A
C451   C453    1.398   .     A
C452   C454    1.401   .     A
C453   H465    1.084   .     S
C453   C455    1.391   .     A
C454   H466    1.083   .     S
C454   C456    1.391   .     A
C455   C457    1.409   .     A
C455   Cl499   1.763   .     S
C456   Cl500   1.763   .     S
C456   C458    1.408   .     A
C458   C199    1.466   1_565 S
Cu459  O479    1.954   .     S
Cu459  Cu460   2.675   .     S
Cu459  O478    1.952   .     S
Cu459  O475    1.952   .     S
Cu459  N474    2.010   .     S
Cu459  O482    1.956   .     S
Cu460  O481    1.956   .     S
Cu460  O480    1.954   .     S
Cu460  O477    1.952   .     S
Cu460  N473    2.010   .     S
Cu460  O476    1.952   .     S
H461   C273    1.088   1_655 S
O483   C484    1.412   .     S
C484   H486    1.116   .     S
C484   C487    1.521   .     S
H485   C226    1.111   1_565 S
C487   H488    1.111   .     S
H489   C57     1.111   1_665 S
H490   C229    1.111   1_565 S
O491   C492    1.410   .     S
C492   H494    1.116   .     S
C492   H235    1.111   1_565 S
C492   C237    1.520   1_565 S
C495   H497    1.111   .     S
C495   H498    1.111   .     S
H496   C237    1.111   1_565 S
O501   C502    1.411   .     S
C502   H504    1.114   .     S
C502   H503    1.115   .     S
C502   C505    1.521   .     S
C505   H334    1.111   1_655 S
C505   H335    1.109   1_655 S
C505   H1024   1.111   1_554 S
H508   C1021   1.111   .     S
O509   C510    1.411   .     S
C510   H512    1.114   .     S
C510   H1027   1.115   .     S
C510   C1029   1.521   .     S
H511   C1026   1.115   1_554 S
C513   H515    1.110   .     S
C513   H516    1.111   .     S
C513   C1026   1.521   1_554 S
C513   H1030   1.111   1_554 S
H514   C1029   1.111   .     S
C517   C537    1.452   .     S
C517   O563    1.291   .     A
C517   O561    1.291   .     A
C518   O562    1.294   .     A
C518   C538    1.462   .     S
C518   O564    1.293   .     A
C519   O587    1.381   .     S
C519   C521    1.412   .     A
C519   C527    1.418   .     A
C520   C528    1.416   .     A
C520   O595    1.381   .     S
C520   C522    1.412   .     A
C521   H553    1.082   .     S
C521   N559    1.364   .     A
C522   H554    1.080   .     S
C522   N560    1.367   .     A
C523   N559    1.363   .     A
C523   C525    1.406   .     A
C523   H555    1.081   .     S
C524   N560    1.366   .     A
C524   C526    1.406   .     A
C524   H556    1.079   .     S
C525   C527    1.409   .     A
C525   H557    1.082   .     S
C526   H558    1.082   .     S
C526   C528    1.408   .     A
C528   C11     1.515   1_556 S
C529   O567    1.287   .     A
C529   O565    1.285   .     A
C529   C531    1.432   .     S
C530   O568    1.287   .     A
C530   C532    1.432   .     S
C530   O566    1.285   .     A
C531   C704    1.335   1_455 S
C531   H719    1.088   1_455 S
C532   C617    1.335   .     S
C532   H634    1.087   .     S
C533   C543    1.412   .     A
C533   O569    1.384   .     S
C533   C535    1.394   .     A
C534   C544    1.411   .     A
C534   O577    1.383   .     S
C534   C536    1.394   .     A
C535   C537    1.397   .     A
C535   H549    1.084   .     S
C536   H550    1.084   .     S
C536   C538    1.400   .     A
C537   C539    1.398   .     A
C538   C540    1.401   .     A
C539   H551    1.084   .     S
C539   C541    1.391   .     A
C540   H552    1.083   .     S
C540   C542    1.391   .     A
C541   C543    1.409   .     A
C541   Cl585   1.763   .     S
C542   Cl586   1.763   .     S
C542   C544    1.408   .     A
C543   C802    1.466   1_545 S
C544   C801    1.466   .     S
Cu545  O565    1.954   .     S
Cu545  Cu546   2.675   .     S
Cu545  O564    1.952   .     S
Cu545  O561    1.952   .     S
Cu545  N560    2.010   .     S
Cu545  O568    1.956   .     S
Cu546  O567    1.956   .     S
Cu546  O566    1.954   .     S
Cu546  O563    1.952   .     S
Cu546  N559    2.010   .     S
Cu546  O562    1.952   .     S
H547   C617    1.088   .     S
H548   C704    1.087   1_455 S
O569   C570    1.412   .     S
C570   H572    1.116   .     S
C570   C573    1.521   .     S
C570   H829    1.111   1_545 S
H571   C828    1.111   .     S
C573   H574    1.111   .     S
C573   H1005   1.111   1_445 S
C573   H834    1.111   1_545 S
H575   C917    1.111   .     S
H576   C831    1.111   .     S
O577   C578    1.410   .     S
C578   H580    1.116   .     S
C578   H837    1.111   .     S
C578   C839    1.520   .     S
H579   C836    1.111   1_545 S
C581   H583    1.111   .     S
C581   H584    1.111   .     S
C581   C836    1.520   1_545 S
C581   H840    1.111   1_545 S
H582   C839    1.111   .     S
O587   C588    1.411   .     S
C588   H590    1.114   .     S
C588   H589    1.115   .     S
C588   C591    1.521   .     S
C591   H678    1.111   .     S
C591   H679    1.109   .     S
H592   C763    1.111   1_455 S
H593   C763    1.109   1_455 S
H594   C75     1.111   1_556 S
O595   C596    1.411   .     S
C596   H598    1.114   .     S
C596   H81     1.115   1_556 S
C596   C83     1.521   1_556 S
C599   H601    1.110   .     S
C599   H602    1.111   .     S
H600   C83     1.111   1_556 S
C603   C623    1.452   .     S
C603   O649    1.291   .     A
C603   O647    1.291   .     A
C604   O648    1.294   .     A
C604   C624    1.462   .     S
C604   O650    1.293   .     A
C605   O673    1.381   .     S
C605   C607    1.412   .     A
C605   C613    1.418   .     A
C606   C614    1.416   .     A
C606   O681    1.381   .     S
C606   C608    1.412   .     A
C607   H639    1.082   .     S
C607   N645    1.364   .     A
C608   H640    1.080   .     S
C608   N646    1.367   .     A
C609   N645    1.363   .     A
C609   C611    1.406   .     A
C609   H641    1.081   .     S
C610   N646    1.366   .     A
C610   C612    1.406   .     A
C610   H642    1.079   .     S
C611   C613    1.409   .     A
C611   H643    1.082   .     S
C612   H644    1.082   .     S
C612   C614    1.408   .     A
C614   C97     1.515   1_556 S
C615   O653    1.287   .     A
C615   O651    1.285   .     A
C615   C617    1.432   .     S
C616   O654    1.287   .     A
C616   C618    1.432   .     S
C616   O652    1.285   .     A
C618   C703    1.335   .     S
C618   H720    1.087   .     S
C619   C629    1.412   .     A
C619   O655    1.384   .     S
C619   C621    1.394   .     A
C620   C630    1.411   .     A
C620   O663    1.383   .     S
C620   C622    1.394   .     A
C621   C623    1.397   .     A
C621   H635    1.084   .     S
C622   H636    1.084   .     S
C622   C624    1.400   .     A
C623   C625    1.398   .     A
C624   C626    1.401   .     A
C625   H637    1.084   .     S
C625   C627    1.391   .     A
C626   H638    1.083   .     S
C626   C628    1.391   .     A
C627   C629    1.409   .     A
C627   Cl671   1.763   .     S
C628   Cl672   1.763   .     S
C628   C630    1.408   .     A
C629   C888    1.466   1_545 S
C630   C887    1.466   .     S
Cu631  O651    1.954   .     S
Cu631  Cu632   2.675   .     S
Cu631  O650    1.952   .     S
Cu631  O647    1.952   .     S
Cu631  N646    2.010   .     S
Cu631  O654    1.956   .     S
Cu632  O653    1.956   .     S
Cu632  O652    1.954   .     S
Cu632  O649    1.952   .     S
Cu632  N645    2.010   .     S
Cu632  O648    1.952   .     S
H633   C703    1.088   .     S
O655   C656    1.412   .     S
C656   H658    1.116   .     S
C656   C659    1.521   .     S
C656   H915    1.111   1_545 S
H657   C914    1.111   .     S
C659   H660    1.111   .     S
C659   H833    1.111   1_545 S
C659   H920    1.111   1_545 S
H661   C1003   1.111   .     S
H662   C917    1.111   .     S
O663   C664    1.410   .     S
C664   H666    1.116   .     S
C664   H923    1.111   .     S
C664   C925    1.520   .     S
H665   C922    1.111   1_545 S
C667   H669    1.111   .     S
C667   H670    1.111   .     S
C667   C922    1.520   1_545 S
C667   H926    1.111   1_545 S
H668   C925    1.111   .     S
O673   C674    1.411   .     S
C674   H676    1.114   .     S
C674   H675    1.115   .     S
C674   C677    1.521   .     S
C677   H764    1.111   .     S
C677   H765    1.109   .     S
H680   C161    1.111   1_556 S
O681   C682    1.411   .     S
C682   H684    1.114   .     S
C682   H167    1.115   1_556 S
C682   C169    1.521   1_556 S
C685   H687    1.110   .     S
C685   H688    1.111   .     S
H686   C169    1.111   1_556 S
C689   C709    1.452   .     S
C689   O735    1.291   .     A
C689   O733    1.291   .     A
C690   O734    1.294   .     A
C690   C710    1.462   .     S
C690   O736    1.293   .     A
C691   O759    1.381   .     S
C691   C693    1.412   .     A
C691   C699    1.418   .     A
C692   C700    1.416   .     A
C692   O767    1.381   .     S
C692   C694    1.412   .     A
C693   H725    1.082   .     S
C693   N731    1.364   .     A
C694   H726    1.080   .     S
C694   N732    1.367   .     A
C695   N731    1.363   .     A
C695   C697    1.406   .     A
C695   H727    1.081   .     S
C696   N732    1.366   .     A
C696   C698    1.406   .     A
C696   H728    1.079   .     S
C697   C699    1.409   .     A
C697   H729    1.082   .     S
C698   H730    1.082   .     S
C698   C700    1.408   .     A
C700   C183    1.515   1_556 S
C701   O739    1.287   .     A
C701   O737    1.285   .     A
C701   C703    1.432   .     S
C702   O740    1.287   .     A
C702   C704    1.432   .     S
C702   O738    1.285   .     A
C704   C531    1.335   1_655 S
C704   H548    1.087   1_655 S
C705   C715    1.412   .     A
C705   O741    1.384   .     S
C705   C707    1.394   .     A
C706   C716    1.411   .     A
C706   O749    1.383   .     S
C706   C708    1.394   .     A
C707   C709    1.397   .     A
C707   H721    1.084   .     S
C708   H722    1.084   .     S
C708   C710    1.400   .     A
C709   C711    1.398   .     A
C710   C712    1.401   .     A
C711   H723    1.084   .     S
C711   C713    1.391   .     A
C712   H724    1.083   .     S
C712   C714    1.391   .     A
C713   C715    1.409   .     A
C713   Cl757   1.763   .     S
C714   Cl758   1.763   .     S
C714   C716    1.408   .     A
C715   C974    1.466   1_545 S
C716   C973    1.466   .     S
Cu717  O737    1.954   .     S
Cu717  Cu718   2.675   .     S
Cu717  O736    1.952   .     S
Cu717  O733    1.952   .     S
Cu717  N732    2.010   .     S
Cu717  O740    1.956   .     S
Cu718  O739    1.956   .     S
Cu718  O738    1.954   .     S
Cu718  O735    1.952   .     S
Cu718  N731    2.010   .     S
Cu718  O734    1.952   .     S
H719   C531    1.088   1_655 S
O741   C742    1.412   .     S
C742   H744    1.116   .     S
C742   C745    1.521   .     S
C742   H1001   1.111   1_545 S
H743   C1000   1.111   .     S
C745   H746    1.111   .     S
C745   H919    1.111   1_545 S
C745   H1006   1.111   1_545 S
H747   C831    1.111   1_655 S
H748   C1003   1.111   .     S
O749   C750    1.410   .     S
C750   H752    1.116   .     S
C750   H1009   1.111   .     S
C750   C1011   1.520   .     S
H751   C1008   1.111   1_545 S
C753   H755    1.111   .     S
C753   H756    1.111   .     S
C753   C1008   1.520   1_545 S
C753   H1012   1.111   1_545 S
H754   C1011   1.111   .     S
O759   C760    1.411   .     S
C760   H762    1.114   .     S
C760   H761    1.115   .     S
C760   C763    1.521   .     S
C763   H592    1.111   1_655 S
C763   H593    1.109   1_655 S
H766   C247    1.111   1_556 S
O767   C768    1.411   .     S
C768   H770    1.114   .     S
C768   H253    1.115   1_556 S
C768   C255    1.521   1_556 S
C771   H773    1.110   .     S
C771   H774    1.111   .     S
H772   C255    1.111   1_556 S
C775   C795    1.452   .     S
C775   O821    1.291   .     A
C775   O819    1.291   .     A
C776   O820    1.294   .     A
C776   C796    1.462   .     S
C776   O822    1.293   .     A
C777   O845    1.381   .     S
C777   C779    1.412   .     A
C777   C785    1.418   .     A
C778   C786    1.416   .     A
C778   O853    1.381   .     S
C778   C780    1.412   .     A
C779   H811    1.082   .     S
C779   N817    1.364   .     A
C780   H812    1.080   .     S
C780   N818    1.367   .     A
C781   N817    1.363   .     A
C781   C783    1.406   .     A
C781   H813    1.081   .     S
C782   N818    1.366   .     A
C782   C784    1.406   .     A
C782   H814    1.079   .     S
C783   C785    1.409   .     A
C783   H815    1.082   .     S
C784   H816    1.082   .     S
C784   C786    1.408   .     A
C786   C269    1.515   1_556 S
C787   O825    1.287   .     A
C787   O823    1.285   .     A
C787   C789    1.432   .     S
C788   O826    1.287   .     A
C788   C790    1.432   .     S
C788   O824    1.285   .     A
C789   C962    1.335   1_455 S
C789   H977    1.088   1_455 S
C790   C875    1.335   .     S
C790   H892    1.087   .     S
C791   C801    1.412   .     A
C791   O827    1.384   .     S
C791   C793    1.394   .     A
C792   C802    1.411   .     A
C792   O835    1.383   .     S
C792   C794    1.394   .     A
C793   C795    1.397   .     A
C793   H807    1.084   .     S
C794   H808    1.084   .     S
C794   C796    1.400   .     A
C795   C797    1.398   .     A
C796   C798    1.401   .     A
C797   H809    1.084   .     S
C797   C799    1.391   .     A
C798   H810    1.083   .     S
C798   C800    1.391   .     A
C799   C801    1.409   .     A
C799   Cl843   1.763   .     S
C800   Cl844   1.763   .     S
C800   C802    1.408   .     A
C802   C543    1.466   1_565 S
Cu803  O823    1.954   .     S
Cu803  Cu804   2.675   .     S
Cu803  O822    1.952   .     S
Cu803  O819    1.952   .     S
Cu803  N818    2.010   .     S
Cu803  O826    1.956   .     S
Cu804  O825    1.956   .     S
Cu804  O824    1.954   .     S
Cu804  O821    1.952   .     S
Cu804  N817    2.010   .     S
Cu804  O820    1.952   .     S
H805   C875    1.088   .     S
H806   C962    1.087   1_455 S
O827   C828    1.412   .     S
C828   H830    1.116   .     S
C828   C831    1.521   .     S
H829   C570    1.111   1_565 S
C831   H832    1.111   .     S
C831   H747    1.111   1_455 S
H833   C659    1.111   1_565 S
H834   C573    1.111   1_565 S
O835   C836    1.410   .     S
C836   H838    1.116   .     S
C836   H579    1.111   1_565 S
C836   C581    1.520   1_565 S
C839   H841    1.111   .     S
C839   H842    1.111   .     S
H840   C581    1.111   1_565 S
O845   C846    1.411   .     S
C846   H848    1.114   .     S
C846   H847    1.115   .     S
C846   C849    1.521   .     S
C849   H936    1.111   .     S
C849   H937    1.109   .     S
H850   C1021   1.111   1_455 S
H851   C1021   1.109   1_455 S
H852   C333    1.111   1_556 S
O853   C854    1.411   .     S
C854   H856    1.114   .     S
C854   H339    1.115   1_556 S
C854   C341    1.521   1_556 S
C857   H859    1.110   .     S
C857   H860    1.111   .     S
H858   C341    1.111   1_556 S
C861   C881    1.452   .     S
C861   O907    1.291   .     A
C861   O905    1.291   .     A
C862   O906    1.294   .     A
C862   C882    1.462   .     S
C862   O908    1.293   .     A
C863   O931    1.381   .     S
C863   C865    1.412   .     A
C863   C871    1.418   .     A
C864   C872    1.416   .     A
C864   O939    1.381   .     S
C864   C866    1.412   .     A
C865   H897    1.082   .     S
C865   N903    1.364   .     A
C866   H898    1.080   .     S
C866   N904    1.367   .     A
C867   N903    1.363   .     A
C867   C869    1.406   .     A
C867   H899    1.081   .     S
C868   N904    1.366   .     A
C868   C870    1.406   .     A
C868   H900    1.079   .     S
C869   C871    1.409   .     A
C869   H901    1.082   .     S
C870   H902    1.082   .     S
C870   C872    1.408   .     A
C872   C355    1.515   1_556 S
C873   O911    1.287   .     A
C873   O909    1.285   .     A
C873   C875    1.432   .     S
C874   O912    1.287   .     A
C874   C876    1.432   .     S
C874   O910    1.285   .     A
C876   C961    1.335   .     S
C876   H978    1.087   .     S
C877   C887    1.412   .     A
C877   O913    1.384   .     S
C877   C879    1.394   .     A
C878   C888    1.411   .     A
C878   O921    1.383   .     S
C878   C880    1.394   .     A
C879   C881    1.397   .     A
C879   H893    1.084   .     S
C880   H894    1.084   .     S
C880   C882    1.400   .     A
C881   C883    1.398   .     A
C882   C884    1.401   .     A
C883   H895    1.084   .     S
C883   C885    1.391   .     A
C884   H896    1.083   .     S
C884   C886    1.391   .     A
C885   C887    1.409   .     A
C885   Cl929   1.763   .     S
C886   Cl930   1.763   .     S
C886   C888    1.408   .     A
C888   C629    1.466   1_565 S
Cu889  O909    1.954   .     S
Cu889  Cu890   2.675   .     S
Cu889  O908    1.952   .     S
Cu889  O905    1.952   .     S
Cu889  N904    2.010   .     S
Cu889  O912    1.956   .     S
Cu890  O911    1.956   .     S
Cu890  O910    1.954   .     S
Cu890  O907    1.952   .     S
Cu890  N903    2.010   .     S
Cu890  O906    1.952   .     S
H891   C961    1.088   .     S
O913   C914    1.412   .     S
C914   H916    1.116   .     S
C914   C917    1.521   .     S
H915   C656    1.111   1_565 S
C917   H918    1.111   .     S
H919   C745    1.111   1_565 S
H920   C659    1.111   1_565 S
O921   C922    1.410   .     S
C922   H924    1.116   .     S
C922   H665    1.111   1_565 S
C922   C667    1.520   1_565 S
C925   H927    1.111   .     S
C925   H928    1.111   .     S
H926   C667    1.111   1_565 S
O931   C932    1.411   .     S
C932   H934    1.114   .     S
C932   H933    1.115   .     S
C932   C935    1.521   .     S
C935   H1022   1.111   .     S
C935   H1023   1.109   .     S
H938   C419    1.111   1_556 S
O939   C940    1.411   .     S
C940   H942    1.114   .     S
C940   H425    1.115   1_556 S
C940   C427    1.521   1_556 S
C943   H945    1.110   .     S
C943   H946    1.111   .     S
H944   C427    1.111   1_556 S
C947   C967    1.452   .     S
C947   O993    1.291   .     A
C947   O991    1.291   .     A
C948   O992    1.294   .     A
C948   C968    1.462   .     S
C948   O994    1.293   .     A
C949   O1017   1.381   .     S
C949   C951    1.412   .     A
C949   C957    1.418   .     A
C950   C958    1.416   .     A
C950   O1025   1.381   .     S
C950   C952    1.412   .     A
C951   H983    1.082   .     S
C951   N989    1.364   .     A
C952   H984    1.080   .     S
C952   N990    1.367   .     A
C953   N989    1.363   .     A
C953   C955    1.406   .     A
C953   H985    1.081   .     S
C954   N990    1.366   .     A
C954   C956    1.406   .     A
C954   H986    1.079   .     S
C955   C957    1.409   .     A
C955   H987    1.082   .     S
C956   H988    1.082   .     S
C956   C958    1.408   .     A
C958   C441    1.515   1_556 S
C959   O997    1.287   .     A
C959   O995    1.285   .     A
C959   C961    1.432   .     S
C960   O998    1.287   .     A
C960   C962    1.432   .     S
C960   O996    1.285   .     A
C962   C789    1.335   1_655 S
C962   H806    1.087   1_655 S
C963   C973    1.412   .     A
C963   O999    1.384   .     S
C963   C965    1.394   .     A
C964   C974    1.411   .     A
C964   O1007   1.383   .     S
C964   C966    1.394   .     A
C965   C967    1.397   .     A
C965   H979    1.084   .     S
C966   H980    1.084   .     S
C966   C968    1.400   .     A
C967   C969    1.398   .     A
C968   C970    1.401   .     A
C969   H981    1.084   .     S
C969   C971    1.391   .     A
C970   H982    1.083   .     S
C970   C972    1.391   .     A
C971   C973    1.409   .     A
C971   Cl1015  1.763   .     S
C972   Cl1016  1.763   .     S
C972   C974    1.408   .     A
C974   C715    1.466   1_565 S
Cu975  O995    1.954   .     S
Cu975  Cu976   2.675   .     S
Cu975  O994    1.952   .     S
Cu975  O991    1.952   .     S
Cu975  N990    2.010   .     S
Cu975  O998    1.956   .     S
Cu976  O997    1.956   .     S
Cu976  O996    1.954   .     S
Cu976  O993    1.952   .     S
Cu976  N989    2.010   .     S
Cu976  O992    1.952   .     S
H977   C789    1.088   1_655 S
O999   C1000   1.412   .     S
C1000  H1002   1.116   .     S
C1000  C1003   1.521   .     S
H1001  C742    1.111   1_565 S
C1003  H1004   1.111   .     S
H1005  C573    1.111   1_665 S
H1006  C745    1.111   1_565 S
O1007  C1008   1.410   .     S
C1008  H1010   1.116   .     S
C1008  H751    1.111   1_565 S
C1008  C753    1.520   1_565 S
C1011  H1013   1.111   .     S
C1011  H1014   1.111   .     S
H1012  C753    1.111   1_565 S
O1017  C1018   1.411   .     S
C1018  H1020   1.114   .     S
C1018  H1019   1.115   .     S
C1018  C1021   1.521   .     S
C1021  H850    1.111   1_655 S
C1021  H851    1.109   1_655 S
H1024  C505    1.111   1_556 S
O1025  C1026   1.411   .     S
C1026  H1028   1.114   .     S
C1026  H511    1.115   1_556 S
C1026  C513    1.521   1_556 S
C1029  H1031   1.110   .     S
C1029  H1032   1.111   .     S
H1030  C513    1.111   1_556 S
