data_str_m2_o1_o16_pcu_sym.69
_audit_creation_date              2020-01-03
_audit_creation_method            'Materials Studio'
_symmetry_space_group_name_H-M    'P1'
_symmetry_Int_Tables_number       1
_symmetry_cell_setting            triclinic
loop_
_symmetry_equiv_pos_as_xyz
  x,y,z
_cell_length_a                    28.5767
_cell_length_b                    32.5212
_cell_length_c                    27.0219
_cell_angle_alpha                 91.2481
_cell_angle_beta                  72.5735
_cell_angle_gamma                 89.9055
loop_
_atom_site_label
_atom_site_type_symbol
_atom_site_fract_x
_atom_site_fract_y
_atom_site_fract_z
_atom_site_U_iso_or_equiv
_atom_site_adp_type
_atom_site_occupancy
C1     C     0.16631   0.24593   0.25120   0.00000  Uiso   1.00
C2     C     0.12553   0.16921   0.40676   0.00000  Uiso   1.00
C3     C     0.20417   0.31221   0.26312   0.00000  Uiso   1.00
C4     C     0.14057   0.16569   0.34991   0.00000  Uiso   1.00
C5     C     0.20313   0.02144   0.26463   0.00000  Uiso   1.00
C6     C     0.16363   0.04272   0.25619   0.00000  Uiso   1.00
C7     C     0.12225   0.02072   0.25185   0.00000  Uiso   1.00
C8     C     0.12403   0.31148   0.24946   0.00000  Uiso   1.00
C9     C     0.16510   0.29048   0.25427   0.00000  Uiso   1.00
C10    C     0.29821   0.19159   0.28461   0.00000  Uiso   1.00
C11    C     0.01517   0.19056   0.28481   0.00000  Uiso   1.00
C12    C     0.14795   0.17110   0.48758   0.00000  Uiso   1.00
C13    C     0.03473   0.14250   0.21578   0.00000  Uiso   1.00
C14    C     0.31804   0.14078   0.21716   0.00000  Uiso   1.00
C15    C     0.16587   0.08737   0.25203   0.00000  Uiso   1.00
C16    C     0.19307   0.16729   0.14977   0.00000  Uiso   1.00
C17    C     0.26736   0.14502   0.00969   0.00000  Uiso   1.00
C18    C     0.20856   0.16540   0.09235   0.00000  Uiso   1.00
C19    C     0.08337   0.19255   0.43110   0.00000  Uiso   1.00
C20    C     0.07460   0.20673   0.48178   0.00000  Uiso   1.00
C21    C     0.10645   0.19651   0.00982   0.00000  Uiso   1.00
C22    C     0.04753   0.04974   0.29482   0.00000  Uiso   1.00
C23    C     0.15736   0.15710   0.43544   0.00000  Uiso   1.00
C24    C     0.00819   0.01657   0.31006   0.00000  Uiso   1.00
C25    C     0.29740   0.03163   0.35430   0.00000  Uiso   1.00
C26    C     0.27741   0.24663   0.34699   0.00000  Uiso   1.00
C27    C     0.28079   0.23144   0.39919   0.00000  Uiso   1.00
C28    C     0.30233   0.26415   0.42714   0.00000  Uiso   1.00
C29    C     0.31025   0.07353   0.19103   0.00000  Uiso   1.00
C30    C     0.02275   0.05504   0.15121   0.00000  Uiso   1.00
C31    C     0.01811   0.00863   0.14436   0.00000  Uiso   1.00
C32    C     0.32366   0.09372   0.47303   0.00000  Uiso   1.00
C33    C     0.01621   0.07758   0.01066   0.00000  Uiso   1.00
C34    C     0.18258   0.16204   0.01422   0.00000  Uiso   1.00
C35    C     0.03224   0.03279   0.49796   0.00000  Uiso   1.00
C36    C     0.22923   0.14564   0.48634   0.00000  Uiso   1.00
C37    C     0.23680   0.13065   0.43565   0.00000  Uiso   1.00
C38    C     0.19972   0.13301   0.41259   0.00000  Uiso   1.00
C39    C     0.17204   0.16862   0.06778   0.00000  Uiso   1.00
C40    C     0.25762   0.15856   0.06156   0.00000  Uiso   1.00
Cu41   Cu    0.11978   0.16666   0.25000   0.00000  Uiso   1.00
Cu42   Cu    0.21355   0.16667   0.25000   0.00000  Uiso   1.00
H43    H     0.23344   0.03762   0.27204   0.00000  Uiso   1.00
H44    H     0.20596   0.11712   0.37563   0.00000  Uiso   1.00
H45    H     0.23563   0.29641   0.26852   0.00000  Uiso   1.00
H46    H     0.02965   0.07943   0.29139   0.00000  Uiso   1.00
H47    H     0.06496   0.05462   0.32638   0.00000  Uiso   1.00
H48    H     0.32895   0.00781   0.27620   0.00000  Uiso   1.00
H49    H     0.02415   0.32225   0.32245   0.00000  Uiso   1.00
H50    H     0.30844   0.03789   0.38970   0.00000  Uiso   1.00
H51    H     0.26860   0.00780   0.36301   0.00000  Uiso   1.00
H52    H     0.28160   0.05999   0.34328   0.00000  Uiso   1.00
H53    H     0.24893   0.27120   0.35547   0.00000  Uiso   1.00
H54    H     0.09319   0.29502   0.24339   0.00000  Uiso   1.00
H55    H     0.31150   0.26151   0.32336   0.00000  Uiso   1.00
H56    H     0.24343   0.22364   0.42408   0.00000  Uiso   1.00
H57    H     0.30377   0.20317   0.39354   0.00000  Uiso   1.00
H58    H     0.00676   0.27196   0.40340   0.00000  Uiso   1.00
H59    H     0.30390   0.25222   0.46481   0.00000  Uiso   1.00
H60    H     0.27907   0.29235   0.43477   0.00000  Uiso   1.00
H61    H     0.27770   0.05757   0.18587   0.00000  Uiso   1.00
H62    H     0.31095   0.06731   0.23119   0.00000  Uiso   1.00
H63    H     0.02888   0.06975   0.11323   0.00000  Uiso   1.00
H64    H     0.05557   0.06054   0.16405   0.00000  Uiso   1.00
H65    H     0.02769   0.20846   0.31237   0.00000  Uiso   1.00
H66    H     0.01147   0.32663   0.18213   0.00000  Uiso   1.00
H67    H     0.05260   0.32940   0.11705   0.00000  Uiso   1.00
H68    H     0.32077   0.00171   0.12823   0.00000  Uiso   1.00
H69    H     0.01467   0.08843   0.43278   0.00000  Uiso   1.00
H70    H     0.28971   0.07547   0.47694   0.00000  Uiso   1.00
H71    H     0.04895   0.09663   0.00873   0.00000  Uiso   1.00
H72    H     0.32374   0.07974   0.05057   0.00000  Uiso   1.00
H73    H     0.33320   0.01303   0.00099   0.00000  Uiso   1.00
H74    H     0.05111   0.02200   0.02574   0.00000  Uiso   1.00
H75    H     0.05806   0.02977   0.45809   0.00000  Uiso   1.00
H76    H     0.06211   0.12468   0.18727   0.00000  Uiso   1.00
H77    H     0.27108   0.11648   0.41343   0.00000  Uiso   1.00
H78    H     0.13484   0.17511   0.09117   0.00000  Uiso   1.00
H79    H     0.05909   0.20264   0.40964   0.00000  Uiso   1.00
H80    H     0.09901   0.21047   0.04803   0.00000  Uiso   1.00
H81    H     0.04368   0.22705   0.49890   0.00000  Uiso   1.00
I82    I     0.31867   0.17303   0.08810   0.00000  Uiso   1.00
N83    N     0.04931   0.16666   0.24999   0.00000  Uiso   1.00
N84    N     0.28402   0.16669   0.24999   0.00000  Uiso   1.00
O85    O     0.12708   0.22678   0.25000   0.00000  Uiso   1.00
O86    O     0.26133   0.21481   0.31976   0.00000  Uiso   1.00
O87    O     0.30402   0.11568   0.18218   0.00000  Uiso   1.00
O88    O     0.31540   0.13672   0.48038   0.00000  Uiso   1.00
O89    O     0.20627   0.22679   0.25000   0.00000  Uiso   1.00
O90    O     0.10775   0.16665   0.32549   0.00000  Uiso   1.00
O91    O     0.18694   0.16666   0.32549   0.00000  Uiso   1.00
O92    O     0.12706   0.10654   0.24999   0.00000  Uiso   1.00
O93    O     0.20625   0.10655   0.24999   0.00000  Uiso   1.00
O94    O     0.14640   0.16667   0.17451   0.00000  Uiso   1.00
O95    O     0.22559   0.16668   0.17451   0.00000  Uiso   1.00
O96    O     0.08138   0.04017   0.24564   0.00000  Uiso   1.00
C97    C     0.49964   0.24593   0.25120   0.00000  Uiso   1.00
C98    C     0.45886   0.16921   0.40676   0.00000  Uiso   1.00
C99    C     0.53751   0.31221   0.26312   0.00000  Uiso   1.00
C100   C     0.47390   0.16569   0.34991   0.00000  Uiso   1.00
C101   C     0.53647   0.02144   0.26463   0.00000  Uiso   1.00
C102   C     0.49697   0.04272   0.25619   0.00000  Uiso   1.00
C103   C     0.45559   0.02072   0.25185   0.00000  Uiso   1.00
C104   C     0.45737   0.31148   0.24946   0.00000  Uiso   1.00
C105   C     0.49843   0.29048   0.25427   0.00000  Uiso   1.00
C106   C     0.63154   0.19159   0.28461   0.00000  Uiso   1.00
C107   C     0.34850   0.19056   0.28481   0.00000  Uiso   1.00
C108   C     0.48128   0.17110   0.48758   0.00000  Uiso   1.00
C109   C     0.36807   0.14250   0.21578   0.00000  Uiso   1.00
C110   C     0.65137   0.14078   0.21716   0.00000  Uiso   1.00
C111   C     0.49920   0.08737   0.25203   0.00000  Uiso   1.00
C112   C     0.52641   0.16729   0.14977   0.00000  Uiso   1.00
C113   C     0.60069   0.14502   0.00969   0.00000  Uiso   1.00
C114   C     0.54189   0.16540   0.09235   0.00000  Uiso   1.00
C115   C     0.41670   0.19255   0.43110   0.00000  Uiso   1.00
C116   C     0.40793   0.20673   0.48178   0.00000  Uiso   1.00
C117   C     0.43978   0.19651   0.00982   0.00000  Uiso   1.00
C118   C     0.38087   0.04974   0.29482   0.00000  Uiso   1.00
C119   C     0.49070   0.15710   0.43544   0.00000  Uiso   1.00
C120   C     0.34152   0.01657   0.31006   0.00000  Uiso   1.00
C121   C     0.63073   0.03163   0.35430   0.00000  Uiso   1.00
C122   C     0.61074   0.24663   0.34699   0.00000  Uiso   1.00
C123   C     0.61412   0.23144   0.39919   0.00000  Uiso   1.00
C124   C     0.63566   0.26415   0.42714   0.00000  Uiso   1.00
C125   C     0.64359   0.07353   0.19103   0.00000  Uiso   1.00
C126   C     0.35609   0.05504   0.15121   0.00000  Uiso   1.00
C127   C     0.35145   0.00863   0.14436   0.00000  Uiso   1.00
C128   C     0.65699   0.09372   0.47303   0.00000  Uiso   1.00
C129   C     0.34954   0.07758   0.01066   0.00000  Uiso   1.00
C130   C     0.51591   0.16204   0.01422   0.00000  Uiso   1.00
C131   C     0.36557   0.03279   0.49796   0.00000  Uiso   1.00
C132   C     0.56256   0.14564   0.48634   0.00000  Uiso   1.00
C133   C     0.57014   0.13065   0.43565   0.00000  Uiso   1.00
C134   C     0.53305   0.13301   0.41259   0.00000  Uiso   1.00
C135   C     0.50538   0.16862   0.06778   0.00000  Uiso   1.00
C136   C     0.59095   0.15856   0.06156   0.00000  Uiso   1.00
Cu137  Cu    0.45311   0.16666   0.25000   0.00000  Uiso   1.00
Cu138  Cu    0.54689   0.16667   0.25000   0.00000  Uiso   1.00
H139   H     0.56677   0.03762   0.27204   0.00000  Uiso   1.00
H140   H     0.53929   0.11712   0.37563   0.00000  Uiso   1.00
H141   H     0.56896   0.29641   0.26852   0.00000  Uiso   1.00
H142   H     0.36298   0.07943   0.29139   0.00000  Uiso   1.00
H143   H     0.39829   0.05462   0.32638   0.00000  Uiso   1.00
H144   H     0.66228   0.00781   0.27620   0.00000  Uiso   1.00
H145   H     0.35748   0.32225   0.32245   0.00000  Uiso   1.00
H146   H     0.64178   0.03789   0.38970   0.00000  Uiso   1.00
H147   H     0.60193   0.00780   0.36301   0.00000  Uiso   1.00
H148   H     0.61493   0.05999   0.34328   0.00000  Uiso   1.00
H149   H     0.58227   0.27120   0.35547   0.00000  Uiso   1.00
H150   H     0.42653   0.29502   0.24339   0.00000  Uiso   1.00
H151   H     0.64483   0.26151   0.32336   0.00000  Uiso   1.00
H152   H     0.57676   0.22364   0.42408   0.00000  Uiso   1.00
H153   H     0.63710   0.20317   0.39354   0.00000  Uiso   1.00
H154   H     0.34009   0.27196   0.40340   0.00000  Uiso   1.00
H155   H     0.63723   0.25222   0.46481   0.00000  Uiso   1.00
H156   H     0.61241   0.29235   0.43477   0.00000  Uiso   1.00
H157   H     0.61103   0.05757   0.18587   0.00000  Uiso   1.00
H158   H     0.64428   0.06731   0.23119   0.00000  Uiso   1.00
H159   H     0.36221   0.06975   0.11323   0.00000  Uiso   1.00
H160   H     0.38890   0.06054   0.16405   0.00000  Uiso   1.00
H161   H     0.36102   0.20846   0.31237   0.00000  Uiso   1.00
H162   H     0.34480   0.32663   0.18213   0.00000  Uiso   1.00
H163   H     0.38594   0.32940   0.11705   0.00000  Uiso   1.00
H164   H     0.65411   0.00171   0.12823   0.00000  Uiso   1.00
H165   H     0.34800   0.08843   0.43278   0.00000  Uiso   1.00
H166   H     0.62304   0.07547   0.47694   0.00000  Uiso   1.00
H167   H     0.38229   0.09663   0.00873   0.00000  Uiso   1.00
H168   H     0.65708   0.07974   0.05057   0.00000  Uiso   1.00
H169   H     0.66653   0.01303   0.00099   0.00000  Uiso   1.00
H170   H     0.38445   0.02200   0.02574   0.00000  Uiso   1.00
H171   H     0.39140   0.02977   0.45809   0.00000  Uiso   1.00
H172   H     0.39544   0.12468   0.18727   0.00000  Uiso   1.00
H173   H     0.60442   0.11648   0.41343   0.00000  Uiso   1.00
H174   H     0.46817   0.17511   0.09117   0.00000  Uiso   1.00
H175   H     0.39243   0.20264   0.40964   0.00000  Uiso   1.00
H176   H     0.43234   0.21047   0.04803   0.00000  Uiso   1.00
H177   H     0.37701   0.22705   0.49890   0.00000  Uiso   1.00
I178   I     0.65201   0.17303   0.08810   0.00000  Uiso   1.00
N179   N     0.38265   0.16666   0.24999   0.00000  Uiso   1.00
N180   N     0.61735   0.16669   0.24999   0.00000  Uiso   1.00
O181   O     0.46042   0.22678   0.25000   0.00000  Uiso   1.00
O182   O     0.59466   0.21481   0.31976   0.00000  Uiso   1.00
O183   O     0.63735   0.11568   0.18218   0.00000  Uiso   1.00
O184   O     0.64873   0.13672   0.48038   0.00000  Uiso   1.00
O185   O     0.53961   0.22679   0.25000   0.00000  Uiso   1.00
O186   O     0.44108   0.16665   0.32549   0.00000  Uiso   1.00
O187   O     0.52027   0.16666   0.32549   0.00000  Uiso   1.00
O188   O     0.46039   0.10654   0.24999   0.00000  Uiso   1.00
O189   O     0.53958   0.10655   0.24999   0.00000  Uiso   1.00
O190   O     0.47973   0.16667   0.17451   0.00000  Uiso   1.00
O191   O     0.55892   0.16668   0.17451   0.00000  Uiso   1.00
O192   O     0.41471   0.04017   0.24564   0.00000  Uiso   1.00
C193   C     0.83297   0.24593   0.25120   0.00000  Uiso   1.00
C194   C     0.79219   0.16921   0.40676   0.00000  Uiso   1.00
C195   C     0.87084   0.31221   0.26312   0.00000  Uiso   1.00
C196   C     0.80723   0.16569   0.34991   0.00000  Uiso   1.00
C197   C     0.86980   0.02144   0.26463   0.00000  Uiso   1.00
C198   C     0.83030   0.04272   0.25619   0.00000  Uiso   1.00
C199   C     0.78892   0.02072   0.25185   0.00000  Uiso   1.00
C200   C     0.79070   0.31148   0.24946   0.00000  Uiso   1.00
C201   C     0.83177   0.29048   0.25427   0.00000  Uiso   1.00
C202   C     0.96487   0.19159   0.28461   0.00000  Uiso   1.00
C203   C     0.68183   0.19056   0.28481   0.00000  Uiso   1.00
C204   C     0.81462   0.17110   0.48758   0.00000  Uiso   1.00
C205   C     0.70140   0.14250   0.21578   0.00000  Uiso   1.00
C206   C     0.98470   0.14078   0.21716   0.00000  Uiso   1.00
C207   C     0.83254   0.08737   0.25203   0.00000  Uiso   1.00
C208   C     0.85974   0.16729   0.14977   0.00000  Uiso   1.00
C209   C     0.93402   0.14502   0.00969   0.00000  Uiso   1.00
C210   C     0.87523   0.16540   0.09235   0.00000  Uiso   1.00
C211   C     0.75004   0.19255   0.43110   0.00000  Uiso   1.00
C212   C     0.74126   0.20673   0.48178   0.00000  Uiso   1.00
C213   C     0.77312   0.19651   0.00982   0.00000  Uiso   1.00
C214   C     0.71420   0.04974   0.29482   0.00000  Uiso   1.00
C215   C     0.82403   0.15710   0.43544   0.00000  Uiso   1.00
C216   C     0.67485   0.01657   0.31006   0.00000  Uiso   1.00
C217   C     0.96407   0.03163   0.35430   0.00000  Uiso   1.00
C218   C     0.94408   0.24663   0.34699   0.00000  Uiso   1.00
C219   C     0.94746   0.23144   0.39919   0.00000  Uiso   1.00
C220   C     0.96900   0.26415   0.42714   0.00000  Uiso   1.00
C221   C     0.97692   0.07353   0.19103   0.00000  Uiso   1.00
C222   C     0.68942   0.05504   0.15121   0.00000  Uiso   1.00
C223   C     0.68478   0.00863   0.14436   0.00000  Uiso   1.00
C224   C     0.99032   0.09372   0.47303   0.00000  Uiso   1.00
C225   C     0.68287   0.07758   0.01066   0.00000  Uiso   1.00
C226   C     0.84925   0.16204   0.01422   0.00000  Uiso   1.00
C227   C     0.69890   0.03279   0.49796   0.00000  Uiso   1.00
C228   C     0.89590   0.14564   0.48634   0.00000  Uiso   1.00
C229   C     0.90347   0.13065   0.43565   0.00000  Uiso   1.00
C230   C     0.86639   0.13301   0.41259   0.00000  Uiso   1.00
C231   C     0.83871   0.16862   0.06778   0.00000  Uiso   1.00
C232   C     0.92428   0.15856   0.06156   0.00000  Uiso   1.00
Cu233  Cu    0.78645   0.16666   0.25000   0.00000  Uiso   1.00
Cu234  Cu    0.88022   0.16667   0.25000   0.00000  Uiso   1.00
H235   H     0.90011   0.03762   0.27204   0.00000  Uiso   1.00
H236   H     0.87262   0.11712   0.37563   0.00000  Uiso   1.00
H237   H     0.90229   0.29641   0.26852   0.00000  Uiso   1.00
H238   H     0.69632   0.07943   0.29139   0.00000  Uiso   1.00
H239   H     0.73163   0.05462   0.32638   0.00000  Uiso   1.00
H240   H     0.99562   0.00781   0.27620   0.00000  Uiso   1.00
H241   H     0.69081   0.32225   0.32245   0.00000  Uiso   1.00
H242   H     0.97511   0.03789   0.38970   0.00000  Uiso   1.00
H243   H     0.93527   0.00780   0.36301   0.00000  Uiso   1.00
H244   H     0.94827   0.05999   0.34328   0.00000  Uiso   1.00
H245   H     0.91560   0.27120   0.35547   0.00000  Uiso   1.00
H246   H     0.75986   0.29502   0.24339   0.00000  Uiso   1.00
H247   H     0.97817   0.26151   0.32336   0.00000  Uiso   1.00
H248   H     0.91010   0.22364   0.42408   0.00000  Uiso   1.00
H249   H     0.97044   0.20317   0.39354   0.00000  Uiso   1.00
H250   H     0.67343   0.27196   0.40340   0.00000  Uiso   1.00
H251   H     0.97057   0.25222   0.46481   0.00000  Uiso   1.00
H252   H     0.94574   0.29235   0.43477   0.00000  Uiso   1.00
H253   H     0.94436   0.05757   0.18587   0.00000  Uiso   1.00
H254   H     0.97761   0.06731   0.23119   0.00000  Uiso   1.00
H255   H     0.69555   0.06975   0.11323   0.00000  Uiso   1.00
H256   H     0.72224   0.06054   0.16405   0.00000  Uiso   1.00
H257   H     0.69435   0.20846   0.31237   0.00000  Uiso   1.00
H258   H     0.67813   0.32663   0.18213   0.00000  Uiso   1.00
H259   H     0.71927   0.32940   0.11705   0.00000  Uiso   1.00
H260   H     0.98744   0.00171   0.12823   0.00000  Uiso   1.00
H261   H     0.68133   0.08843   0.43278   0.00000  Uiso   1.00
H262   H     0.95638   0.07547   0.47694   0.00000  Uiso   1.00
H263   H     0.71562   0.09663   0.00873   0.00000  Uiso   1.00
H264   H     0.99041   0.07974   0.05057   0.00000  Uiso   1.00
H265   H     0.99987   0.01303   0.00099   0.00000  Uiso   1.00
H266   H     0.71778   0.02200   0.02574   0.00000  Uiso   1.00
H267   H     0.72473   0.02977   0.45809   0.00000  Uiso   1.00
H268   H     0.72878   0.12468   0.18727   0.00000  Uiso   1.00
H269   H     0.93775   0.11648   0.41343   0.00000  Uiso   1.00
H270   H     0.80150   0.17511   0.09117   0.00000  Uiso   1.00
H271   H     0.72576   0.20264   0.40964   0.00000  Uiso   1.00
H272   H     0.76568   0.21047   0.04803   0.00000  Uiso   1.00
H273   H     0.71034   0.22705   0.49890   0.00000  Uiso   1.00
I274   I     0.98534   0.17303   0.08810   0.00000  Uiso   1.00
N275   N     0.71598   0.16666   0.24999   0.00000  Uiso   1.00
N276   N     0.95069   0.16669   0.24999   0.00000  Uiso   1.00
O277   O     0.79375   0.22678   0.25000   0.00000  Uiso   1.00
O278   O     0.92800   0.21481   0.31976   0.00000  Uiso   1.00
O279   O     0.97069   0.11568   0.18218   0.00000  Uiso   1.00
O280   O     0.98207   0.13672   0.48038   0.00000  Uiso   1.00
O281   O     0.87294   0.22679   0.25000   0.00000  Uiso   1.00
O282   O     0.77441   0.16665   0.32549   0.00000  Uiso   1.00
O283   O     0.85360   0.16666   0.32549   0.00000  Uiso   1.00
O284   O     0.79373   0.10654   0.24999   0.00000  Uiso   1.00
O285   O     0.87292   0.10655   0.24999   0.00000  Uiso   1.00
O286   O     0.81306   0.16667   0.17451   0.00000  Uiso   1.00
O287   O     0.89225   0.16668   0.17451   0.00000  Uiso   1.00
O288   O     0.74804   0.04017   0.24564   0.00000  Uiso   1.00
C289   C     0.16631   0.57927   0.25120   0.00000  Uiso   1.00
C290   C     0.12553   0.50255   0.40676   0.00000  Uiso   1.00
C291   C     0.20417   0.64554   0.26312   0.00000  Uiso   1.00
C292   C     0.14057   0.49903   0.34991   0.00000  Uiso   1.00
C293   C     0.20313   0.35477   0.26463   0.00000  Uiso   1.00
C294   C     0.16363   0.37605   0.25619   0.00000  Uiso   1.00
C295   C     0.12225   0.35405   0.25185   0.00000  Uiso   1.00
C296   C     0.12403   0.64482   0.24946   0.00000  Uiso   1.00
C297   C     0.16510   0.62381   0.25427   0.00000  Uiso   1.00
C298   C     0.29821   0.52492   0.28461   0.00000  Uiso   1.00
C299   C     0.01517   0.52389   0.28481   0.00000  Uiso   1.00
C300   C     0.14795   0.50443   0.48758   0.00000  Uiso   1.00
C301   C     0.03473   0.47583   0.21578   0.00000  Uiso   1.00
C302   C     0.31804   0.47411   0.21716   0.00000  Uiso   1.00
C303   C     0.16587   0.42070   0.25203   0.00000  Uiso   1.00
C304   C     0.19307   0.50063   0.14977   0.00000  Uiso   1.00
C305   C     0.26736   0.47836   0.00969   0.00000  Uiso   1.00
C306   C     0.20856   0.49874   0.09235   0.00000  Uiso   1.00
C307   C     0.08337   0.52588   0.43110   0.00000  Uiso   1.00
C308   C     0.07460   0.54007   0.48178   0.00000  Uiso   1.00
C309   C     0.10645   0.52984   0.00982   0.00000  Uiso   1.00
C310   C     0.04753   0.38307   0.29482   0.00000  Uiso   1.00
C311   C     0.15736   0.49043   0.43544   0.00000  Uiso   1.00
C312   C     0.00819   0.34990   0.31006   0.00000  Uiso   1.00
C313   C     0.29740   0.36496   0.35430   0.00000  Uiso   1.00
C314   C     0.27741   0.57996   0.34699   0.00000  Uiso   1.00
C315   C     0.28079   0.56477   0.39919   0.00000  Uiso   1.00
C316   C     0.30233   0.59748   0.42714   0.00000  Uiso   1.00
C317   C     0.31025   0.40686   0.19103   0.00000  Uiso   1.00
C318   C     0.02275   0.38837   0.15121   0.00000  Uiso   1.00
C319   C     0.01811   0.34197   0.14436   0.00000  Uiso   1.00
C320   C     0.32366   0.42705   0.47303   0.00000  Uiso   1.00
C321   C     0.01621   0.41091   0.01066   0.00000  Uiso   1.00
C322   C     0.18258   0.49537   0.01422   0.00000  Uiso   1.00
C323   C     0.03224   0.36613   0.49796   0.00000  Uiso   1.00
C324   C     0.22923   0.47897   0.48634   0.00000  Uiso   1.00
C325   C     0.23680   0.46398   0.43565   0.00000  Uiso   1.00
C326   C     0.19972   0.46634   0.41259   0.00000  Uiso   1.00
C327   C     0.17204   0.50195   0.06778   0.00000  Uiso   1.00
C328   C     0.25762   0.49189   0.06156   0.00000  Uiso   1.00
Cu329  Cu    0.11978   0.49999   0.25000   0.00000  Uiso   1.00
Cu330  Cu    0.21355   0.50001   0.25000   0.00000  Uiso   1.00
H331   H     0.23344   0.37096   0.27204   0.00000  Uiso   1.00
H332   H     0.20596   0.45046   0.37563   0.00000  Uiso   1.00
H333   H     0.23563   0.62975   0.26852   0.00000  Uiso   1.00
H334   H     0.02965   0.41276   0.29139   0.00000  Uiso   1.00
H335   H     0.06496   0.38795   0.32638   0.00000  Uiso   1.00
H336   H     0.32895   0.34115   0.27620   0.00000  Uiso   1.00
H337   H     0.02415   0.65559   0.32245   0.00000  Uiso   1.00
H338   H     0.30844   0.37122   0.38970   0.00000  Uiso   1.00
H339   H     0.26860   0.34113   0.36301   0.00000  Uiso   1.00
H340   H     0.28160   0.39332   0.34328   0.00000  Uiso   1.00
H341   H     0.24893   0.60453   0.35547   0.00000  Uiso   1.00
H342   H     0.09319   0.62836   0.24339   0.00000  Uiso   1.00
H343   H     0.31150   0.59485   0.32336   0.00000  Uiso   1.00
H344   H     0.24343   0.55697   0.42408   0.00000  Uiso   1.00
H345   H     0.30377   0.53650   0.39354   0.00000  Uiso   1.00
H346   H     0.00676   0.60530   0.40340   0.00000  Uiso   1.00
H347   H     0.30390   0.58555   0.46481   0.00000  Uiso   1.00
H348   H     0.27907   0.62569   0.43477   0.00000  Uiso   1.00
H349   H     0.27770   0.39090   0.18587   0.00000  Uiso   1.00
H350   H     0.31095   0.40064   0.23119   0.00000  Uiso   1.00
H351   H     0.02888   0.40309   0.11323   0.00000  Uiso   1.00
H352   H     0.05557   0.39387   0.16405   0.00000  Uiso   1.00
H353   H     0.02769   0.54179   0.31237   0.00000  Uiso   1.00
H354   H     0.01147   0.65996   0.18213   0.00000  Uiso   1.00
H355   H     0.05260   0.66274   0.11705   0.00000  Uiso   1.00
H356   H     0.32077   0.33504   0.12823   0.00000  Uiso   1.00
H357   H     0.01467   0.42176   0.43278   0.00000  Uiso   1.00
H358   H     0.28971   0.40881   0.47694   0.00000  Uiso   1.00
H359   H     0.04895   0.42997   0.00873   0.00000  Uiso   1.00
H360   H     0.32374   0.41307   0.05057   0.00000  Uiso   1.00
H361   H     0.33320   0.34636   0.00099   0.00000  Uiso   1.00
H362   H     0.05111   0.35533   0.02574   0.00000  Uiso   1.00
H363   H     0.05806   0.36311   0.45809   0.00000  Uiso   1.00
H364   H     0.06211   0.45801   0.18727   0.00000  Uiso   1.00
H365   H     0.27108   0.44982   0.41343   0.00000  Uiso   1.00
H366   H     0.13484   0.50844   0.09117   0.00000  Uiso   1.00
H367   H     0.05909   0.53597   0.40964   0.00000  Uiso   1.00
H368   H     0.09901   0.54381   0.04803   0.00000  Uiso   1.00
H369   H     0.04368   0.56038   0.49890   0.00000  Uiso   1.00
I370   I     0.31867   0.50636   0.08810   0.00000  Uiso   1.00
N371   N     0.04931   0.49999   0.24999   0.00000  Uiso   1.00
N372   N     0.28402   0.50002   0.24999   0.00000  Uiso   1.00
O373   O     0.12708   0.56011   0.25000   0.00000  Uiso   1.00
O374   O     0.26133   0.54815   0.31976   0.00000  Uiso   1.00
O375   O     0.30402   0.44901   0.18218   0.00000  Uiso   1.00
O376   O     0.31540   0.47006   0.48038   0.00000  Uiso   1.00
O377   O     0.20627   0.56012   0.25000   0.00000  Uiso   1.00
O378   O     0.10775   0.49998   0.32549   0.00000  Uiso   1.00
O379   O     0.18694   0.49999   0.32549   0.00000  Uiso   1.00
O380   O     0.12706   0.43988   0.24999   0.00000  Uiso   1.00
O381   O     0.20625   0.43989   0.24999   0.00000  Uiso   1.00
O382   O     0.14640   0.50001   0.17451   0.00000  Uiso   1.00
O383   O     0.22559   0.50002   0.17451   0.00000  Uiso   1.00
O384   O     0.08138   0.37351   0.24564   0.00000  Uiso   1.00
C385   C     0.49964   0.57927   0.25120   0.00000  Uiso   1.00
C386   C     0.45886   0.50255   0.40676   0.00000  Uiso   1.00
C387   C     0.53751   0.64554   0.26312   0.00000  Uiso   1.00
C388   C     0.47390   0.49903   0.34991   0.00000  Uiso   1.00
C389   C     0.53647   0.35477   0.26463   0.00000  Uiso   1.00
C390   C     0.49697   0.37605   0.25619   0.00000  Uiso   1.00
C391   C     0.45559   0.35405   0.25185   0.00000  Uiso   1.00
C392   C     0.45737   0.64482   0.24946   0.00000  Uiso   1.00
C393   C     0.49843   0.62381   0.25427   0.00000  Uiso   1.00
C394   C     0.63154   0.52492   0.28461   0.00000  Uiso   1.00
C395   C     0.34850   0.52389   0.28481   0.00000  Uiso   1.00
C396   C     0.48128   0.50443   0.48758   0.00000  Uiso   1.00
C397   C     0.36807   0.47583   0.21578   0.00000  Uiso   1.00
C398   C     0.65137   0.47411   0.21716   0.00000  Uiso   1.00
C399   C     0.49920   0.42070   0.25203   0.00000  Uiso   1.00
C400   C     0.52641   0.50063   0.14977   0.00000  Uiso   1.00
C401   C     0.60069   0.47836   0.00969   0.00000  Uiso   1.00
C402   C     0.54189   0.49874   0.09235   0.00000  Uiso   1.00
C403   C     0.41670   0.52588   0.43110   0.00000  Uiso   1.00
C404   C     0.40793   0.54007   0.48178   0.00000  Uiso   1.00
C405   C     0.43978   0.52984   0.00982   0.00000  Uiso   1.00
C406   C     0.38087   0.38307   0.29482   0.00000  Uiso   1.00
C407   C     0.49070   0.49043   0.43544   0.00000  Uiso   1.00
C408   C     0.34152   0.34990   0.31006   0.00000  Uiso   1.00
C409   C     0.63073   0.36496   0.35430   0.00000  Uiso   1.00
C410   C     0.61074   0.57996   0.34699   0.00000  Uiso   1.00
C411   C     0.61412   0.56477   0.39919   0.00000  Uiso   1.00
C412   C     0.63566   0.59748   0.42714   0.00000  Uiso   1.00
C413   C     0.64359   0.40686   0.19103   0.00000  Uiso   1.00
C414   C     0.35609   0.38837   0.15121   0.00000  Uiso   1.00
C415   C     0.35145   0.34197   0.14436   0.00000  Uiso   1.00
C416   C     0.65699   0.42705   0.47303   0.00000  Uiso   1.00
C417   C     0.34954   0.41091   0.01066   0.00000  Uiso   1.00
C418   C     0.51591   0.49537   0.01422   0.00000  Uiso   1.00
C419   C     0.36557   0.36613   0.49796   0.00000  Uiso   1.00
C420   C     0.56256   0.47897   0.48634   0.00000  Uiso   1.00
C421   C     0.57014   0.46398   0.43565   0.00000  Uiso   1.00
C422   C     0.53305   0.46634   0.41259   0.00000  Uiso   1.00
C423   C     0.50538   0.50195   0.06778   0.00000  Uiso   1.00
C424   C     0.59095   0.49189   0.06156   0.00000  Uiso   1.00
Cu425  Cu    0.45311   0.49999   0.25000   0.00000  Uiso   1.00
Cu426  Cu    0.54689   0.50001   0.25000   0.00000  Uiso   1.00
H427   H     0.56677   0.37096   0.27204   0.00000  Uiso   1.00
H428   H     0.53929   0.45046   0.37563   0.00000  Uiso   1.00
H429   H     0.56896   0.62975   0.26852   0.00000  Uiso   1.00
H430   H     0.36298   0.41276   0.29139   0.00000  Uiso   1.00
H431   H     0.39829   0.38795   0.32638   0.00000  Uiso   1.00
H432   H     0.66228   0.34115   0.27620   0.00000  Uiso   1.00
H433   H     0.35748   0.65559   0.32245   0.00000  Uiso   1.00
H434   H     0.64178   0.37122   0.38970   0.00000  Uiso   1.00
H435   H     0.60193   0.34113   0.36301   0.00000  Uiso   1.00
H436   H     0.61493   0.39332   0.34328   0.00000  Uiso   1.00
H437   H     0.58227   0.60453   0.35547   0.00000  Uiso   1.00
H438   H     0.42653   0.62836   0.24339   0.00000  Uiso   1.00
H439   H     0.64483   0.59485   0.32336   0.00000  Uiso   1.00
H440   H     0.57676   0.55697   0.42408   0.00000  Uiso   1.00
H441   H     0.63710   0.53650   0.39354   0.00000  Uiso   1.00
H442   H     0.34009   0.60530   0.40340   0.00000  Uiso   1.00
H443   H     0.63723   0.58555   0.46481   0.00000  Uiso   1.00
H444   H     0.61241   0.62569   0.43477   0.00000  Uiso   1.00
H445   H     0.61103   0.39090   0.18587   0.00000  Uiso   1.00
H446   H     0.64428   0.40064   0.23119   0.00000  Uiso   1.00
H447   H     0.36221   0.40309   0.11323   0.00000  Uiso   1.00
H448   H     0.38890   0.39387   0.16405   0.00000  Uiso   1.00
H449   H     0.36102   0.54179   0.31237   0.00000  Uiso   1.00
H450   H     0.34480   0.65996   0.18213   0.00000  Uiso   1.00
H451   H     0.38594   0.66274   0.11705   0.00000  Uiso   1.00
H452   H     0.65411   0.33504   0.12823   0.00000  Uiso   1.00
H453   H     0.34800   0.42176   0.43278   0.00000  Uiso   1.00
H454   H     0.62304   0.40881   0.47694   0.00000  Uiso   1.00
H455   H     0.38229   0.42997   0.00873   0.00000  Uiso   1.00
H456   H     0.65708   0.41307   0.05057   0.00000  Uiso   1.00
H457   H     0.66653   0.34636   0.00099   0.00000  Uiso   1.00
H458   H     0.38445   0.35533   0.02574   0.00000  Uiso   1.00
H459   H     0.39140   0.36311   0.45809   0.00000  Uiso   1.00
H460   H     0.39544   0.45801   0.18727   0.00000  Uiso   1.00
H461   H     0.60442   0.44982   0.41343   0.00000  Uiso   1.00
H462   H     0.46817   0.50844   0.09117   0.00000  Uiso   1.00
H463   H     0.39243   0.53597   0.40964   0.00000  Uiso   1.00
H464   H     0.43234   0.54381   0.04803   0.00000  Uiso   1.00
H465   H     0.37701   0.56038   0.49890   0.00000  Uiso   1.00
I466   I     0.65201   0.50636   0.08810   0.00000  Uiso   1.00
N467   N     0.38265   0.49999   0.24999   0.00000  Uiso   1.00
N468   N     0.61735   0.50002   0.24999   0.00000  Uiso   1.00
O469   O     0.46042   0.56011   0.25000   0.00000  Uiso   1.00
O470   O     0.59466   0.54815   0.31976   0.00000  Uiso   1.00
O471   O     0.63735   0.44901   0.18218   0.00000  Uiso   1.00
O472   O     0.64873   0.47006   0.48038   0.00000  Uiso   1.00
O473   O     0.53961   0.56012   0.25000   0.00000  Uiso   1.00
O474   O     0.44108   0.49998   0.32549   0.00000  Uiso   1.00
O475   O     0.52027   0.49999   0.32549   0.00000  Uiso   1.00
O476   O     0.46039   0.43988   0.24999   0.00000  Uiso   1.00
O477   O     0.53958   0.43989   0.24999   0.00000  Uiso   1.00
O478   O     0.47973   0.50001   0.17451   0.00000  Uiso   1.00
O479   O     0.55892   0.50002   0.17451   0.00000  Uiso   1.00
O480   O     0.41471   0.37351   0.24564   0.00000  Uiso   1.00
C481   C     0.83297   0.57927   0.25120   0.00000  Uiso   1.00
C482   C     0.79219   0.50255   0.40676   0.00000  Uiso   1.00
C483   C     0.87084   0.64554   0.26312   0.00000  Uiso   1.00
C484   C     0.80723   0.49903   0.34991   0.00000  Uiso   1.00
C485   C     0.86980   0.35477   0.26463   0.00000  Uiso   1.00
C486   C     0.83030   0.37605   0.25619   0.00000  Uiso   1.00
C487   C     0.78892   0.35405   0.25185   0.00000  Uiso   1.00
C488   C     0.79070   0.64482   0.24946   0.00000  Uiso   1.00
C489   C     0.83177   0.62381   0.25427   0.00000  Uiso   1.00
C490   C     0.96487   0.52492   0.28461   0.00000  Uiso   1.00
C491   C     0.68183   0.52389   0.28481   0.00000  Uiso   1.00
C492   C     0.81462   0.50443   0.48758   0.00000  Uiso   1.00
C493   C     0.70140   0.47583   0.21578   0.00000  Uiso   1.00
C494   C     0.98470   0.47411   0.21716   0.00000  Uiso   1.00
C495   C     0.83254   0.42070   0.25203   0.00000  Uiso   1.00
C496   C     0.85974   0.50063   0.14977   0.00000  Uiso   1.00
C497   C     0.93402   0.47836   0.00969   0.00000  Uiso   1.00
C498   C     0.87523   0.49874   0.09235   0.00000  Uiso   1.00
C499   C     0.75004   0.52588   0.43110   0.00000  Uiso   1.00
C500   C     0.74126   0.54007   0.48178   0.00000  Uiso   1.00
C501   C     0.77312   0.52984   0.00982   0.00000  Uiso   1.00
C502   C     0.71420   0.38307   0.29482   0.00000  Uiso   1.00
C503   C     0.82403   0.49043   0.43544   0.00000  Uiso   1.00
C504   C     0.67485   0.34990   0.31006   0.00000  Uiso   1.00
C505   C     0.96407   0.36496   0.35430   0.00000  Uiso   1.00
C506   C     0.94408   0.57996   0.34699   0.00000  Uiso   1.00
C507   C     0.94746   0.56477   0.39919   0.00000  Uiso   1.00
C508   C     0.96900   0.59748   0.42714   0.00000  Uiso   1.00
C509   C     0.97692   0.40686   0.19103   0.00000  Uiso   1.00
C510   C     0.68942   0.38837   0.15121   0.00000  Uiso   1.00
C511   C     0.68478   0.34197   0.14436   0.00000  Uiso   1.00
C512   C     0.99032   0.42705   0.47303   0.00000  Uiso   1.00
C513   C     0.68287   0.41091   0.01066   0.00000  Uiso   1.00
C514   C     0.84925   0.49537   0.01422   0.00000  Uiso   1.00
C515   C     0.69890   0.36613   0.49796   0.00000  Uiso   1.00
C516   C     0.89590   0.47897   0.48634   0.00000  Uiso   1.00
C517   C     0.90347   0.46398   0.43565   0.00000  Uiso   1.00
C518   C     0.86639   0.46634   0.41259   0.00000  Uiso   1.00
C519   C     0.83871   0.50195   0.06778   0.00000  Uiso   1.00
C520   C     0.92428   0.49189   0.06156   0.00000  Uiso   1.00
Cu521  Cu    0.78645   0.49999   0.25000   0.00000  Uiso   1.00
Cu522  Cu    0.88022   0.50001   0.25000   0.00000  Uiso   1.00
H523   H     0.90011   0.37096   0.27204   0.00000  Uiso   1.00
H524   H     0.87262   0.45046   0.37563   0.00000  Uiso   1.00
H525   H     0.90229   0.62975   0.26852   0.00000  Uiso   1.00
H526   H     0.69632   0.41276   0.29139   0.00000  Uiso   1.00
H527   H     0.73163   0.38795   0.32638   0.00000  Uiso   1.00
H528   H     0.99562   0.34115   0.27620   0.00000  Uiso   1.00
H529   H     0.69081   0.65559   0.32245   0.00000  Uiso   1.00
H530   H     0.97511   0.37122   0.38970   0.00000  Uiso   1.00
H531   H     0.93527   0.34113   0.36301   0.00000  Uiso   1.00
H532   H     0.94827   0.39332   0.34328   0.00000  Uiso   1.00
H533   H     0.91560   0.60453   0.35547   0.00000  Uiso   1.00
H534   H     0.75986   0.62836   0.24339   0.00000  Uiso   1.00
H535   H     0.97817   0.59485   0.32336   0.00000  Uiso   1.00
H536   H     0.91010   0.55697   0.42408   0.00000  Uiso   1.00
H537   H     0.97044   0.53650   0.39354   0.00000  Uiso   1.00
H538   H     0.67343   0.60530   0.40340   0.00000  Uiso   1.00
H539   H     0.97057   0.58555   0.46481   0.00000  Uiso   1.00
H540   H     0.94574   0.62569   0.43477   0.00000  Uiso   1.00
H541   H     0.94436   0.39090   0.18587   0.00000  Uiso   1.00
H542   H     0.97761   0.40064   0.23119   0.00000  Uiso   1.00
H543   H     0.69555   0.40309   0.11323   0.00000  Uiso   1.00
H544   H     0.72224   0.39387   0.16405   0.00000  Uiso   1.00
H545   H     0.69435   0.54179   0.31237   0.00000  Uiso   1.00
H546   H     0.67813   0.65996   0.18213   0.00000  Uiso   1.00
H547   H     0.71927   0.66274   0.11705   0.00000  Uiso   1.00
H548   H     0.98744   0.33504   0.12823   0.00000  Uiso   1.00
H549   H     0.68133   0.42176   0.43278   0.00000  Uiso   1.00
H550   H     0.95638   0.40881   0.47694   0.00000  Uiso   1.00
H551   H     0.71562   0.42997   0.00873   0.00000  Uiso   1.00
H552   H     0.99041   0.41307   0.05057   0.00000  Uiso   1.00
H553   H     0.99987   0.34636   0.00099   0.00000  Uiso   1.00
H554   H     0.71778   0.35533   0.02574   0.00000  Uiso   1.00
H555   H     0.72473   0.36311   0.45809   0.00000  Uiso   1.00
H556   H     0.72878   0.45801   0.18727   0.00000  Uiso   1.00
H557   H     0.93775   0.44982   0.41343   0.00000  Uiso   1.00
H558   H     0.80150   0.50844   0.09117   0.00000  Uiso   1.00
H559   H     0.72576   0.53597   0.40964   0.00000  Uiso   1.00
H560   H     0.76568   0.54381   0.04803   0.00000  Uiso   1.00
H561   H     0.71034   0.56038   0.49890   0.00000  Uiso   1.00
I562   I     0.98534   0.50636   0.08810   0.00000  Uiso   1.00
N563   N     0.71598   0.49999   0.24999   0.00000  Uiso   1.00
N564   N     0.95069   0.50002   0.24999   0.00000  Uiso   1.00
O565   O     0.79375   0.56011   0.25000   0.00000  Uiso   1.00
O566   O     0.92800   0.54815   0.31976   0.00000  Uiso   1.00
O567   O     0.97069   0.44901   0.18218   0.00000  Uiso   1.00
O568   O     0.98207   0.47006   0.48038   0.00000  Uiso   1.00
O569   O     0.87294   0.56012   0.25000   0.00000  Uiso   1.00
O570   O     0.77441   0.49998   0.32549   0.00000  Uiso   1.00
O571   O     0.85360   0.49999   0.32549   0.00000  Uiso   1.00
O572   O     0.79373   0.43988   0.24999   0.00000  Uiso   1.00
O573   O     0.87292   0.43989   0.24999   0.00000  Uiso   1.00
O574   O     0.81306   0.50001   0.17451   0.00000  Uiso   1.00
O575   O     0.89225   0.50002   0.17451   0.00000  Uiso   1.00
O576   O     0.74804   0.37351   0.24564   0.00000  Uiso   1.00
C577   C     0.16631   0.91260   0.25120   0.00000  Uiso   1.00
C578   C     0.12553   0.83588   0.40676   0.00000  Uiso   1.00
C579   C     0.20417   0.97887   0.26312   0.00000  Uiso   1.00
C580   C     0.14057   0.83236   0.34991   0.00000  Uiso   1.00
C581   C     0.20313   0.68811   0.26463   0.00000  Uiso   1.00
C582   C     0.16363   0.70938   0.25619   0.00000  Uiso   1.00
C583   C     0.12225   0.68738   0.25185   0.00000  Uiso   1.00
C584   C     0.12403   0.97815   0.24946   0.00000  Uiso   1.00
C585   C     0.16510   0.95715   0.25427   0.00000  Uiso   1.00
C586   C     0.29821   0.85825   0.28461   0.00000  Uiso   1.00
C587   C     0.01517   0.85723   0.28481   0.00000  Uiso   1.00
C588   C     0.14795   0.83777   0.48758   0.00000  Uiso   1.00
C589   C     0.03473   0.80916   0.21578   0.00000  Uiso   1.00
C590   C     0.31804   0.80745   0.21716   0.00000  Uiso   1.00
C591   C     0.16587   0.75403   0.25203   0.00000  Uiso   1.00
C592   C     0.19307   0.83396   0.14977   0.00000  Uiso   1.00
C593   C     0.26736   0.81169   0.00969   0.00000  Uiso   1.00
C594   C     0.20856   0.83207   0.09235   0.00000  Uiso   1.00
C595   C     0.08337   0.85922   0.43110   0.00000  Uiso   1.00
C596   C     0.07460   0.87340   0.48178   0.00000  Uiso   1.00
C597   C     0.10645   0.86318   0.00982   0.00000  Uiso   1.00
C598   C     0.04753   0.71641   0.29482   0.00000  Uiso   1.00
C599   C     0.15736   0.82377   0.43544   0.00000  Uiso   1.00
C600   C     0.00819   0.68324   0.31006   0.00000  Uiso   1.00
C601   C     0.29740   0.69830   0.35430   0.00000  Uiso   1.00
C602   C     0.27741   0.91330   0.34699   0.00000  Uiso   1.00
C603   C     0.28079   0.89811   0.39919   0.00000  Uiso   1.00
C604   C     0.30233   0.93081   0.42714   0.00000  Uiso   1.00
C605   C     0.31025   0.74020   0.19103   0.00000  Uiso   1.00
C606   C     0.02275   0.72171   0.15121   0.00000  Uiso   1.00
C607   C     0.01811   0.67530   0.14436   0.00000  Uiso   1.00
C608   C     0.32366   0.76038   0.47303   0.00000  Uiso   1.00
C609   C     0.01621   0.74425   0.01066   0.00000  Uiso   1.00
C610   C     0.18258   0.82870   0.01422   0.00000  Uiso   1.00
C611   C     0.03224   0.69946   0.49796   0.00000  Uiso   1.00
C612   C     0.22923   0.81230   0.48634   0.00000  Uiso   1.00
C613   C     0.23680   0.79731   0.43565   0.00000  Uiso   1.00
C614   C     0.19972   0.79968   0.41259   0.00000  Uiso   1.00
C615   C     0.17204   0.83528   0.06778   0.00000  Uiso   1.00
C616   C     0.25762   0.82522   0.06156   0.00000  Uiso   1.00
Cu617  Cu    0.11978   0.83333   0.25000   0.00000  Uiso   1.00
Cu618  Cu    0.21355   0.83334   0.25000   0.00000  Uiso   1.00
H619   H     0.23344   0.70429   0.27204   0.00000  Uiso   1.00
H620   H     0.20596   0.78379   0.37563   0.00000  Uiso   1.00
H621   H     0.23563   0.96308   0.26852   0.00000  Uiso   1.00
H622   H     0.02965   0.74610   0.29139   0.00000  Uiso   1.00
H623   H     0.06496   0.72128   0.32638   0.00000  Uiso   1.00
H624   H     0.32895   0.67448   0.27620   0.00000  Uiso   1.00
H625   H     0.02415   0.98892   0.32245   0.00000  Uiso   1.00
H626   H     0.30844   0.70455   0.38970   0.00000  Uiso   1.00
H627   H     0.26860   0.67447   0.36301   0.00000  Uiso   1.00
H628   H     0.28160   0.72665   0.34328   0.00000  Uiso   1.00
H629   H     0.24893   0.93787   0.35547   0.00000  Uiso   1.00
H630   H     0.09319   0.96169   0.24339   0.00000  Uiso   1.00
H631   H     0.31150   0.92818   0.32336   0.00000  Uiso   1.00
H632   H     0.24343   0.89030   0.42408   0.00000  Uiso   1.00
H633   H     0.30377   0.86983   0.39354   0.00000  Uiso   1.00
H634   H     0.00676   0.93863   0.40340   0.00000  Uiso   1.00
H635   H     0.30390   0.91889   0.46481   0.00000  Uiso   1.00
H636   H     0.27907   0.95902   0.43477   0.00000  Uiso   1.00
H637   H     0.27770   0.72423   0.18587   0.00000  Uiso   1.00
H638   H     0.31095   0.73397   0.23119   0.00000  Uiso   1.00
H639   H     0.02888   0.73642   0.11323   0.00000  Uiso   1.00
H640   H     0.05557   0.72721   0.16405   0.00000  Uiso   1.00
H641   H     0.02769   0.87513   0.31237   0.00000  Uiso   1.00
H642   H     0.01147   0.99329   0.18213   0.00000  Uiso   1.00
H643   H     0.05260   0.99607   0.11705   0.00000  Uiso   1.00
H644   H     0.32077   0.66837   0.12823   0.00000  Uiso   1.00
H645   H     0.01467   0.75509   0.43278   0.00000  Uiso   1.00
H646   H     0.28971   0.74214   0.47694   0.00000  Uiso   1.00
H647   H     0.04895   0.76330   0.00873   0.00000  Uiso   1.00
H648   H     0.32374   0.74640   0.05057   0.00000  Uiso   1.00
H649   H     0.33320   0.67970   0.00099   0.00000  Uiso   1.00
H650   H     0.05111   0.68866   0.02574   0.00000  Uiso   1.00
H651   H     0.05806   0.69644   0.45809   0.00000  Uiso   1.00
H652   H     0.06211   0.79134   0.18727   0.00000  Uiso   1.00
H653   H     0.27108   0.78315   0.41343   0.00000  Uiso   1.00
H654   H     0.13484   0.84178   0.09117   0.00000  Uiso   1.00
H655   H     0.05909   0.86931   0.40964   0.00000  Uiso   1.00
H656   H     0.09901   0.87714   0.04803   0.00000  Uiso   1.00
H657   H     0.04368   0.89372   0.49890   0.00000  Uiso   1.00
I658   I     0.31867   0.83970   0.08810   0.00000  Uiso   1.00
N659   N     0.04931   0.83332   0.24999   0.00000  Uiso   1.00
N660   N     0.28402   0.83335   0.24999   0.00000  Uiso   1.00
O661   O     0.12708   0.89345   0.25000   0.00000  Uiso   1.00
O662   O     0.26133   0.88148   0.31976   0.00000  Uiso   1.00
O663   O     0.30402   0.78235   0.18218   0.00000  Uiso   1.00
O664   O     0.31540   0.80339   0.48038   0.00000  Uiso   1.00
O665   O     0.20627   0.89346   0.25000   0.00000  Uiso   1.00
O666   O     0.10775   0.83332   0.32549   0.00000  Uiso   1.00
O667   O     0.18694   0.83333   0.32549   0.00000  Uiso   1.00
O668   O     0.12706   0.77321   0.24999   0.00000  Uiso   1.00
O669   O     0.20625   0.77322   0.24999   0.00000  Uiso   1.00
O670   O     0.14640   0.83334   0.17451   0.00000  Uiso   1.00
O671   O     0.22559   0.83335   0.17451   0.00000  Uiso   1.00
O672   O     0.08138   0.70684   0.24564   0.00000  Uiso   1.00
C673   C     0.49964   0.91260   0.25120   0.00000  Uiso   1.00
C674   C     0.45886   0.83588   0.40676   0.00000  Uiso   1.00
C675   C     0.53751   0.97887   0.26312   0.00000  Uiso   1.00
C676   C     0.47390   0.83236   0.34991   0.00000  Uiso   1.00
C677   C     0.53647   0.68811   0.26463   0.00000  Uiso   1.00
C678   C     0.49697   0.70938   0.25619   0.00000  Uiso   1.00
C679   C     0.45559   0.68738   0.25185   0.00000  Uiso   1.00
C680   C     0.45737   0.97815   0.24946   0.00000  Uiso   1.00
C681   C     0.49843   0.95715   0.25427   0.00000  Uiso   1.00
C682   C     0.63154   0.85825   0.28461   0.00000  Uiso   1.00
C683   C     0.34850   0.85723   0.28481   0.00000  Uiso   1.00
C684   C     0.48128   0.83777   0.48758   0.00000  Uiso   1.00
C685   C     0.36807   0.80916   0.21578   0.00000  Uiso   1.00
C686   C     0.65137   0.80745   0.21716   0.00000  Uiso   1.00
C687   C     0.49920   0.75403   0.25203   0.00000  Uiso   1.00
C688   C     0.52641   0.83396   0.14977   0.00000  Uiso   1.00
C689   C     0.60069   0.81169   0.00969   0.00000  Uiso   1.00
C690   C     0.54189   0.83207   0.09235   0.00000  Uiso   1.00
C691   C     0.41670   0.85922   0.43110   0.00000  Uiso   1.00
C692   C     0.40793   0.87340   0.48178   0.00000  Uiso   1.00
C693   C     0.43978   0.86318   0.00982   0.00000  Uiso   1.00
C694   C     0.38087   0.71641   0.29482   0.00000  Uiso   1.00
C695   C     0.49070   0.82377   0.43544   0.00000  Uiso   1.00
C696   C     0.34152   0.68324   0.31006   0.00000  Uiso   1.00
C697   C     0.63073   0.69830   0.35430   0.00000  Uiso   1.00
C698   C     0.61074   0.91330   0.34699   0.00000  Uiso   1.00
C699   C     0.61412   0.89811   0.39919   0.00000  Uiso   1.00
C700   C     0.63566   0.93081   0.42714   0.00000  Uiso   1.00
C701   C     0.64359   0.74020   0.19103   0.00000  Uiso   1.00
C702   C     0.35609   0.72171   0.15121   0.00000  Uiso   1.00
C703   C     0.35145   0.67530   0.14436   0.00000  Uiso   1.00
C704   C     0.65699   0.76038   0.47303   0.00000  Uiso   1.00
C705   C     0.34954   0.74425   0.01066   0.00000  Uiso   1.00
C706   C     0.51591   0.82870   0.01422   0.00000  Uiso   1.00
C707   C     0.36557   0.69946   0.49796   0.00000  Uiso   1.00
C708   C     0.56256   0.81230   0.48634   0.00000  Uiso   1.00
C709   C     0.57014   0.79731   0.43565   0.00000  Uiso   1.00
C710   C     0.53305   0.79968   0.41259   0.00000  Uiso   1.00
C711   C     0.50538   0.83528   0.06778   0.00000  Uiso   1.00
C712   C     0.59095   0.82522   0.06156   0.00000  Uiso   1.00
Cu713  Cu    0.45311   0.83333   0.25000   0.00000  Uiso   1.00
Cu714  Cu    0.54689   0.83334   0.25000   0.00000  Uiso   1.00
H715   H     0.56677   0.70429   0.27204   0.00000  Uiso   1.00
H716   H     0.53929   0.78379   0.37563   0.00000  Uiso   1.00
H717   H     0.56896   0.96308   0.26852   0.00000  Uiso   1.00
H718   H     0.36298   0.74610   0.29139   0.00000  Uiso   1.00
H719   H     0.39829   0.72128   0.32638   0.00000  Uiso   1.00
H720   H     0.66228   0.67448   0.27620   0.00000  Uiso   1.00
H721   H     0.35748   0.98892   0.32245   0.00000  Uiso   1.00
H722   H     0.64178   0.70455   0.38970   0.00000  Uiso   1.00
H723   H     0.60193   0.67447   0.36301   0.00000  Uiso   1.00
H724   H     0.61493   0.72665   0.34328   0.00000  Uiso   1.00
H725   H     0.58227   0.93787   0.35547   0.00000  Uiso   1.00
H726   H     0.42653   0.96169   0.24339   0.00000  Uiso   1.00
H727   H     0.64483   0.92818   0.32336   0.00000  Uiso   1.00
H728   H     0.57676   0.89030   0.42408   0.00000  Uiso   1.00
H729   H     0.63710   0.86983   0.39354   0.00000  Uiso   1.00
H730   H     0.34009   0.93863   0.40340   0.00000  Uiso   1.00
H731   H     0.63723   0.91889   0.46481   0.00000  Uiso   1.00
H732   H     0.61241   0.95902   0.43477   0.00000  Uiso   1.00
H733   H     0.61103   0.72423   0.18587   0.00000  Uiso   1.00
H734   H     0.64428   0.73397   0.23119   0.00000  Uiso   1.00
H735   H     0.36221   0.73642   0.11323   0.00000  Uiso   1.00
H736   H     0.38890   0.72721   0.16405   0.00000  Uiso   1.00
H737   H     0.36102   0.87513   0.31237   0.00000  Uiso   1.00
H738   H     0.34480   0.99329   0.18213   0.00000  Uiso   1.00
H739   H     0.38594   0.99607   0.11705   0.00000  Uiso   1.00
H740   H     0.65411   0.66837   0.12823   0.00000  Uiso   1.00
H741   H     0.34800   0.75509   0.43278   0.00000  Uiso   1.00
H742   H     0.62304   0.74214   0.47694   0.00000  Uiso   1.00
H743   H     0.38229   0.76330   0.00873   0.00000  Uiso   1.00
H744   H     0.65708   0.74640   0.05057   0.00000  Uiso   1.00
H745   H     0.66653   0.67970   0.00099   0.00000  Uiso   1.00
H746   H     0.38445   0.68866   0.02574   0.00000  Uiso   1.00
H747   H     0.39140   0.69644   0.45809   0.00000  Uiso   1.00
H748   H     0.39544   0.79134   0.18727   0.00000  Uiso   1.00
H749   H     0.60442   0.78315   0.41343   0.00000  Uiso   1.00
H750   H     0.46817   0.84178   0.09117   0.00000  Uiso   1.00
H751   H     0.39243   0.86931   0.40964   0.00000  Uiso   1.00
H752   H     0.43234   0.87714   0.04803   0.00000  Uiso   1.00
H753   H     0.37701   0.89372   0.49890   0.00000  Uiso   1.00
I754   I     0.65201   0.83970   0.08810   0.00000  Uiso   1.00
N755   N     0.38265   0.83332   0.24999   0.00000  Uiso   1.00
N756   N     0.61735   0.83335   0.24999   0.00000  Uiso   1.00
O757   O     0.46042   0.89345   0.25000   0.00000  Uiso   1.00
O758   O     0.59466   0.88148   0.31976   0.00000  Uiso   1.00
O759   O     0.63735   0.78235   0.18218   0.00000  Uiso   1.00
O760   O     0.64873   0.80339   0.48038   0.00000  Uiso   1.00
O761   O     0.53961   0.89346   0.25000   0.00000  Uiso   1.00
O762   O     0.44108   0.83332   0.32549   0.00000  Uiso   1.00
O763   O     0.52027   0.83333   0.32549   0.00000  Uiso   1.00
O764   O     0.46039   0.77321   0.24999   0.00000  Uiso   1.00
O765   O     0.53958   0.77322   0.24999   0.00000  Uiso   1.00
O766   O     0.47973   0.83334   0.17451   0.00000  Uiso   1.00
O767   O     0.55892   0.83335   0.17451   0.00000  Uiso   1.00
O768   O     0.41471   0.70684   0.24564   0.00000  Uiso   1.00
C769   C     0.83297   0.91260   0.25120   0.00000  Uiso   1.00
C770   C     0.79219   0.83588   0.40676   0.00000  Uiso   1.00
C771   C     0.87084   0.97887   0.26312   0.00000  Uiso   1.00
C772   C     0.80723   0.83236   0.34991   0.00000  Uiso   1.00
C773   C     0.86980   0.68811   0.26463   0.00000  Uiso   1.00
C774   C     0.83030   0.70938   0.25619   0.00000  Uiso   1.00
C775   C     0.78892   0.68738   0.25185   0.00000  Uiso   1.00
C776   C     0.79070   0.97815   0.24946   0.00000  Uiso   1.00
C777   C     0.83177   0.95715   0.25427   0.00000  Uiso   1.00
C778   C     0.96487   0.85825   0.28461   0.00000  Uiso   1.00
C779   C     0.68183   0.85723   0.28481   0.00000  Uiso   1.00
C780   C     0.81462   0.83777   0.48758   0.00000  Uiso   1.00
C781   C     0.70140   0.80916   0.21578   0.00000  Uiso   1.00
C782   C     0.98470   0.80745   0.21716   0.00000  Uiso   1.00
C783   C     0.83254   0.75403   0.25203   0.00000  Uiso   1.00
C784   C     0.85974   0.83396   0.14977   0.00000  Uiso   1.00
C785   C     0.93402   0.81169   0.00969   0.00000  Uiso   1.00
C786   C     0.87523   0.83207   0.09235   0.00000  Uiso   1.00
C787   C     0.75004   0.85922   0.43110   0.00000  Uiso   1.00
C788   C     0.74126   0.87340   0.48178   0.00000  Uiso   1.00
C789   C     0.77312   0.86318   0.00982   0.00000  Uiso   1.00
C790   C     0.71420   0.71641   0.29482   0.00000  Uiso   1.00
C791   C     0.82403   0.82377   0.43544   0.00000  Uiso   1.00
C792   C     0.67485   0.68324   0.31006   0.00000  Uiso   1.00
C793   C     0.96407   0.69830   0.35430   0.00000  Uiso   1.00
C794   C     0.94408   0.91330   0.34699   0.00000  Uiso   1.00
C795   C     0.94746   0.89811   0.39919   0.00000  Uiso   1.00
C796   C     0.96900   0.93081   0.42714   0.00000  Uiso   1.00
C797   C     0.97692   0.74020   0.19103   0.00000  Uiso   1.00
C798   C     0.68942   0.72171   0.15121   0.00000  Uiso   1.00
C799   C     0.68478   0.67530   0.14436   0.00000  Uiso   1.00
C800   C     0.99032   0.76038   0.47303   0.00000  Uiso   1.00
C801   C     0.68287   0.74425   0.01066   0.00000  Uiso   1.00
C802   C     0.84925   0.82870   0.01422   0.00000  Uiso   1.00
C803   C     0.69890   0.69946   0.49796   0.00000  Uiso   1.00
C804   C     0.89590   0.81230   0.48634   0.00000  Uiso   1.00
C805   C     0.90347   0.79731   0.43565   0.00000  Uiso   1.00
C806   C     0.86639   0.79968   0.41259   0.00000  Uiso   1.00
C807   C     0.83871   0.83528   0.06778   0.00000  Uiso   1.00
C808   C     0.92428   0.82522   0.06156   0.00000  Uiso   1.00
Cu809  Cu    0.78645   0.83333   0.25000   0.00000  Uiso   1.00
Cu810  Cu    0.88022   0.83334   0.25000   0.00000  Uiso   1.00
H811   H     0.90011   0.70429   0.27204   0.00000  Uiso   1.00
H812   H     0.87262   0.78379   0.37563   0.00000  Uiso   1.00
H813   H     0.90229   0.96308   0.26852   0.00000  Uiso   1.00
H814   H     0.69632   0.74610   0.29139   0.00000  Uiso   1.00
H815   H     0.73163   0.72128   0.32638   0.00000  Uiso   1.00
H816   H     0.99562   0.67448   0.27620   0.00000  Uiso   1.00
H817   H     0.69081   0.98892   0.32245   0.00000  Uiso   1.00
H818   H     0.97511   0.70455   0.38970   0.00000  Uiso   1.00
H819   H     0.93527   0.67447   0.36301   0.00000  Uiso   1.00
H820   H     0.94827   0.72665   0.34328   0.00000  Uiso   1.00
H821   H     0.91560   0.93787   0.35547   0.00000  Uiso   1.00
H822   H     0.75986   0.96169   0.24339   0.00000  Uiso   1.00
H823   H     0.97817   0.92818   0.32336   0.00000  Uiso   1.00
H824   H     0.91010   0.89030   0.42408   0.00000  Uiso   1.00
H825   H     0.97044   0.86983   0.39354   0.00000  Uiso   1.00
H826   H     0.67343   0.93863   0.40340   0.00000  Uiso   1.00
H827   H     0.97057   0.91889   0.46481   0.00000  Uiso   1.00
H828   H     0.94574   0.95902   0.43477   0.00000  Uiso   1.00
H829   H     0.94436   0.72423   0.18587   0.00000  Uiso   1.00
H830   H     0.97761   0.73397   0.23119   0.00000  Uiso   1.00
H831   H     0.69555   0.73642   0.11323   0.00000  Uiso   1.00
H832   H     0.72224   0.72721   0.16405   0.00000  Uiso   1.00
H833   H     0.69435   0.87513   0.31237   0.00000  Uiso   1.00
H834   H     0.67813   0.99329   0.18213   0.00000  Uiso   1.00
H835   H     0.71927   0.99607   0.11705   0.00000  Uiso   1.00
H836   H     0.98744   0.66837   0.12823   0.00000  Uiso   1.00
H837   H     0.68133   0.75509   0.43278   0.00000  Uiso   1.00
H838   H     0.95638   0.74214   0.47694   0.00000  Uiso   1.00
H839   H     0.71562   0.76330   0.00873   0.00000  Uiso   1.00
H840   H     0.99041   0.74640   0.05057   0.00000  Uiso   1.00
H841   H     0.99987   0.67970   0.00099   0.00000  Uiso   1.00
H842   H     0.71778   0.68866   0.02574   0.00000  Uiso   1.00
H843   H     0.72473   0.69644   0.45809   0.00000  Uiso   1.00
H844   H     0.72878   0.79134   0.18727   0.00000  Uiso   1.00
H845   H     0.93775   0.78315   0.41343   0.00000  Uiso   1.00
H846   H     0.80150   0.84178   0.09117   0.00000  Uiso   1.00
H847   H     0.72576   0.86931   0.40964   0.00000  Uiso   1.00
H848   H     0.76568   0.87714   0.04803   0.00000  Uiso   1.00
H849   H     0.71034   0.89372   0.49890   0.00000  Uiso   1.00
I850   I     0.98534   0.83970   0.08810   0.00000  Uiso   1.00
N851   N     0.71598   0.83332   0.24999   0.00000  Uiso   1.00
N852   N     0.95069   0.83335   0.24999   0.00000  Uiso   1.00
O853   O     0.79375   0.89345   0.25000   0.00000  Uiso   1.00
O854   O     0.92800   0.88148   0.31976   0.00000  Uiso   1.00
O855   O     0.97069   0.78235   0.18218   0.00000  Uiso   1.00
O856   O     0.98207   0.80339   0.48038   0.00000  Uiso   1.00
O857   O     0.87294   0.89346   0.25000   0.00000  Uiso   1.00
O858   O     0.77441   0.83332   0.32549   0.00000  Uiso   1.00
O859   O     0.85360   0.83333   0.32549   0.00000  Uiso   1.00
O860   O     0.79373   0.77321   0.24999   0.00000  Uiso   1.00
O861   O     0.87292   0.77322   0.24999   0.00000  Uiso   1.00
O862   O     0.81306   0.83334   0.17451   0.00000  Uiso   1.00
O863   O     0.89225   0.83335   0.17451   0.00000  Uiso   1.00
O864   O     0.74804   0.70684   0.24564   0.00000  Uiso   1.00
C865   C     0.16631   0.24593   0.75120   0.00000  Uiso   1.00
C866   C     0.12553   0.16921   0.90676   0.00000  Uiso   1.00
C867   C     0.20417   0.31221   0.76312   0.00000  Uiso   1.00
C868   C     0.14057   0.16569   0.84991   0.00000  Uiso   1.00
C869   C     0.20313   0.02144   0.76463   0.00000  Uiso   1.00
C870   C     0.16363   0.04272   0.75619   0.00000  Uiso   1.00
C871   C     0.12225   0.02072   0.75185   0.00000  Uiso   1.00
C872   C     0.12403   0.31148   0.74946   0.00000  Uiso   1.00
C873   C     0.16510   0.29048   0.75427   0.00000  Uiso   1.00
C874   C     0.29821   0.19159   0.78461   0.00000  Uiso   1.00
C875   C     0.01517   0.19056   0.78481   0.00000  Uiso   1.00
C876   C     0.14795   0.17110   0.98758   0.00000  Uiso   1.00
C877   C     0.03473   0.14250   0.71578   0.00000  Uiso   1.00
C878   C     0.31804   0.14078   0.71716   0.00000  Uiso   1.00
C879   C     0.16587   0.08737   0.75203   0.00000  Uiso   1.00
C880   C     0.19307   0.16729   0.64977   0.00000  Uiso   1.00
C881   C     0.26736   0.14502   0.50969   0.00000  Uiso   1.00
C882   C     0.20856   0.16540   0.59235   0.00000  Uiso   1.00
C883   C     0.08337   0.19255   0.93110   0.00000  Uiso   1.00
C884   C     0.07460   0.20673   0.98178   0.00000  Uiso   1.00
C885   C     0.10645   0.19651   0.50982   0.00000  Uiso   1.00
C886   C     0.04753   0.04974   0.79482   0.00000  Uiso   1.00
C887   C     0.15736   0.15710   0.93544   0.00000  Uiso   1.00
C888   C     0.00819   0.01657   0.81006   0.00000  Uiso   1.00
C889   C     0.29740   0.03163   0.85430   0.00000  Uiso   1.00
C890   C     0.27741   0.24663   0.84699   0.00000  Uiso   1.00
C891   C     0.28079   0.23144   0.89919   0.00000  Uiso   1.00
C892   C     0.30233   0.26415   0.92714   0.00000  Uiso   1.00
C893   C     0.31025   0.07353   0.69103   0.00000  Uiso   1.00
C894   C     0.02275   0.05504   0.65121   0.00000  Uiso   1.00
C895   C     0.01811   0.00863   0.64436   0.00000  Uiso   1.00
C896   C     0.32366   0.09372   0.97303   0.00000  Uiso   1.00
C897   C     0.01621   0.07758   0.51066   0.00000  Uiso   1.00
C898   C     0.18258   0.16204   0.51422   0.00000  Uiso   1.00
C899   C     0.03224   0.03279   0.99796   0.00000  Uiso   1.00
C900   C     0.22923   0.14564   0.98634   0.00000  Uiso   1.00
C901   C     0.23680   0.13065   0.93565   0.00000  Uiso   1.00
C902   C     0.19972   0.13301   0.91259   0.00000  Uiso   1.00
C903   C     0.17204   0.16862   0.56778   0.00000  Uiso   1.00
C904   C     0.25762   0.15856   0.56156   0.00000  Uiso   1.00
Cu905  Cu    0.11978   0.16666   0.75000   0.00000  Uiso   1.00
Cu906  Cu    0.21355   0.16667   0.75000   0.00000  Uiso   1.00
H907   H     0.23344   0.03762   0.77204   0.00000  Uiso   1.00
H908   H     0.20596   0.11712   0.87563   0.00000  Uiso   1.00
H909   H     0.23563   0.29641   0.76852   0.00000  Uiso   1.00
H910   H     0.02965   0.07943   0.79139   0.00000  Uiso   1.00
H911   H     0.06496   0.05462   0.82638   0.00000  Uiso   1.00
H912   H     0.32895   0.00781   0.77620   0.00000  Uiso   1.00
H913   H     0.02415   0.32225   0.82245   0.00000  Uiso   1.00
H914   H     0.30844   0.03789   0.88970   0.00000  Uiso   1.00
H915   H     0.26860   0.00780   0.86301   0.00000  Uiso   1.00
H916   H     0.28160   0.05999   0.84328   0.00000  Uiso   1.00
H917   H     0.24893   0.27120   0.85547   0.00000  Uiso   1.00
H918   H     0.09319   0.29502   0.74339   0.00000  Uiso   1.00
H919   H     0.31150   0.26151   0.82336   0.00000  Uiso   1.00
H920   H     0.24343   0.22364   0.92408   0.00000  Uiso   1.00
H921   H     0.30377   0.20317   0.89354   0.00000  Uiso   1.00
H922   H     0.00676   0.27196   0.90340   0.00000  Uiso   1.00
H923   H     0.30390   0.25222   0.96481   0.00000  Uiso   1.00
H924   H     0.27907   0.29235   0.93477   0.00000  Uiso   1.00
H925   H     0.27770   0.05757   0.68587   0.00000  Uiso   1.00
H926   H     0.31095   0.06731   0.73119   0.00000  Uiso   1.00
H927   H     0.02888   0.06975   0.61323   0.00000  Uiso   1.00
H928   H     0.05557   0.06054   0.66405   0.00000  Uiso   1.00
H929   H     0.02769   0.20846   0.81237   0.00000  Uiso   1.00
H930   H     0.01147   0.32663   0.68213   0.00000  Uiso   1.00
H931   H     0.05260   0.32940   0.61705   0.00000  Uiso   1.00
H932   H     0.32077   0.00171   0.62823   0.00000  Uiso   1.00
H933   H     0.01467   0.08843   0.93278   0.00000  Uiso   1.00
H934   H     0.28971   0.07547   0.97694   0.00000  Uiso   1.00
H935   H     0.04895   0.09663   0.50873   0.00000  Uiso   1.00
H936   H     0.32374   0.07974   0.55057   0.00000  Uiso   1.00
H937   H     0.33320   0.01303   0.50099   0.00000  Uiso   1.00
H938   H     0.05111   0.02200   0.52574   0.00000  Uiso   1.00
H939   H     0.05806   0.02977   0.95809   0.00000  Uiso   1.00
H940   H     0.06211   0.12468   0.68727   0.00000  Uiso   1.00
H941   H     0.27108   0.11648   0.91343   0.00000  Uiso   1.00
H942   H     0.13484   0.17511   0.59117   0.00000  Uiso   1.00
H943   H     0.05909   0.20264   0.90964   0.00000  Uiso   1.00
H944   H     0.09901   0.21047   0.54803   0.00000  Uiso   1.00
H945   H     0.04368   0.22705   0.99890   0.00000  Uiso   1.00
I946   I     0.31867   0.17303   0.58810   0.00000  Uiso   1.00
N947   N     0.04931   0.16666   0.74999   0.00000  Uiso   1.00
N948   N     0.28402   0.16669   0.74999   0.00000  Uiso   1.00
O949   O     0.12708   0.22678   0.75000   0.00000  Uiso   1.00
O950   O     0.26133   0.21481   0.81976   0.00000  Uiso   1.00
O951   O     0.30402   0.11568   0.68218   0.00000  Uiso   1.00
O952   O     0.31540   0.13672   0.98038   0.00000  Uiso   1.00
O953   O     0.20627   0.22679   0.75000   0.00000  Uiso   1.00
O954   O     0.10775   0.16665   0.82549   0.00000  Uiso   1.00
O955   O     0.18694   0.16666   0.82549   0.00000  Uiso   1.00
O956   O     0.12706   0.10654   0.74999   0.00000  Uiso   1.00
O957   O     0.20625   0.10655   0.74999   0.00000  Uiso   1.00
O958   O     0.14640   0.16667   0.67451   0.00000  Uiso   1.00
O959   O     0.22559   0.16668   0.67451   0.00000  Uiso   1.00
O960   O     0.08138   0.04017   0.74564   0.00000  Uiso   1.00
C961   C     0.49964   0.24593   0.75120   0.00000  Uiso   1.00
C962   C     0.45886   0.16921   0.90676   0.00000  Uiso   1.00
C963   C     0.53751   0.31221   0.76312   0.00000  Uiso   1.00
C964   C     0.47390   0.16569   0.84991   0.00000  Uiso   1.00
C965   C     0.53647   0.02144   0.76463   0.00000  Uiso   1.00
C966   C     0.49697   0.04272   0.75619   0.00000  Uiso   1.00
C967   C     0.45559   0.02072   0.75185   0.00000  Uiso   1.00
C968   C     0.45737   0.31148   0.74946   0.00000  Uiso   1.00
C969   C     0.49843   0.29048   0.75427   0.00000  Uiso   1.00
C970   C     0.63154   0.19159   0.78461   0.00000  Uiso   1.00
C971   C     0.34850   0.19056   0.78481   0.00000  Uiso   1.00
C972   C     0.48128   0.17110   0.98758   0.00000  Uiso   1.00
C973   C     0.36807   0.14250   0.71578   0.00000  Uiso   1.00
C974   C     0.65137   0.14078   0.71716   0.00000  Uiso   1.00
C975   C     0.49920   0.08737   0.75203   0.00000  Uiso   1.00
C976   C     0.52641   0.16729   0.64977   0.00000  Uiso   1.00
C977   C     0.60069   0.14502   0.50969   0.00000  Uiso   1.00
C978   C     0.54189   0.16540   0.59235   0.00000  Uiso   1.00
C979   C     0.41670   0.19255   0.93110   0.00000  Uiso   1.00
C980   C     0.40793   0.20673   0.98178   0.00000  Uiso   1.00
C981   C     0.43978   0.19651   0.50982   0.00000  Uiso   1.00
C982   C     0.38087   0.04974   0.79482   0.00000  Uiso   1.00
C983   C     0.49070   0.15710   0.93544   0.00000  Uiso   1.00
C984   C     0.34152   0.01657   0.81006   0.00000  Uiso   1.00
C985   C     0.63073   0.03163   0.85430   0.00000  Uiso   1.00
C986   C     0.61074   0.24663   0.84699   0.00000  Uiso   1.00
C987   C     0.61412   0.23144   0.89919   0.00000  Uiso   1.00
C988   C     0.63566   0.26415   0.92714   0.00000  Uiso   1.00
C989   C     0.64359   0.07353   0.69103   0.00000  Uiso   1.00
C990   C     0.35609   0.05504   0.65121   0.00000  Uiso   1.00
C991   C     0.35145   0.00863   0.64436   0.00000  Uiso   1.00
C992   C     0.65699   0.09372   0.97303   0.00000  Uiso   1.00
C993   C     0.34954   0.07758   0.51066   0.00000  Uiso   1.00
C994   C     0.51591   0.16204   0.51422   0.00000  Uiso   1.00
C995   C     0.36557   0.03279   0.99796   0.00000  Uiso   1.00
C996   C     0.56256   0.14564   0.98634   0.00000  Uiso   1.00
C997   C     0.57014   0.13065   0.93565   0.00000  Uiso   1.00
C998   C     0.53305   0.13301   0.91259   0.00000  Uiso   1.00
C999   C     0.50538   0.16862   0.56778   0.00000  Uiso   1.00
C1000  C     0.59095   0.15856   0.56156   0.00000  Uiso   1.00
Cu1001 Cu    0.45311   0.16666   0.75000   0.00000  Uiso   1.00
Cu1002 Cu    0.54689   0.16667   0.75000   0.00000  Uiso   1.00
H1003  H     0.56677   0.03762   0.77204   0.00000  Uiso   1.00
H1004  H     0.53929   0.11712   0.87563   0.00000  Uiso   1.00
H1005  H     0.56896   0.29641   0.76852   0.00000  Uiso   1.00
H1006  H     0.36298   0.07943   0.79139   0.00000  Uiso   1.00
H1007  H     0.39829   0.05462   0.82638   0.00000  Uiso   1.00
H1008  H     0.66228   0.00781   0.77620   0.00000  Uiso   1.00
H1009  H     0.35748   0.32225   0.82245   0.00000  Uiso   1.00
H1010  H     0.64178   0.03789   0.88970   0.00000  Uiso   1.00
H1011  H     0.60193   0.00780   0.86301   0.00000  Uiso   1.00
H1012  H     0.61493   0.05999   0.84328   0.00000  Uiso   1.00
H1013  H     0.58227   0.27120   0.85547   0.00000  Uiso   1.00
H1014  H     0.42653   0.29502   0.74339   0.00000  Uiso   1.00
H1015  H     0.64483   0.26151   0.82336   0.00000  Uiso   1.00
H1016  H     0.57676   0.22364   0.92408   0.00000  Uiso   1.00
H1017  H     0.63710   0.20317   0.89354   0.00000  Uiso   1.00
H1018  H     0.34009   0.27196   0.90340   0.00000  Uiso   1.00
H1019  H     0.63723   0.25222   0.96481   0.00000  Uiso   1.00
H1020  H     0.61241   0.29235   0.93477   0.00000  Uiso   1.00
H1021  H     0.61103   0.05757   0.68587   0.00000  Uiso   1.00
H1022  H     0.64428   0.06731   0.73119   0.00000  Uiso   1.00
H1023  H     0.36221   0.06975   0.61323   0.00000  Uiso   1.00
H1024  H     0.38890   0.06054   0.66405   0.00000  Uiso   1.00
H1025  H     0.36102   0.20846   0.81237   0.00000  Uiso   1.00
H1026  H     0.34480   0.32663   0.68213   0.00000  Uiso   1.00
H1027  H     0.38594   0.32940   0.61705   0.00000  Uiso   1.00
H1028  H     0.65411   0.00171   0.62823   0.00000  Uiso   1.00
H1029  H     0.34800   0.08843   0.93278   0.00000  Uiso   1.00
H1030  H     0.62304   0.07547   0.97694   0.00000  Uiso   1.00
H1031  H     0.38229   0.09663   0.50873   0.00000  Uiso   1.00
H1032  H     0.65708   0.07974   0.55057   0.00000  Uiso   1.00
H1033  H     0.66653   0.01303   0.50099   0.00000  Uiso   1.00
H1034  H     0.38445   0.02200   0.52574   0.00000  Uiso   1.00
H1035  H     0.39140   0.02977   0.95809   0.00000  Uiso   1.00
H1036  H     0.39544   0.12468   0.68727   0.00000  Uiso   1.00
H1037  H     0.60442   0.11648   0.91343   0.00000  Uiso   1.00
H1038  H     0.46817   0.17511   0.59117   0.00000  Uiso   1.00
H1039  H     0.39243   0.20264   0.90964   0.00000  Uiso   1.00
H1040  H     0.43234   0.21047   0.54803   0.00000  Uiso   1.00
H1041  H     0.37701   0.22705   0.99890   0.00000  Uiso   1.00
I1042  I     0.65201   0.17303   0.58810   0.00000  Uiso   1.00
N1043  N     0.38265   0.16666   0.74999   0.00000  Uiso   1.00
N1044  N     0.61735   0.16669   0.74999   0.00000  Uiso   1.00
O1045  O     0.46042   0.22678   0.75000   0.00000  Uiso   1.00
O1046  O     0.59466   0.21481   0.81976   0.00000  Uiso   1.00
O1047  O     0.63735   0.11568   0.68218   0.00000  Uiso   1.00
O1048  O     0.64873   0.13672   0.98038   0.00000  Uiso   1.00
O1049  O     0.53961   0.22679   0.75000   0.00000  Uiso   1.00
O1050  O     0.44108   0.16665   0.82549   0.00000  Uiso   1.00
O1051  O     0.52027   0.16666   0.82549   0.00000  Uiso   1.00
O1052  O     0.46039   0.10654   0.74999   0.00000  Uiso   1.00
O1053  O     0.53958   0.10655   0.74999   0.00000  Uiso   1.00
O1054  O     0.47973   0.16667   0.67451   0.00000  Uiso   1.00
O1055  O     0.55892   0.16668   0.67451   0.00000  Uiso   1.00
O1056  O     0.41471   0.04017   0.74564   0.00000  Uiso   1.00
C1057  C     0.83297   0.24593   0.75120   0.00000  Uiso   1.00
C1058  C     0.79219   0.16921   0.90676   0.00000  Uiso   1.00
C1059  C     0.87084   0.31221   0.76312   0.00000  Uiso   1.00
C1060  C     0.80723   0.16569   0.84991   0.00000  Uiso   1.00
C1061  C     0.86980   0.02144   0.76463   0.00000  Uiso   1.00
C1062  C     0.83030   0.04272   0.75619   0.00000  Uiso   1.00
C1063  C     0.78892   0.02072   0.75185   0.00000  Uiso   1.00
C1064  C     0.79070   0.31148   0.74946   0.00000  Uiso   1.00
C1065  C     0.83177   0.29048   0.75427   0.00000  Uiso   1.00
C1066  C     0.96487   0.19159   0.78461   0.00000  Uiso   1.00
C1067  C     0.68183   0.19056   0.78481   0.00000  Uiso   1.00
C1068  C     0.81462   0.17110   0.98758   0.00000  Uiso   1.00
C1069  C     0.70140   0.14250   0.71578   0.00000  Uiso   1.00
C1070  C     0.98470   0.14078   0.71716   0.00000  Uiso   1.00
C1071  C     0.83254   0.08737   0.75203   0.00000  Uiso   1.00
C1072  C     0.85974   0.16729   0.64977   0.00000  Uiso   1.00
C1073  C     0.93402   0.14502   0.50969   0.00000  Uiso   1.00
C1074  C     0.87523   0.16540   0.59235   0.00000  Uiso   1.00
C1075  C     0.75004   0.19255   0.93110   0.00000  Uiso   1.00
C1076  C     0.74126   0.20673   0.98178   0.00000  Uiso   1.00
C1077  C     0.77312   0.19651   0.50982   0.00000  Uiso   1.00
C1078  C     0.71420   0.04974   0.79482   0.00000  Uiso   1.00
C1079  C     0.82403   0.15710   0.93544   0.00000  Uiso   1.00
C1080  C     0.67485   0.01657   0.81006   0.00000  Uiso   1.00
C1081  C     0.96407   0.03163   0.85430   0.00000  Uiso   1.00
C1082  C     0.94408   0.24663   0.84699   0.00000  Uiso   1.00
C1083  C     0.94746   0.23144   0.89919   0.00000  Uiso   1.00
C1084  C     0.96900   0.26415   0.92714   0.00000  Uiso   1.00
C1085  C     0.97692   0.07353   0.69103   0.00000  Uiso   1.00
C1086  C     0.68942   0.05504   0.65121   0.00000  Uiso   1.00
C1087  C     0.68478   0.00863   0.64436   0.00000  Uiso   1.00
C1088  C     0.99032   0.09372   0.97303   0.00000  Uiso   1.00
C1089  C     0.68287   0.07758   0.51066   0.00000  Uiso   1.00
C1090  C     0.84925   0.16204   0.51422   0.00000  Uiso   1.00
C1091  C     0.69890   0.03279   0.99796   0.00000  Uiso   1.00
C1092  C     0.89590   0.14564   0.98634   0.00000  Uiso   1.00
C1093  C     0.90347   0.13065   0.93565   0.00000  Uiso   1.00
C1094  C     0.86639   0.13301   0.91259   0.00000  Uiso   1.00
C1095  C     0.83871   0.16862   0.56778   0.00000  Uiso   1.00
C1096  C     0.92428   0.15856   0.56156   0.00000  Uiso   1.00
Cu1097 Cu    0.78645   0.16666   0.75000   0.00000  Uiso   1.00
Cu1098 Cu    0.88022   0.16667   0.75000   0.00000  Uiso   1.00
H1099  H     0.90011   0.03762   0.77204   0.00000  Uiso   1.00
H1100  H     0.87262   0.11712   0.87563   0.00000  Uiso   1.00
H1101  H     0.90229   0.29641   0.76852   0.00000  Uiso   1.00
H1102  H     0.69632   0.07943   0.79139   0.00000  Uiso   1.00
H1103  H     0.73163   0.05462   0.82638   0.00000  Uiso   1.00
H1104  H     0.99562   0.00781   0.77620   0.00000  Uiso   1.00
H1105  H     0.69081   0.32225   0.82245   0.00000  Uiso   1.00
H1106  H     0.97511   0.03789   0.88970   0.00000  Uiso   1.00
H1107  H     0.93527   0.00780   0.86301   0.00000  Uiso   1.00
H1108  H     0.94827   0.05999   0.84328   0.00000  Uiso   1.00
H1109  H     0.91560   0.27120   0.85547   0.00000  Uiso   1.00
H1110  H     0.75986   0.29502   0.74339   0.00000  Uiso   1.00
H1111  H     0.97817   0.26151   0.82336   0.00000  Uiso   1.00
H1112  H     0.91010   0.22364   0.92408   0.00000  Uiso   1.00
H1113  H     0.97044   0.20317   0.89354   0.00000  Uiso   1.00
H1114  H     0.67343   0.27196   0.90340   0.00000  Uiso   1.00
H1115  H     0.97057   0.25222   0.96481   0.00000  Uiso   1.00
H1116  H     0.94574   0.29235   0.93477   0.00000  Uiso   1.00
H1117  H     0.94436   0.05757   0.68587   0.00000  Uiso   1.00
H1118  H     0.97761   0.06731   0.73119   0.00000  Uiso   1.00
H1119  H     0.69555   0.06975   0.61323   0.00000  Uiso   1.00
H1120  H     0.72224   0.06054   0.66405   0.00000  Uiso   1.00
H1121  H     0.69435   0.20846   0.81237   0.00000  Uiso   1.00
H1122  H     0.67813   0.32663   0.68213   0.00000  Uiso   1.00
H1123  H     0.71927   0.32940   0.61705   0.00000  Uiso   1.00
H1124  H     0.98744   0.00171   0.62823   0.00000  Uiso   1.00
H1125  H     0.68133   0.08843   0.93278   0.00000  Uiso   1.00
H1126  H     0.95638   0.07547   0.97694   0.00000  Uiso   1.00
H1127  H     0.71562   0.09663   0.50873   0.00000  Uiso   1.00
H1128  H     0.99041   0.07974   0.55057   0.00000  Uiso   1.00
H1129  H     0.99987   0.01303   0.50099   0.00000  Uiso   1.00
H1130  H     0.71778   0.02200   0.52574   0.00000  Uiso   1.00
H1131  H     0.72473   0.02977   0.95809   0.00000  Uiso   1.00
H1132  H     0.72878   0.12468   0.68727   0.00000  Uiso   1.00
H1133  H     0.93775   0.11648   0.91343   0.00000  Uiso   1.00
H1134  H     0.80150   0.17511   0.59117   0.00000  Uiso   1.00
H1135  H     0.72576   0.20264   0.90964   0.00000  Uiso   1.00
H1136  H     0.76568   0.21047   0.54803   0.00000  Uiso   1.00
H1137  H     0.71034   0.22705   0.99890   0.00000  Uiso   1.00
I1138  I     0.98534   0.17303   0.58810   0.00000  Uiso   1.00
N1139  N     0.71598   0.16666   0.74999   0.00000  Uiso   1.00
N1140  N     0.95069   0.16669   0.74999   0.00000  Uiso   1.00
O1141  O     0.79375   0.22678   0.75000   0.00000  Uiso   1.00
O1142  O     0.92800   0.21481   0.81976   0.00000  Uiso   1.00
O1143  O     0.97069   0.11568   0.68218   0.00000  Uiso   1.00
O1144  O     0.98207   0.13672   0.98038   0.00000  Uiso   1.00
O1145  O     0.87294   0.22679   0.75000   0.00000  Uiso   1.00
O1146  O     0.77441   0.16665   0.82549   0.00000  Uiso   1.00
O1147  O     0.85360   0.16666   0.82549   0.00000  Uiso   1.00
O1148  O     0.79373   0.10654   0.74999   0.00000  Uiso   1.00
O1149  O     0.87292   0.10655   0.74999   0.00000  Uiso   1.00
O1150  O     0.81306   0.16667   0.67451   0.00000  Uiso   1.00
O1151  O     0.89225   0.16668   0.67451   0.00000  Uiso   1.00
O1152  O     0.74804   0.04017   0.74564   0.00000  Uiso   1.00
C1153  C     0.16631   0.57927   0.75120   0.00000  Uiso   1.00
C1154  C     0.12553   0.50255   0.90676   0.00000  Uiso   1.00
C1155  C     0.20417   0.64554   0.76312   0.00000  Uiso   1.00
C1156  C     0.14057   0.49903   0.84991   0.00000  Uiso   1.00
C1157  C     0.20313   0.35477   0.76463   0.00000  Uiso   1.00
C1158  C     0.16363   0.37605   0.75619   0.00000  Uiso   1.00
C1159  C     0.12225   0.35405   0.75185   0.00000  Uiso   1.00
C1160  C     0.12403   0.64482   0.74946   0.00000  Uiso   1.00
C1161  C     0.16510   0.62381   0.75427   0.00000  Uiso   1.00
C1162  C     0.29821   0.52492   0.78461   0.00000  Uiso   1.00
C1163  C     0.01517   0.52389   0.78481   0.00000  Uiso   1.00
C1164  C     0.14795   0.50443   0.98758   0.00000  Uiso   1.00
C1165  C     0.03473   0.47583   0.71578   0.00000  Uiso   1.00
C1166  C     0.31804   0.47411   0.71716   0.00000  Uiso   1.00
C1167  C     0.16587   0.42070   0.75203   0.00000  Uiso   1.00
C1168  C     0.19307   0.50063   0.64977   0.00000  Uiso   1.00
C1169  C     0.26736   0.47836   0.50969   0.00000  Uiso   1.00
C1170  C     0.20856   0.49874   0.59235   0.00000  Uiso   1.00
C1171  C     0.08337   0.52588   0.93110   0.00000  Uiso   1.00
C1172  C     0.07460   0.54007   0.98178   0.00000  Uiso   1.00
C1173  C     0.10645   0.52984   0.50982   0.00000  Uiso   1.00
C1174  C     0.04753   0.38307   0.79482   0.00000  Uiso   1.00
C1175  C     0.15736   0.49043   0.93544   0.00000  Uiso   1.00
C1176  C     0.00819   0.34990   0.81006   0.00000  Uiso   1.00
C1177  C     0.29740   0.36496   0.85430   0.00000  Uiso   1.00
C1178  C     0.27741   0.57996   0.84699   0.00000  Uiso   1.00
C1179  C     0.28079   0.56477   0.89919   0.00000  Uiso   1.00
C1180  C     0.30233   0.59748   0.92714   0.00000  Uiso   1.00
C1181  C     0.31025   0.40686   0.69103   0.00000  Uiso   1.00
C1182  C     0.02275   0.38837   0.65121   0.00000  Uiso   1.00
C1183  C     0.01811   0.34197   0.64436   0.00000  Uiso   1.00
C1184  C     0.32366   0.42705   0.97303   0.00000  Uiso   1.00
C1185  C     0.01621   0.41091   0.51066   0.00000  Uiso   1.00
C1186  C     0.18258   0.49537   0.51422   0.00000  Uiso   1.00
C1187  C     0.03224   0.36613   0.99796   0.00000  Uiso   1.00
C1188  C     0.22923   0.47897   0.98634   0.00000  Uiso   1.00
C1189  C     0.23680   0.46398   0.93565   0.00000  Uiso   1.00
C1190  C     0.19972   0.46634   0.91259   0.00000  Uiso   1.00
C1191  C     0.17204   0.50195   0.56778   0.00000  Uiso   1.00
C1192  C     0.25762   0.49189   0.56156   0.00000  Uiso   1.00
Cu1193 Cu    0.11978   0.49999   0.75000   0.00000  Uiso   1.00
Cu1194 Cu    0.21355   0.50001   0.75000   0.00000  Uiso   1.00
H1195  H     0.23344   0.37096   0.77204   0.00000  Uiso   1.00
H1196  H     0.20596   0.45046   0.87563   0.00000  Uiso   1.00
H1197  H     0.23563   0.62975   0.76852   0.00000  Uiso   1.00
H1198  H     0.02965   0.41276   0.79139   0.00000  Uiso   1.00
H1199  H     0.06496   0.38795   0.82638   0.00000  Uiso   1.00
H1200  H     0.32895   0.34115   0.77620   0.00000  Uiso   1.00
H1201  H     0.02415   0.65559   0.82245   0.00000  Uiso   1.00
H1202  H     0.30844   0.37122   0.88970   0.00000  Uiso   1.00
H1203  H     0.26860   0.34113   0.86301   0.00000  Uiso   1.00
H1204  H     0.28160   0.39332   0.84328   0.00000  Uiso   1.00
H1205  H     0.24893   0.60453   0.85547   0.00000  Uiso   1.00
H1206  H     0.09319   0.62836   0.74339   0.00000  Uiso   1.00
H1207  H     0.31150   0.59485   0.82336   0.00000  Uiso   1.00
H1208  H     0.24343   0.55697   0.92408   0.00000  Uiso   1.00
H1209  H     0.30377   0.53650   0.89354   0.00000  Uiso   1.00
H1210  H     0.00676   0.60530   0.90340   0.00000  Uiso   1.00
H1211  H     0.30390   0.58555   0.96481   0.00000  Uiso   1.00
H1212  H     0.27907   0.62569   0.93477   0.00000  Uiso   1.00
H1213  H     0.27770   0.39090   0.68587   0.00000  Uiso   1.00
H1214  H     0.31095   0.40064   0.73119   0.00000  Uiso   1.00
H1215  H     0.02888   0.40309   0.61323   0.00000  Uiso   1.00
H1216  H     0.05557   0.39387   0.66405   0.00000  Uiso   1.00
H1217  H     0.02769   0.54179   0.81237   0.00000  Uiso   1.00
H1218  H     0.01147   0.65996   0.68213   0.00000  Uiso   1.00
H1219  H     0.05260   0.66274   0.61705   0.00000  Uiso   1.00
H1220  H     0.32077   0.33504   0.62823   0.00000  Uiso   1.00
H1221  H     0.01467   0.42176   0.93278   0.00000  Uiso   1.00
H1222  H     0.28971   0.40881   0.97694   0.00000  Uiso   1.00
H1223  H     0.04895   0.42997   0.50873   0.00000  Uiso   1.00
H1224  H     0.32374   0.41307   0.55057   0.00000  Uiso   1.00
H1225  H     0.33320   0.34636   0.50099   0.00000  Uiso   1.00
H1226  H     0.05111   0.35533   0.52574   0.00000  Uiso   1.00
H1227  H     0.05806   0.36311   0.95809   0.00000  Uiso   1.00
H1228  H     0.06211   0.45801   0.68727   0.00000  Uiso   1.00
H1229  H     0.27108   0.44982   0.91343   0.00000  Uiso   1.00
H1230  H     0.13484   0.50844   0.59117   0.00000  Uiso   1.00
H1231  H     0.05909   0.53597   0.90964   0.00000  Uiso   1.00
H1232  H     0.09901   0.54381   0.54803   0.00000  Uiso   1.00
H1233  H     0.04368   0.56038   0.99890   0.00000  Uiso   1.00
I1234  I     0.31867   0.50636   0.58810   0.00000  Uiso   1.00
N1235  N     0.04931   0.49999   0.74999   0.00000  Uiso   1.00
N1236  N     0.28402   0.50002   0.74999   0.00000  Uiso   1.00
O1237  O     0.12708   0.56011   0.75000   0.00000  Uiso   1.00
O1238  O     0.26133   0.54815   0.81976   0.00000  Uiso   1.00
O1239  O     0.30402   0.44901   0.68218   0.00000  Uiso   1.00
O1240  O     0.31540   0.47006   0.98038   0.00000  Uiso   1.00
O1241  O     0.20627   0.56012   0.75000   0.00000  Uiso   1.00
O1242  O     0.10775   0.49998   0.82549   0.00000  Uiso   1.00
O1243  O     0.18694   0.49999   0.82549   0.00000  Uiso   1.00
O1244  O     0.12706   0.43988   0.74999   0.00000  Uiso   1.00
O1245  O     0.20625   0.43989   0.74999   0.00000  Uiso   1.00
O1246  O     0.14640   0.50001   0.67451   0.00000  Uiso   1.00
O1247  O     0.22559   0.50002   0.67451   0.00000  Uiso   1.00
O1248  O     0.08138   0.37351   0.74564   0.00000  Uiso   1.00
C1249  C     0.49964   0.57927   0.75120   0.00000  Uiso   1.00
C1250  C     0.45886   0.50255   0.90676   0.00000  Uiso   1.00
C1251  C     0.53751   0.64554   0.76312   0.00000  Uiso   1.00
C1252  C     0.47390   0.49903   0.84991   0.00000  Uiso   1.00
C1253  C     0.53647   0.35477   0.76463   0.00000  Uiso   1.00
C1254  C     0.49697   0.37605   0.75619   0.00000  Uiso   1.00
C1255  C     0.45559   0.35405   0.75185   0.00000  Uiso   1.00
C1256  C     0.45737   0.64482   0.74946   0.00000  Uiso   1.00
C1257  C     0.49843   0.62381   0.75427   0.00000  Uiso   1.00
C1258  C     0.63154   0.52492   0.78461   0.00000  Uiso   1.00
C1259  C     0.34850   0.52389   0.78481   0.00000  Uiso   1.00
C1260  C     0.48128   0.50443   0.98758   0.00000  Uiso   1.00
C1261  C     0.36807   0.47583   0.71578   0.00000  Uiso   1.00
C1262  C     0.65137   0.47411   0.71716   0.00000  Uiso   1.00
C1263  C     0.49920   0.42070   0.75203   0.00000  Uiso   1.00
C1264  C     0.52641   0.50063   0.64977   0.00000  Uiso   1.00
C1265  C     0.60069   0.47836   0.50969   0.00000  Uiso   1.00
C1266  C     0.54189   0.49874   0.59235   0.00000  Uiso   1.00
C1267  C     0.41670   0.52588   0.93110   0.00000  Uiso   1.00
C1268  C     0.40793   0.54007   0.98178   0.00000  Uiso   1.00
C1269  C     0.43978   0.52984   0.50982   0.00000  Uiso   1.00
C1270  C     0.38087   0.38307   0.79482   0.00000  Uiso   1.00
C1271  C     0.49070   0.49043   0.93544   0.00000  Uiso   1.00
C1272  C     0.34152   0.34990   0.81006   0.00000  Uiso   1.00
C1273  C     0.63073   0.36496   0.85430   0.00000  Uiso   1.00
C1274  C     0.61074   0.57996   0.84699   0.00000  Uiso   1.00
C1275  C     0.61412   0.56477   0.89919   0.00000  Uiso   1.00
C1276  C     0.63566   0.59748   0.92714   0.00000  Uiso   1.00
C1277  C     0.64359   0.40686   0.69103   0.00000  Uiso   1.00
C1278  C     0.35609   0.38837   0.65121   0.00000  Uiso   1.00
C1279  C     0.35145   0.34197   0.64436   0.00000  Uiso   1.00
C1280  C     0.65699   0.42705   0.97303   0.00000  Uiso   1.00
C1281  C     0.34954   0.41091   0.51066   0.00000  Uiso   1.00
C1282  C     0.51591   0.49537   0.51422   0.00000  Uiso   1.00
C1283  C     0.36557   0.36613   0.99796   0.00000  Uiso   1.00
C1284  C     0.56256   0.47897   0.98634   0.00000  Uiso   1.00
C1285  C     0.57014   0.46398   0.93565   0.00000  Uiso   1.00
C1286  C     0.53305   0.46634   0.91259   0.00000  Uiso   1.00
C1287  C     0.50538   0.50195   0.56778   0.00000  Uiso   1.00
C1288  C     0.59095   0.49189   0.56156   0.00000  Uiso   1.00
Cu1289 Cu    0.45311   0.49999   0.75000   0.00000  Uiso   1.00
Cu1290 Cu    0.54689   0.50001   0.75000   0.00000  Uiso   1.00
H1291  H     0.56677   0.37096   0.77204   0.00000  Uiso   1.00
H1292  H     0.53929   0.45046   0.87563   0.00000  Uiso   1.00
H1293  H     0.56896   0.62975   0.76852   0.00000  Uiso   1.00
H1294  H     0.36298   0.41276   0.79139   0.00000  Uiso   1.00
H1295  H     0.39829   0.38795   0.82638   0.00000  Uiso   1.00
H1296  H     0.66228   0.34115   0.77620   0.00000  Uiso   1.00
H1297  H     0.35748   0.65559   0.82245   0.00000  Uiso   1.00
H1298  H     0.64178   0.37122   0.88970   0.00000  Uiso   1.00
H1299  H     0.60193   0.34113   0.86301   0.00000  Uiso   1.00
H1300  H     0.61493   0.39332   0.84328   0.00000  Uiso   1.00
H1301  H     0.58227   0.60453   0.85547   0.00000  Uiso   1.00
H1302  H     0.42653   0.62836   0.74339   0.00000  Uiso   1.00
H1303  H     0.64483   0.59485   0.82336   0.00000  Uiso   1.00
H1304  H     0.57676   0.55697   0.92408   0.00000  Uiso   1.00
H1305  H     0.63710   0.53650   0.89354   0.00000  Uiso   1.00
H1306  H     0.34009   0.60530   0.90340   0.00000  Uiso   1.00
H1307  H     0.63723   0.58555   0.96481   0.00000  Uiso   1.00
H1308  H     0.61241   0.62569   0.93477   0.00000  Uiso   1.00
H1309  H     0.61103   0.39090   0.68587   0.00000  Uiso   1.00
H1310  H     0.64428   0.40064   0.73119   0.00000  Uiso   1.00
H1311  H     0.36221   0.40309   0.61323   0.00000  Uiso   1.00
H1312  H     0.38890   0.39387   0.66405   0.00000  Uiso   1.00
H1313  H     0.36102   0.54179   0.81237   0.00000  Uiso   1.00
H1314  H     0.34480   0.65996   0.68213   0.00000  Uiso   1.00
H1315  H     0.38594   0.66274   0.61705   0.00000  Uiso   1.00
H1316  H     0.65411   0.33504   0.62823   0.00000  Uiso   1.00
H1317  H     0.34800   0.42176   0.93278   0.00000  Uiso   1.00
H1318  H     0.62304   0.40881   0.97694   0.00000  Uiso   1.00
H1319  H     0.38229   0.42997   0.50873   0.00000  Uiso   1.00
H1320  H     0.65708   0.41307   0.55057   0.00000  Uiso   1.00
H1321  H     0.66653   0.34636   0.50099   0.00000  Uiso   1.00
H1322  H     0.38445   0.35533   0.52574   0.00000  Uiso   1.00
H1323  H     0.39140   0.36311   0.95809   0.00000  Uiso   1.00
H1324  H     0.39544   0.45801   0.68727   0.00000  Uiso   1.00
H1325  H     0.60442   0.44982   0.91343   0.00000  Uiso   1.00
H1326  H     0.46817   0.50844   0.59117   0.00000  Uiso   1.00
H1327  H     0.39243   0.53597   0.90964   0.00000  Uiso   1.00
H1328  H     0.43234   0.54381   0.54803   0.00000  Uiso   1.00
H1329  H     0.37701   0.56038   0.99890   0.00000  Uiso   1.00
I1330  I     0.65201   0.50636   0.58810   0.00000  Uiso   1.00
N1331  N     0.38265   0.49999   0.74999   0.00000  Uiso   1.00
N1332  N     0.61735   0.50002   0.74999   0.00000  Uiso   1.00
O1333  O     0.46042   0.56011   0.75000   0.00000  Uiso   1.00
O1334  O     0.59466   0.54815   0.81976   0.00000  Uiso   1.00
O1335  O     0.63735   0.44901   0.68218   0.00000  Uiso   1.00
O1336  O     0.64873   0.47006   0.98038   0.00000  Uiso   1.00
O1337  O     0.53961   0.56012   0.75000   0.00000  Uiso   1.00
O1338  O     0.44108   0.49998   0.82549   0.00000  Uiso   1.00
O1339  O     0.52027   0.49999   0.82549   0.00000  Uiso   1.00
O1340  O     0.46039   0.43988   0.74999   0.00000  Uiso   1.00
O1341  O     0.53958   0.43989   0.74999   0.00000  Uiso   1.00
O1342  O     0.47973   0.50001   0.67451   0.00000  Uiso   1.00
O1343  O     0.55892   0.50002   0.67451   0.00000  Uiso   1.00
O1344  O     0.41471   0.37351   0.74564   0.00000  Uiso   1.00
C1345  C     0.83297   0.57927   0.75120   0.00000  Uiso   1.00
C1346  C     0.79219   0.50255   0.90676   0.00000  Uiso   1.00
C1347  C     0.87084   0.64554   0.76312   0.00000  Uiso   1.00
C1348  C     0.80723   0.49903   0.84991   0.00000  Uiso   1.00
C1349  C     0.86980   0.35477   0.76463   0.00000  Uiso   1.00
C1350  C     0.83030   0.37605   0.75619   0.00000  Uiso   1.00
C1351  C     0.78892   0.35405   0.75185   0.00000  Uiso   1.00
C1352  C     0.79070   0.64482   0.74946   0.00000  Uiso   1.00
C1353  C     0.83177   0.62381   0.75427   0.00000  Uiso   1.00
C1354  C     0.96487   0.52492   0.78461   0.00000  Uiso   1.00
C1355  C     0.68183   0.52389   0.78481   0.00000  Uiso   1.00
C1356  C     0.81462   0.50443   0.98758   0.00000  Uiso   1.00
C1357  C     0.70140   0.47583   0.71578   0.00000  Uiso   1.00
C1358  C     0.98470   0.47411   0.71716   0.00000  Uiso   1.00
C1359  C     0.83254   0.42070   0.75203   0.00000  Uiso   1.00
C1360  C     0.85974   0.50063   0.64977   0.00000  Uiso   1.00
C1361  C     0.93402   0.47836   0.50969   0.00000  Uiso   1.00
C1362  C     0.87523   0.49874   0.59235   0.00000  Uiso   1.00
C1363  C     0.75004   0.52588   0.93110   0.00000  Uiso   1.00
C1364  C     0.74126   0.54007   0.98178   0.00000  Uiso   1.00
C1365  C     0.77312   0.52984   0.50982   0.00000  Uiso   1.00
C1366  C     0.71420   0.38307   0.79482   0.00000  Uiso   1.00
C1367  C     0.82403   0.49043   0.93544   0.00000  Uiso   1.00
C1368  C     0.67485   0.34990   0.81006   0.00000  Uiso   1.00
C1369  C     0.96407   0.36496   0.85430   0.00000  Uiso   1.00
C1370  C     0.94408   0.57996   0.84699   0.00000  Uiso   1.00
C1371  C     0.94746   0.56477   0.89919   0.00000  Uiso   1.00
C1372  C     0.96900   0.59748   0.92714   0.00000  Uiso   1.00
C1373  C     0.97692   0.40686   0.69103   0.00000  Uiso   1.00
C1374  C     0.68942   0.38837   0.65121   0.00000  Uiso   1.00
C1375  C     0.68478   0.34197   0.64436   0.00000  Uiso   1.00
C1376  C     0.99032   0.42705   0.97303   0.00000  Uiso   1.00
C1377  C     0.68287   0.41091   0.51066   0.00000  Uiso   1.00
C1378  C     0.84925   0.49537   0.51422   0.00000  Uiso   1.00
C1379  C     0.69890   0.36613   0.99796   0.00000  Uiso   1.00
C1380  C     0.89590   0.47897   0.98634   0.00000  Uiso   1.00
C1381  C     0.90347   0.46398   0.93565   0.00000  Uiso   1.00
C1382  C     0.86639   0.46634   0.91259   0.00000  Uiso   1.00
C1383  C     0.83871   0.50195   0.56778   0.00000  Uiso   1.00
C1384  C     0.92428   0.49189   0.56156   0.00000  Uiso   1.00
Cu1385 Cu    0.78645   0.49999   0.75000   0.00000  Uiso   1.00
Cu1386 Cu    0.88022   0.50001   0.75000   0.00000  Uiso   1.00
H1387  H     0.90011   0.37096   0.77204   0.00000  Uiso   1.00
H1388  H     0.87262   0.45046   0.87563   0.00000  Uiso   1.00
H1389  H     0.90229   0.62975   0.76852   0.00000  Uiso   1.00
H1390  H     0.69632   0.41276   0.79139   0.00000  Uiso   1.00
H1391  H     0.73163   0.38795   0.82638   0.00000  Uiso   1.00
H1392  H     0.99562   0.34115   0.77620   0.00000  Uiso   1.00
H1393  H     0.69081   0.65559   0.82245   0.00000  Uiso   1.00
H1394  H     0.97511   0.37122   0.88970   0.00000  Uiso   1.00
H1395  H     0.93527   0.34113   0.86301   0.00000  Uiso   1.00
H1396  H     0.94827   0.39332   0.84328   0.00000  Uiso   1.00
H1397  H     0.91560   0.60453   0.85547   0.00000  Uiso   1.00
H1398  H     0.75986   0.62836   0.74339   0.00000  Uiso   1.00
H1399  H     0.97817   0.59485   0.82336   0.00000  Uiso   1.00
H1400  H     0.91010   0.55697   0.92408   0.00000  Uiso   1.00
H1401  H     0.97044   0.53650   0.89354   0.00000  Uiso   1.00
H1402  H     0.67343   0.60530   0.90340   0.00000  Uiso   1.00
H1403  H     0.97057   0.58555   0.96481   0.00000  Uiso   1.00
H1404  H     0.94574   0.62569   0.93477   0.00000  Uiso   1.00
H1405  H     0.94436   0.39090   0.68587   0.00000  Uiso   1.00
H1406  H     0.97761   0.40064   0.73119   0.00000  Uiso   1.00
H1407  H     0.69555   0.40309   0.61323   0.00000  Uiso   1.00
H1408  H     0.72224   0.39387   0.66405   0.00000  Uiso   1.00
H1409  H     0.69435   0.54179   0.81237   0.00000  Uiso   1.00
H1410  H     0.67813   0.65996   0.68213   0.00000  Uiso   1.00
H1411  H     0.71927   0.66274   0.61705   0.00000  Uiso   1.00
H1412  H     0.98744   0.33504   0.62823   0.00000  Uiso   1.00
H1413  H     0.68133   0.42176   0.93278   0.00000  Uiso   1.00
H1414  H     0.95638   0.40881   0.97694   0.00000  Uiso   1.00
H1415  H     0.71562   0.42997   0.50873   0.00000  Uiso   1.00
H1416  H     0.99041   0.41307   0.55057   0.00000  Uiso   1.00
H1417  H     0.99987   0.34636   0.50099   0.00000  Uiso   1.00
H1418  H     0.71778   0.35533   0.52574   0.00000  Uiso   1.00
H1419  H     0.72473   0.36311   0.95809   0.00000  Uiso   1.00
H1420  H     0.72878   0.45801   0.68727   0.00000  Uiso   1.00
H1421  H     0.93775   0.44982   0.91343   0.00000  Uiso   1.00
H1422  H     0.80150   0.50844   0.59117   0.00000  Uiso   1.00
H1423  H     0.72576   0.53597   0.90964   0.00000  Uiso   1.00
H1424  H     0.76568   0.54381   0.54803   0.00000  Uiso   1.00
H1425  H     0.71034   0.56038   0.99890   0.00000  Uiso   1.00
I1426  I     0.98534   0.50636   0.58810   0.00000  Uiso   1.00
N1427  N     0.71598   0.49999   0.74999   0.00000  Uiso   1.00
N1428  N     0.95069   0.50002   0.74999   0.00000  Uiso   1.00
O1429  O     0.79375   0.56011   0.75000   0.00000  Uiso   1.00
O1430  O     0.92800   0.54815   0.81976   0.00000  Uiso   1.00
O1431  O     0.97069   0.44901   0.68218   0.00000  Uiso   1.00
O1432  O     0.98207   0.47006   0.98038   0.00000  Uiso   1.00
O1433  O     0.87294   0.56012   0.75000   0.00000  Uiso   1.00
O1434  O     0.77441   0.49998   0.82549   0.00000  Uiso   1.00
O1435  O     0.85360   0.49999   0.82549   0.00000  Uiso   1.00
O1436  O     0.79373   0.43988   0.74999   0.00000  Uiso   1.00
O1437  O     0.87292   0.43989   0.74999   0.00000  Uiso   1.00
O1438  O     0.81306   0.50001   0.67451   0.00000  Uiso   1.00
O1439  O     0.89225   0.50002   0.67451   0.00000  Uiso   1.00
O1440  O     0.74804   0.37351   0.74564   0.00000  Uiso   1.00
C1441  C     0.16631   0.91260   0.75120   0.00000  Uiso   1.00
C1442  C     0.12553   0.83588   0.90676   0.00000  Uiso   1.00
C1443  C     0.20417   0.97887   0.76312   0.00000  Uiso   1.00
C1444  C     0.14057   0.83236   0.84991   0.00000  Uiso   1.00
C1445  C     0.20313   0.68811   0.76463   0.00000  Uiso   1.00
C1446  C     0.16363   0.70938   0.75619   0.00000  Uiso   1.00
C1447  C     0.12225   0.68738   0.75185   0.00000  Uiso   1.00
C1448  C     0.12403   0.97815   0.74946   0.00000  Uiso   1.00
C1449  C     0.16510   0.95715   0.75427   0.00000  Uiso   1.00
C1450  C     0.29821   0.85825   0.78461   0.00000  Uiso   1.00
C1451  C     0.01517   0.85723   0.78481   0.00000  Uiso   1.00
C1452  C     0.14795   0.83777   0.98758   0.00000  Uiso   1.00
C1453  C     0.03473   0.80916   0.71578   0.00000  Uiso   1.00
C1454  C     0.31804   0.80745   0.71716   0.00000  Uiso   1.00
C1455  C     0.16587   0.75403   0.75203   0.00000  Uiso   1.00
C1456  C     0.19307   0.83396   0.64977   0.00000  Uiso   1.00
C1457  C     0.26736   0.81169   0.50969   0.00000  Uiso   1.00
C1458  C     0.20856   0.83207   0.59235   0.00000  Uiso   1.00
C1459  C     0.08337   0.85922   0.93110   0.00000  Uiso   1.00
C1460  C     0.07460   0.87340   0.98178   0.00000  Uiso   1.00
C1461  C     0.10645   0.86318   0.50982   0.00000  Uiso   1.00
C1462  C     0.04753   0.71641   0.79482   0.00000  Uiso   1.00
C1463  C     0.15736   0.82377   0.93544   0.00000  Uiso   1.00
C1464  C     0.00819   0.68324   0.81006   0.00000  Uiso   1.00
C1465  C     0.29740   0.69830   0.85430   0.00000  Uiso   1.00
C1466  C     0.27741   0.91330   0.84699   0.00000  Uiso   1.00
C1467  C     0.28079   0.89811   0.89919   0.00000  Uiso   1.00
C1468  C     0.30233   0.93081   0.92714   0.00000  Uiso   1.00
C1469  C     0.31025   0.74020   0.69103   0.00000  Uiso   1.00
C1470  C     0.02275   0.72171   0.65121   0.00000  Uiso   1.00
C1471  C     0.01811   0.67530   0.64436   0.00000  Uiso   1.00
C1472  C     0.32366   0.76038   0.97303   0.00000  Uiso   1.00
C1473  C     0.01621   0.74425   0.51066   0.00000  Uiso   1.00
C1474  C     0.18258   0.82870   0.51422   0.00000  Uiso   1.00
C1475  C     0.03224   0.69946   0.99796   0.00000  Uiso   1.00
C1476  C     0.22923   0.81230   0.98634   0.00000  Uiso   1.00
C1477  C     0.23680   0.79731   0.93565   0.00000  Uiso   1.00
C1478  C     0.19972   0.79968   0.91259   0.00000  Uiso   1.00
C1479  C     0.17204   0.83528   0.56778   0.00000  Uiso   1.00
C1480  C     0.25762   0.82522   0.56156   0.00000  Uiso   1.00
Cu1481 Cu    0.11978   0.83333   0.75000   0.00000  Uiso   1.00
Cu1482 Cu    0.21355   0.83334   0.75000   0.00000  Uiso   1.00
H1483  H     0.23344   0.70429   0.77204   0.00000  Uiso   1.00
H1484  H     0.20596   0.78379   0.87563   0.00000  Uiso   1.00
H1485  H     0.23563   0.96308   0.76852   0.00000  Uiso   1.00
H1486  H     0.02965   0.74610   0.79139   0.00000  Uiso   1.00
H1487  H     0.06496   0.72128   0.82638   0.00000  Uiso   1.00
H1488  H     0.32895   0.67448   0.77620   0.00000  Uiso   1.00
H1489  H     0.02415   0.98892   0.82245   0.00000  Uiso   1.00
H1490  H     0.30844   0.70455   0.88970   0.00000  Uiso   1.00
H1491  H     0.26860   0.67447   0.86301   0.00000  Uiso   1.00
H1492  H     0.28160   0.72665   0.84328   0.00000  Uiso   1.00
H1493  H     0.24893   0.93787   0.85547   0.00000  Uiso   1.00
H1494  H     0.09319   0.96169   0.74339   0.00000  Uiso   1.00
H1495  H     0.31150   0.92818   0.82336   0.00000  Uiso   1.00
H1496  H     0.24343   0.89030   0.92408   0.00000  Uiso   1.00
H1497  H     0.30377   0.86983   0.89354   0.00000  Uiso   1.00
H1498  H     0.00676   0.93863   0.90340   0.00000  Uiso   1.00
H1499  H     0.30390   0.91889   0.96481   0.00000  Uiso   1.00
H1500  H     0.27907   0.95902   0.93477   0.00000  Uiso   1.00
H1501  H     0.27770   0.72423   0.68587   0.00000  Uiso   1.00
H1502  H     0.31095   0.73397   0.73119   0.00000  Uiso   1.00
H1503  H     0.02888   0.73642   0.61323   0.00000  Uiso   1.00
H1504  H     0.05557   0.72721   0.66405   0.00000  Uiso   1.00
H1505  H     0.02769   0.87513   0.81237   0.00000  Uiso   1.00
H1506  H     0.01147   0.99329   0.68213   0.00000  Uiso   1.00
H1507  H     0.05260   0.99607   0.61705   0.00000  Uiso   1.00
H1508  H     0.32077   0.66837   0.62823   0.00000  Uiso   1.00
H1509  H     0.01467   0.75509   0.93278   0.00000  Uiso   1.00
H1510  H     0.28971   0.74214   0.97694   0.00000  Uiso   1.00
H1511  H     0.04895   0.76330   0.50873   0.00000  Uiso   1.00
H1512  H     0.32374   0.74640   0.55057   0.00000  Uiso   1.00
H1513  H     0.33320   0.67970   0.50099   0.00000  Uiso   1.00
H1514  H     0.05111   0.68866   0.52574   0.00000  Uiso   1.00
H1515  H     0.05806   0.69644   0.95809   0.00000  Uiso   1.00
H1516  H     0.06211   0.79134   0.68727   0.00000  Uiso   1.00
H1517  H     0.27108   0.78315   0.91343   0.00000  Uiso   1.00
H1518  H     0.13484   0.84178   0.59117   0.00000  Uiso   1.00
H1519  H     0.05909   0.86931   0.90964   0.00000  Uiso   1.00
H1520  H     0.09901   0.87714   0.54803   0.00000  Uiso   1.00
H1521  H     0.04368   0.89372   0.99890   0.00000  Uiso   1.00
I1522  I     0.31867   0.83970   0.58810   0.00000  Uiso   1.00
N1523  N     0.04931   0.83332   0.74999   0.00000  Uiso   1.00
N1524  N     0.28402   0.83335   0.74999   0.00000  Uiso   1.00
O1525  O     0.12708   0.89345   0.75000   0.00000  Uiso   1.00
O1526  O     0.26133   0.88148   0.81976   0.00000  Uiso   1.00
O1527  O     0.30402   0.78235   0.68218   0.00000  Uiso   1.00
O1528  O     0.31540   0.80339   0.98038   0.00000  Uiso   1.00
O1529  O     0.20627   0.89346   0.75000   0.00000  Uiso   1.00
O1530  O     0.10775   0.83332   0.82549   0.00000  Uiso   1.00
O1531  O     0.18694   0.83333   0.82549   0.00000  Uiso   1.00
O1532  O     0.12706   0.77321   0.74999   0.00000  Uiso   1.00
O1533  O     0.20625   0.77322   0.74999   0.00000  Uiso   1.00
O1534  O     0.14640   0.83334   0.67451   0.00000  Uiso   1.00
O1535  O     0.22559   0.83335   0.67451   0.00000  Uiso   1.00
O1536  O     0.08138   0.70684   0.74564   0.00000  Uiso   1.00
C1537  C     0.49964   0.91260   0.75120   0.00000  Uiso   1.00
C1538  C     0.45886   0.83588   0.90676   0.00000  Uiso   1.00
C1539  C     0.53751   0.97887   0.76312   0.00000  Uiso   1.00
C1540  C     0.47390   0.83236   0.84991   0.00000  Uiso   1.00
C1541  C     0.53647   0.68811   0.76463   0.00000  Uiso   1.00
C1542  C     0.49697   0.70938   0.75619   0.00000  Uiso   1.00
C1543  C     0.45559   0.68738   0.75185   0.00000  Uiso   1.00
C1544  C     0.45737   0.97815   0.74946   0.00000  Uiso   1.00
C1545  C     0.49843   0.95715   0.75427   0.00000  Uiso   1.00
C1546  C     0.63154   0.85825   0.78461   0.00000  Uiso   1.00
C1547  C     0.34850   0.85723   0.78481   0.00000  Uiso   1.00
C1548  C     0.48128   0.83777   0.98758   0.00000  Uiso   1.00
C1549  C     0.36807   0.80916   0.71578   0.00000  Uiso   1.00
C1550  C     0.65137   0.80745   0.71716   0.00000  Uiso   1.00
C1551  C     0.49920   0.75403   0.75203   0.00000  Uiso   1.00
C1552  C     0.52641   0.83396   0.64977   0.00000  Uiso   1.00
C1553  C     0.60069   0.81169   0.50969   0.00000  Uiso   1.00
C1554  C     0.54189   0.83207   0.59235   0.00000  Uiso   1.00
C1555  C     0.41670   0.85922   0.93110   0.00000  Uiso   1.00
C1556  C     0.40793   0.87340   0.98178   0.00000  Uiso   1.00
C1557  C     0.43978   0.86318   0.50982   0.00000  Uiso   1.00
C1558  C     0.38087   0.71641   0.79482   0.00000  Uiso   1.00
C1559  C     0.49070   0.82377   0.93544   0.00000  Uiso   1.00
C1560  C     0.34152   0.68324   0.81006   0.00000  Uiso   1.00
C1561  C     0.63073   0.69830   0.85430   0.00000  Uiso   1.00
C1562  C     0.61074   0.91330   0.84699   0.00000  Uiso   1.00
C1563  C     0.61412   0.89811   0.89919   0.00000  Uiso   1.00
C1564  C     0.63566   0.93081   0.92714   0.00000  Uiso   1.00
C1565  C     0.64359   0.74020   0.69103   0.00000  Uiso   1.00
C1566  C     0.35609   0.72171   0.65121   0.00000  Uiso   1.00
C1567  C     0.35145   0.67530   0.64436   0.00000  Uiso   1.00
C1568  C     0.65699   0.76038   0.97303   0.00000  Uiso   1.00
C1569  C     0.34954   0.74425   0.51066   0.00000  Uiso   1.00
C1570  C     0.51591   0.82870   0.51422   0.00000  Uiso   1.00
C1571  C     0.36557   0.69946   0.99796   0.00000  Uiso   1.00
C1572  C     0.56256   0.81230   0.98634   0.00000  Uiso   1.00
C1573  C     0.57014   0.79731   0.93565   0.00000  Uiso   1.00
C1574  C     0.53305   0.79968   0.91259   0.00000  Uiso   1.00
C1575  C     0.50538   0.83528   0.56778   0.00000  Uiso   1.00
C1576  C     0.59095   0.82522   0.56156   0.00000  Uiso   1.00
Cu1577 Cu    0.45311   0.83333   0.75000   0.00000  Uiso   1.00
Cu1578 Cu    0.54689   0.83334   0.75000   0.00000  Uiso   1.00
H1579  H     0.56677   0.70429   0.77204   0.00000  Uiso   1.00
H1580  H     0.53929   0.78379   0.87563   0.00000  Uiso   1.00
H1581  H     0.56896   0.96308   0.76852   0.00000  Uiso   1.00
H1582  H     0.36298   0.74610   0.79139   0.00000  Uiso   1.00
H1583  H     0.39829   0.72128   0.82638   0.00000  Uiso   1.00
H1584  H     0.66228   0.67448   0.77620   0.00000  Uiso   1.00
H1585  H     0.35748   0.98892   0.82245   0.00000  Uiso   1.00
H1586  H     0.64178   0.70455   0.88970   0.00000  Uiso   1.00
H1587  H     0.60193   0.67447   0.86301   0.00000  Uiso   1.00
H1588  H     0.61493   0.72665   0.84328   0.00000  Uiso   1.00
H1589  H     0.58227   0.93787   0.85547   0.00000  Uiso   1.00
H1590  H     0.42653   0.96169   0.74339   0.00000  Uiso   1.00
H1591  H     0.64483   0.92818   0.82336   0.00000  Uiso   1.00
H1592  H     0.57676   0.89030   0.92408   0.00000  Uiso   1.00
H1593  H     0.63710   0.86983   0.89354   0.00000  Uiso   1.00
H1594  H     0.34009   0.93863   0.90340   0.00000  Uiso   1.00
H1595  H     0.63723   0.91889   0.96481   0.00000  Uiso   1.00
H1596  H     0.61241   0.95902   0.93477   0.00000  Uiso   1.00
H1597  H     0.61103   0.72423   0.68587   0.00000  Uiso   1.00
H1598  H     0.64428   0.73397   0.73119   0.00000  Uiso   1.00
H1599  H     0.36221   0.73642   0.61323   0.00000  Uiso   1.00
H1600  H     0.38890   0.72721   0.66405   0.00000  Uiso   1.00
H1601  H     0.36102   0.87513   0.81237   0.00000  Uiso   1.00
H1602  H     0.34480   0.99329   0.68213   0.00000  Uiso   1.00
H1603  H     0.38594   0.99607   0.61705   0.00000  Uiso   1.00
H1604  H     0.65411   0.66837   0.62823   0.00000  Uiso   1.00
H1605  H     0.34800   0.75509   0.93278   0.00000  Uiso   1.00
H1606  H     0.62304   0.74214   0.97694   0.00000  Uiso   1.00
H1607  H     0.38229   0.76330   0.50873   0.00000  Uiso   1.00
H1608  H     0.65708   0.74640   0.55057   0.00000  Uiso   1.00
H1609  H     0.66653   0.67970   0.50099   0.00000  Uiso   1.00
H1610  H     0.38445   0.68866   0.52574   0.00000  Uiso   1.00
H1611  H     0.39140   0.69644   0.95809   0.00000  Uiso   1.00
H1612  H     0.39544   0.79134   0.68727   0.00000  Uiso   1.00
H1613  H     0.60442   0.78315   0.91343   0.00000  Uiso   1.00
H1614  H     0.46817   0.84178   0.59117   0.00000  Uiso   1.00
H1615  H     0.39243   0.86931   0.90964   0.00000  Uiso   1.00
H1616  H     0.43234   0.87714   0.54803   0.00000  Uiso   1.00
H1617  H     0.37701   0.89372   0.99890   0.00000  Uiso   1.00
I1618  I     0.65201   0.83970   0.58810   0.00000  Uiso   1.00
N1619  N     0.38265   0.83332   0.74999   0.00000  Uiso   1.00
N1620  N     0.61735   0.83335   0.74999   0.00000  Uiso   1.00
O1621  O     0.46042   0.89345   0.75000   0.00000  Uiso   1.00
O1622  O     0.59466   0.88148   0.81976   0.00000  Uiso   1.00
O1623  O     0.63735   0.78235   0.68218   0.00000  Uiso   1.00
O1624  O     0.64873   0.80339   0.98038   0.00000  Uiso   1.00
O1625  O     0.53961   0.89346   0.75000   0.00000  Uiso   1.00
O1626  O     0.44108   0.83332   0.82549   0.00000  Uiso   1.00
O1627  O     0.52027   0.83333   0.82549   0.00000  Uiso   1.00
O1628  O     0.46039   0.77321   0.74999   0.00000  Uiso   1.00
O1629  O     0.53958   0.77322   0.74999   0.00000  Uiso   1.00
O1630  O     0.47973   0.83334   0.67451   0.00000  Uiso   1.00
O1631  O     0.55892   0.83335   0.67451   0.00000  Uiso   1.00
O1632  O     0.41471   0.70684   0.74564   0.00000  Uiso   1.00
C1633  C     0.83297   0.91260   0.75120   0.00000  Uiso   1.00
C1634  C     0.79219   0.83588   0.90676   0.00000  Uiso   1.00
C1635  C     0.87084   0.97887   0.76312   0.00000  Uiso   1.00
C1636  C     0.80723   0.83236   0.84991   0.00000  Uiso   1.00
C1637  C     0.86980   0.68811   0.76463   0.00000  Uiso   1.00
C1638  C     0.83030   0.70938   0.75619   0.00000  Uiso   1.00
C1639  C     0.78892   0.68738   0.75185   0.00000  Uiso   1.00
C1640  C     0.79070   0.97815   0.74946   0.00000  Uiso   1.00
C1641  C     0.83177   0.95715   0.75427   0.00000  Uiso   1.00
C1642  C     0.96487   0.85825   0.78461   0.00000  Uiso   1.00
C1643  C     0.68183   0.85723   0.78481   0.00000  Uiso   1.00
C1644  C     0.81462   0.83777   0.98758   0.00000  Uiso   1.00
C1645  C     0.70140   0.80916   0.71578   0.00000  Uiso   1.00
C1646  C     0.98470   0.80745   0.71716   0.00000  Uiso   1.00
C1647  C     0.83254   0.75403   0.75203   0.00000  Uiso   1.00
C1648  C     0.85974   0.83396   0.64977   0.00000  Uiso   1.00
C1649  C     0.93402   0.81169   0.50969   0.00000  Uiso   1.00
C1650  C     0.87523   0.83207   0.59235   0.00000  Uiso   1.00
C1651  C     0.75004   0.85922   0.93110   0.00000  Uiso   1.00
C1652  C     0.74126   0.87340   0.98178   0.00000  Uiso   1.00
C1653  C     0.77312   0.86318   0.50982   0.00000  Uiso   1.00
C1654  C     0.71420   0.71641   0.79482   0.00000  Uiso   1.00
C1655  C     0.82403   0.82377   0.93544   0.00000  Uiso   1.00
C1656  C     0.67485   0.68324   0.81006   0.00000  Uiso   1.00
C1657  C     0.96407   0.69830   0.85430   0.00000  Uiso   1.00
C1658  C     0.94408   0.91330   0.84699   0.00000  Uiso   1.00
C1659  C     0.94746   0.89811   0.89919   0.00000  Uiso   1.00
C1660  C     0.96900   0.93081   0.92714   0.00000  Uiso   1.00
C1661  C     0.97692   0.74020   0.69103   0.00000  Uiso   1.00
C1662  C     0.68942   0.72171   0.65121   0.00000  Uiso   1.00
C1663  C     0.68478   0.67530   0.64436   0.00000  Uiso   1.00
C1664  C     0.99032   0.76038   0.97303   0.00000  Uiso   1.00
C1665  C     0.68287   0.74425   0.51066   0.00000  Uiso   1.00
C1666  C     0.84925   0.82870   0.51422   0.00000  Uiso   1.00
C1667  C     0.69890   0.69946   0.99796   0.00000  Uiso   1.00
C1668  C     0.89590   0.81230   0.98634   0.00000  Uiso   1.00
C1669  C     0.90347   0.79731   0.93565   0.00000  Uiso   1.00
C1670  C     0.86639   0.79968   0.91259   0.00000  Uiso   1.00
C1671  C     0.83871   0.83528   0.56778   0.00000  Uiso   1.00
C1672  C     0.92428   0.82522   0.56156   0.00000  Uiso   1.00
Cu1673 Cu    0.78645   0.83333   0.75000   0.00000  Uiso   1.00
Cu1674 Cu    0.88022   0.83334   0.75000   0.00000  Uiso   1.00
H1675  H     0.90011   0.70429   0.77204   0.00000  Uiso   1.00
H1676  H     0.87262   0.78379   0.87563   0.00000  Uiso   1.00
H1677  H     0.90229   0.96308   0.76852   0.00000  Uiso   1.00
H1678  H     0.69632   0.74610   0.79139   0.00000  Uiso   1.00
H1679  H     0.73163   0.72128   0.82638   0.00000  Uiso   1.00
H1680  H     0.99562   0.67448   0.77620   0.00000  Uiso   1.00
H1681  H     0.69081   0.98892   0.82245   0.00000  Uiso   1.00
H1682  H     0.97511   0.70455   0.88970   0.00000  Uiso   1.00
H1683  H     0.93527   0.67447   0.86301   0.00000  Uiso   1.00
H1684  H     0.94827   0.72665   0.84328   0.00000  Uiso   1.00
H1685  H     0.91560   0.93787   0.85547   0.00000  Uiso   1.00
H1686  H     0.75986   0.96169   0.74339   0.00000  Uiso   1.00
H1687  H     0.97817   0.92818   0.82336   0.00000  Uiso   1.00
H1688  H     0.91010   0.89030   0.92408   0.00000  Uiso   1.00
H1689  H     0.97044   0.86983   0.89354   0.00000  Uiso   1.00
H1690  H     0.67343   0.93863   0.90340   0.00000  Uiso   1.00
H1691  H     0.97057   0.91889   0.96481   0.00000  Uiso   1.00
H1692  H     0.94574   0.95902   0.93477   0.00000  Uiso   1.00
H1693  H     0.94436   0.72423   0.68587   0.00000  Uiso   1.00
H1694  H     0.97761   0.73397   0.73119   0.00000  Uiso   1.00
H1695  H     0.69555   0.73642   0.61323   0.00000  Uiso   1.00
H1696  H     0.72224   0.72721   0.66405   0.00000  Uiso   1.00
H1697  H     0.69435   0.87513   0.81237   0.00000  Uiso   1.00
H1698  H     0.67813   0.99329   0.68213   0.00000  Uiso   1.00
H1699  H     0.71927   0.99607   0.61705   0.00000  Uiso   1.00
H1700  H     0.98744   0.66837   0.62823   0.00000  Uiso   1.00
H1701  H     0.68133   0.75509   0.93278   0.00000  Uiso   1.00
H1702  H     0.95638   0.74214   0.97694   0.00000  Uiso   1.00
H1703  H     0.71562   0.76330   0.50873   0.00000  Uiso   1.00
H1704  H     0.99041   0.74640   0.55057   0.00000  Uiso   1.00
H1705  H     0.99987   0.67970   0.50099   0.00000  Uiso   1.00
H1706  H     0.71778   0.68866   0.52574   0.00000  Uiso   1.00
H1707  H     0.72473   0.69644   0.95809   0.00000  Uiso   1.00
H1708  H     0.72878   0.79134   0.68727   0.00000  Uiso   1.00
H1709  H     0.93775   0.78315   0.91343   0.00000  Uiso   1.00
H1710  H     0.80150   0.84178   0.59117   0.00000  Uiso   1.00
H1711  H     0.72576   0.86931   0.90964   0.00000  Uiso   1.00
H1712  H     0.76568   0.87714   0.54803   0.00000  Uiso   1.00
H1713  H     0.71034   0.89372   0.99890   0.00000  Uiso   1.00
I1714  I     0.98534   0.83970   0.58810   0.00000  Uiso   1.00
N1715  N     0.71598   0.83332   0.74999   0.00000  Uiso   1.00
N1716  N     0.95069   0.83335   0.74999   0.00000  Uiso   1.00
O1717  O     0.79375   0.89345   0.75000   0.00000  Uiso   1.00
O1718  O     0.92800   0.88148   0.81976   0.00000  Uiso   1.00
O1719  O     0.97069   0.78235   0.68218   0.00000  Uiso   1.00
O1720  O     0.98207   0.80339   0.98038   0.00000  Uiso   1.00
O1721  O     0.87294   0.89346   0.75000   0.00000  Uiso   1.00
O1722  O     0.77441   0.83332   0.82549   0.00000  Uiso   1.00
O1723  O     0.85360   0.83333   0.82549   0.00000  Uiso   1.00
O1724  O     0.79373   0.77321   0.74999   0.00000  Uiso   1.00
O1725  O     0.87292   0.77322   0.74999   0.00000  Uiso   1.00
O1726  O     0.81306   0.83334   0.67451   0.00000  Uiso   1.00
O1727  O     0.89225   0.83335   0.67451   0.00000  Uiso   1.00
O1728  O     0.74804   0.70684   0.74564   0.00000  Uiso   1.00
loop_
_geom_bond_atom_site_label_1
_geom_bond_atom_site_label_2
_geom_bond_distance
_geom_bond_site_symmetry_2
_ccdc_geom_bond_type
C1     O85     1.292   .     A
C1     C9      1.449   .     S
C1     O89     1.291   .     A
C2     C4      1.468   .     S
C2     C23     1.420   .     A
C2     C19     1.400   .     A
C3     H45     1.083   .     S
C3     C9      1.399   .     A
C3     C293    1.384   .     S
C4     O91     1.292   .     A
C4     O90     1.299   .     A
C5     C6      1.401   .     A
C5     H43     1.081   .     S
C5     C579    1.384   1_545 S
C6     C15     1.459   .     S
C6     C7      1.416   .     A
C7     O96     1.383   .     S
C7     C584    1.385   1_545 S
C8     C9      1.398   .     A
C8     H54     1.084   .     S
C8     C295    1.385   .     S
C10    O86     1.396   .     S
C10    N84     1.375   .     A
C10    C107    1.439   .     S
C11    N83     1.363   .     A
C11    H65     1.078   .     S
C11    C202    1.439   1_455 S
C12    C23     1.417   .     A
C12    C885    1.414   .     S
C12    C898    1.421   .     S
C13    H76     1.077   .     S
C13    N83     1.358   .     A
C13    C206    1.420   1_455 S
C14    N84     1.375   .     A
C14    O87     1.384   .     S
C14    C109    1.420   .     S
C15    O92     1.288   .     A
C15    O93     1.300   .     A
C16    O95     1.297   .     A
C16    O94     1.301   .     A
C16    C18     1.480   .     S
C17    C40     1.405   .     A
C17    C900    1.414   1_554 S
C17    O952    1.387   1_554 S
C18    C40     1.414   .     A
C18    C39     1.399   .     A
C19    C20     1.385   .     A
C19    H79     1.083   .     S
C20    H81     1.082   .     S
C20    C885    1.392   .     S
C21    H80     1.079   .     S
C21    C876    1.414   1_554 S
C21    C884    1.392   1_554 S
C22    H47     1.118   .     S
C22    H46     1.110   .     S
C22    C24     1.531   .     S
C22    O96     1.417   .     S
C23    C38     1.410   .     A
C24    C217    1.526   1_455 S
C24    H240    1.110   1_455 S
C24    H625    1.110   1_545 S
C25    H50     1.109   .     S
C25    H51     1.108   .     S
C25    H52     1.111   .     S
C25    C120    1.526   .     S
C26    H55     1.111   .     S
C26    C27     1.535   .     S
C26    O86     1.412   .     S
C26    H53     1.110   .     S
C27    H57     1.110   .     S
C27    H56     1.111   .     S
C27    C28     1.525   .     S
C28    H60     1.111   .     S
C28    H59     1.110   .     S
C28    H154    1.111   .     S
C29    H61     1.109   .     S
C29    H62     1.114   .     S
C29    O87     1.417   .     S
C29    C126    1.536   .     S
C30    H64     1.107   .     S
C30    C31     1.527   .     S
C30    H63     1.108   .     S
C30    C221    1.536   1_455 S
C31    H642    1.110   1_545 S
C31    H643    1.110   1_545 S
C31    H260    1.111   1_455 S
C32    H70     1.117   .     S
C32    O88     1.418   .     S
C32    C993    1.526   .     S
C32    H165    1.111   .     S
C33    H71     1.112   .     S
C33    C1088   1.526   1_454 S
C33    C899    1.527   1_554 S
C33    H264    1.110   1_455 S
C34    C39     1.399   .     A
C34    C876    1.421   1_554 S
C34    C900    1.417   1_554 S
C35    H75     1.111   .     S
C35    C897    1.527   .     S
C35    H1129   1.111   1_455 S
C35    H938    1.110   .     S
C36    C37     1.398   .     A
C36    C881    1.414   .     S
C36    C898    1.417   .     S
C37    C38     1.384   .     A
C37    H77     1.080   .     S
C38    H44     1.080   .     S
C39    H78     1.080   .     S
C40    I82     2.125   .     S
Cu41   Cu42    2.680   .     S
Cu41   O94     1.952   .     S
Cu41   O85     1.967   .     S
Cu41   O90     1.964   .     S
Cu41   O92     1.966   .     S
Cu41   N83     2.014   .     S
Cu42   O93     1.967   .     S
Cu42   O91     1.952   .     S
Cu42   O95     1.964   .     S
Cu42   N84     2.014   .     S
Cu42   O89     1.966   .     S
H48    C120    1.110   .     S
H49    C312    1.110   .     S
H58    C220    1.111   1_455 S
H66    C319    1.110   .     S
H67    C319    1.110   .     S
H68    C127    1.111   .     S
H69    C224    1.111   1_455 S
H72    C129    1.110   .     S
H73    C995    1.111   1_554 S
H74    C899    1.110   1_554 S
O88    C881    1.387   .     S
C97    O181    1.292   .     A
C97    C105    1.449   .     S
C97    O185    1.291   .     A
C98    C100    1.468   .     S
C98    C119    1.420   .     A
C98    C115    1.400   .     A
C99    H141    1.083   .     S
C99    C105    1.399   .     A
C99    C389    1.384   .     S
C100   O187    1.292   .     A
C100   O186    1.299   .     A
C101   C102    1.401   .     A
C101   H139    1.081   .     S
C101   C675    1.384   1_545 S
C102   C111    1.459   .     S
C102   C103    1.416   .     A
C103   O192    1.383   .     S
C103   C680    1.385   1_545 S
C104   C105    1.398   .     A
C104   H150    1.084   .     S
C104   C391    1.385   .     S
C106   O182    1.396   .     S
C106   N180    1.375   .     A
C106   C203    1.439   .     S
C107   N179    1.363   .     A
C107   H161    1.078   .     S
C108   C119    1.417   .     A
C108   C981    1.414   .     S
C108   C994    1.421   .     S
C109   H172    1.077   .     S
C109   N179    1.358   .     A
C110   N180    1.375   .     A
C110   O183    1.384   .     S
C110   C205    1.420   .     S
C111   O188    1.288   .     A
C111   O189    1.300   .     A
C112   O191    1.297   .     A
C112   O190    1.301   .     A
C112   C114    1.480   .     S
C113   C136    1.405   .     A
C113   C996    1.414   1_554 S
C113   O1048   1.387   1_554 S
C114   C136    1.414   .     A
C114   C135    1.399   .     A
C115   C116    1.385   .     A
C115   H175    1.083   .     S
C116   H177    1.082   .     S
C116   C981    1.392   .     S
C117   H176    1.079   .     S
C117   C972    1.414   1_554 S
C117   C980    1.392   1_554 S
C118   H143    1.118   .     S
C118   H142    1.110   .     S
C118   C120    1.531   .     S
C118   O192    1.417   .     S
C119   C134    1.410   .     A
C120   H721    1.110   1_545 S
C121   H146    1.109   .     S
C121   H147    1.108   .     S
C121   H148    1.111   .     S
C121   C216    1.526   .     S
C122   H151    1.111   .     S
C122   C123    1.535   .     S
C122   O182    1.412   .     S
C122   H149    1.110   .     S
C123   H153    1.110   .     S
C123   H152    1.111   .     S
C123   C124    1.525   .     S
C124   H156    1.111   .     S
C124   H155    1.110   .     S
C124   H250    1.111   .     S
C125   H157    1.109   .     S
C125   H158    1.114   .     S
C125   O183    1.417   .     S
C125   C222    1.536   .     S
C126   H160    1.107   .     S
C126   C127    1.527   .     S
C126   H159    1.108   .     S
C127   H738    1.110   1_545 S
C127   H739    1.110   1_545 S
C128   H166    1.117   .     S
C128   O184    1.418   .     S
C128   C1089   1.526   .     S
C128   H261    1.111   .     S
C129   H167    1.112   .     S
C129   C896    1.526   1_554 S
C129   C995    1.527   1_554 S
C130   C135    1.399   .     A
C130   C972    1.421   1_554 S
C130   C996    1.417   1_554 S
C131   H171    1.111   .     S
C131   C993    1.527   .     S
C131   H937    1.111   .     S
C131   H1034   1.110   .     S
C132   C133    1.398   .     A
C132   C977    1.414   .     S
C132   C994    1.417   .     S
C133   C134    1.384   .     A
C133   H173    1.080   .     S
C134   H140    1.080   .     S
C135   H174    1.080   .     S
C136   I178    2.125   .     S
Cu137  Cu138   2.680   .     S
Cu137  O190    1.952   .     S
Cu137  O181    1.967   .     S
Cu137  O186    1.964   .     S
Cu137  O188    1.966   .     S
Cu137  N179    2.014   .     S
Cu138  O189    1.967   .     S
Cu138  O187    1.952   .     S
Cu138  O191    1.964   .     S
Cu138  N180    2.014   .     S
Cu138  O185    1.966   .     S
H144   C216    1.110   .     S
H145   C408    1.110   .     S
H162   C415    1.110   .     S
H163   C415    1.110   .     S
H164   C223    1.111   .     S
H168   C225    1.110   .     S
H169   C1091   1.111   1_554 S
H170   C995    1.110   1_554 S
O184   C977    1.387   .     S
C193   O277    1.292   .     A
C193   C201    1.449   .     S
C193   O281    1.291   .     A
C194   C196    1.468   .     S
C194   C215    1.420   .     A
C194   C211    1.400   .     A
C195   H237    1.083   .     S
C195   C201    1.399   .     A
C195   C485    1.384   .     S
C196   O283    1.292   .     A
C196   O282    1.299   .     A
C197   C198    1.401   .     A
C197   H235    1.081   .     S
C197   C771    1.384   1_545 S
C198   C207    1.459   .     S
C198   C199    1.416   .     A
C199   O288    1.383   .     S
C199   C776    1.385   1_545 S
C200   C201    1.398   .     A
C200   H246    1.084   .     S
C200   C487    1.385   .     S
C202   O278    1.396   .     S
C202   N276    1.375   .     A
C202   C11     1.439   1_655 S
C203   N275    1.363   .     A
C203   H257    1.078   .     S
C204   C215    1.417   .     A
C204   C1077   1.414   .     S
C204   C1090   1.421   .     S
C205   H268    1.077   .     S
C205   N275    1.358   .     A
C206   N276    1.375   .     A
C206   O279    1.384   .     S
C206   C13     1.420   1_655 S
C207   O284    1.288   .     A
C207   O285    1.300   .     A
C208   O287    1.297   .     A
C208   O286    1.301   .     A
C208   C210    1.480   .     S
C209   C232    1.405   .     A
C209   C1092   1.414   1_554 S
C209   O1144   1.387   1_554 S
C210   C232    1.414   .     A
C210   C231    1.399   .     A
C211   C212    1.385   .     A
C211   H271    1.083   .     S
C212   H273    1.082   .     S
C212   C1077   1.392   .     S
C213   H272    1.079   .     S
C213   C1068   1.414   1_554 S
C213   C1076   1.392   1_554 S
C214   H239    1.118   .     S
C214   H238    1.110   .     S
C214   C216    1.531   .     S
C214   O288    1.417   .     S
C215   C230    1.410   .     A
C216   H817    1.110   1_545 S
C217   H242    1.109   .     S
C217   H243    1.108   .     S
C217   H244    1.111   .     S
C217   C24     1.526   1_655 S
C218   H247    1.111   .     S
C218   C219    1.535   .     S
C218   O278    1.412   .     S
C218   H245    1.110   .     S
C219   H249    1.110   .     S
C219   H248    1.111   .     S
C219   C220    1.525   .     S
C220   H252    1.111   .     S
C220   H251    1.110   .     S
C220   H58     1.111   1_655 S
C221   H253    1.109   .     S
C221   H254    1.114   .     S
C221   O279    1.417   .     S
C221   C30     1.536   1_655 S
C222   H256    1.107   .     S
C222   C223    1.527   .     S
C222   H255    1.108   .     S
C223   H834    1.110   1_545 S
C223   H835    1.110   1_545 S
C224   H262    1.117   .     S
C224   O280    1.418   .     S
C224   C897    1.526   1_655 S
C224   H69     1.111   1_655 S
C225   H263    1.112   .     S
C225   C992    1.526   1_554 S
C225   C1091   1.527   1_554 S
C226   C231    1.399   .     A
C226   C1068   1.421   1_554 S
C226   C1092   1.417   1_554 S
C227   H267    1.111   .     S
C227   C1089   1.527   .     S
C227   H1033   1.111   .     S
C227   H1130   1.110   .     S
C228   C229    1.398   .     A
C228   C1073   1.414   .     S
C228   C1090   1.417   .     S
C229   C230    1.384   .     A
C229   H269    1.080   .     S
C230   H236    1.080   .     S
C231   H270    1.080   .     S
C232   I274    2.125   .     S
Cu233  Cu234   2.680   .     S
Cu233  O286    1.952   .     S
Cu233  O277    1.967   .     S
Cu233  O282    1.964   .     S
Cu233  O284    1.966   .     S
Cu233  N275    2.014   .     S
Cu234  O285    1.967   .     S
Cu234  O283    1.952   .     S
Cu234  O287    1.964   .     S
Cu234  N276    2.014   .     S
Cu234  O281    1.966   .     S
H240   C24     1.110   1_655 S
H241   C504    1.110   .     S
H258   C511    1.110   .     S
H259   C511    1.110   .     S
H260   C31     1.111   1_655 S
H264   C33     1.110   1_655 S
H265   C899    1.111   1_654 S
H266   C1091   1.110   1_554 S
O280   C1073   1.387   .     S
C289   O373    1.292   .     A
C289   C297    1.449   .     S
C289   O377    1.291   .     A
C290   C292    1.468   .     S
C290   C311    1.420   .     A
C290   C307    1.400   .     A
C291   H333    1.083   .     S
C291   C297    1.399   .     A
C291   C581    1.384   .     S
C292   O379    1.292   .     A
C292   O378    1.299   .     A
C293   C294    1.401   .     A
C293   H331    1.081   .     S
C294   C303    1.459   .     S
C294   C295    1.416   .     A
C295   O384    1.383   .     S
C296   C297    1.398   .     A
C296   H342    1.084   .     S
C296   C583    1.385   .     S
C298   O374    1.396   .     S
C298   N372    1.375   .     A
C298   C395    1.439   .     S
C299   N371    1.363   .     A
C299   H353    1.078   .     S
C299   C490    1.439   1_455 S
C300   C311    1.417   .     A
C300   C1173   1.414   .     S
C300   C1186   1.421   .     S
C301   H364    1.077   .     S
C301   N371    1.358   .     A
C301   C494    1.420   1_455 S
C302   N372    1.375   .     A
C302   O375    1.384   .     S
C302   C397    1.420   .     S
C303   O380    1.288   .     A
C303   O381    1.300   .     A
C304   O383    1.297   .     A
C304   O382    1.301   .     A
C304   C306    1.480   .     S
C305   C328    1.405   .     A
C305   C1188   1.414   1_554 S
C305   O1240   1.387   1_554 S
C306   C328    1.414   .     A
C306   C327    1.399   .     A
C307   C308    1.385   .     A
C307   H367    1.083   .     S
C308   H369    1.082   .     S
C308   C1173   1.392   .     S
C309   H368    1.079   .     S
C309   C1164   1.414   1_554 S
C309   C1172   1.392   1_554 S
C310   H335    1.118   .     S
C310   H334    1.110   .     S
C310   C312    1.531   .     S
C310   O384    1.417   .     S
C311   C326    1.410   .     A
C312   C505    1.526   1_455 S
C312   H528    1.110   1_455 S
C313   H338    1.109   .     S
C313   H339    1.108   .     S
C313   H340    1.111   .     S
C313   C408    1.526   .     S
C314   H343    1.111   .     S
C314   C315    1.535   .     S
C314   O374    1.412   .     S
C314   H341    1.110   .     S
C315   H345    1.110   .     S
C315   H344    1.111   .     S
C315   C316    1.525   .     S
C316   H348    1.111   .     S
C316   H347    1.110   .     S
C316   H442    1.111   .     S
C317   H349    1.109   .     S
C317   H350    1.114   .     S
C317   O375    1.417   .     S
C317   C414    1.536   .     S
C318   H352    1.107   .     S
C318   C319    1.527   .     S
C318   H351    1.108   .     S
C318   C509    1.536   1_455 S
C319   H548    1.111   1_455 S
C320   H358    1.117   .     S
C320   O376    1.418   .     S
C320   C1281   1.526   .     S
C320   H453    1.111   .     S
C321   H359    1.112   .     S
C321   C1376   1.526   1_454 S
C321   C1187   1.527   1_554 S
C321   H552    1.110   1_455 S
C322   C327    1.399   .     A
C322   C1164   1.421   1_554 S
C322   C1188   1.417   1_554 S
C323   H363    1.111   .     S
C323   C1185   1.527   .     S
C323   H1417   1.111   1_455 S
C323   H1226   1.110   .     S
C324   C325    1.398   .     A
C324   C1169   1.414   .     S
C324   C1186   1.417   .     S
C325   C326    1.384   .     A
C325   H365    1.080   .     S
C326   H332    1.080   .     S
C327   H366    1.080   .     S
C328   I370    2.125   .     S
Cu329  Cu330   2.680   .     S
Cu329  O382    1.952   .     S
Cu329  O373    1.967   .     S
Cu329  O378    1.964   .     S
Cu329  O380    1.966   .     S
Cu329  N371    2.014   .     S
Cu330  O381    1.967   .     S
Cu330  O379    1.952   .     S
Cu330  O383    1.964   .     S
Cu330  N372    2.014   .     S
Cu330  O377    1.966   .     S
H336   C408    1.110   .     S
H337   C600    1.110   .     S
H346   C508    1.111   1_455 S
H354   C607    1.110   .     S
H355   C607    1.110   .     S
H356   C415    1.111   .     S
H357   C512    1.111   1_455 S
H360   C417    1.110   .     S
H361   C1283   1.111   1_554 S
H362   C1187   1.110   1_554 S
O376   C1169   1.387   .     S
C385   O469    1.292   .     A
C385   C393    1.449   .     S
C385   O473    1.291   .     A
C386   C388    1.468   .     S
C386   C407    1.420   .     A
C386   C403    1.400   .     A
C387   H429    1.083   .     S
C387   C393    1.399   .     A
C387   C677    1.384   .     S
C388   O475    1.292   .     A
C388   O474    1.299   .     A
C389   C390    1.401   .     A
C389   H427    1.081   .     S
C390   C399    1.459   .     S
C390   C391    1.416   .     A
C391   O480    1.383   .     S
C392   C393    1.398   .     A
C392   H438    1.084   .     S
C392   C679    1.385   .     S
C394   O470    1.396   .     S
C394   N468    1.375   .     A
C394   C491    1.439   .     S
C395   N467    1.363   .     A
C395   H449    1.078   .     S
C396   C407    1.417   .     A
C396   C1269   1.414   .     S
C396   C1282   1.421   .     S
C397   H460    1.077   .     S
C397   N467    1.358   .     A
C398   N468    1.375   .     A
C398   O471    1.384   .     S
C398   C493    1.420   .     S
C399   O476    1.288   .     A
C399   O477    1.300   .     A
C400   O479    1.297   .     A
C400   O478    1.301   .     A
C400   C402    1.480   .     S
C401   C424    1.405   .     A
C401   C1284   1.414   1_554 S
C401   O1336   1.387   1_554 S
C402   C424    1.414   .     A
C402   C423    1.399   .     A
C403   C404    1.385   .     A
C403   H463    1.083   .     S
C404   H465    1.082   .     S
C404   C1269   1.392   .     S
C405   H464    1.079   .     S
C405   C1260   1.414   1_554 S
C405   C1268   1.392   1_554 S
C406   H431    1.118   .     S
C406   H430    1.110   .     S
C406   C408    1.531   .     S
C406   O480    1.417   .     S
C407   C422    1.410   .     A
C409   H434    1.109   .     S
C409   H435    1.108   .     S
C409   H436    1.111   .     S
C409   C504    1.526   .     S
C410   H439    1.111   .     S
C410   C411    1.535   .     S
C410   O470    1.412   .     S
C410   H437    1.110   .     S
C411   H441    1.110   .     S
C411   H440    1.111   .     S
C411   C412    1.525   .     S
C412   H444    1.111   .     S
C412   H443    1.110   .     S
C412   H538    1.111   .     S
C413   H445    1.109   .     S
C413   H446    1.114   .     S
C413   O471    1.417   .     S
C413   C510    1.536   .     S
C414   H448    1.107   .     S
C414   C415    1.527   .     S
C414   H447    1.108   .     S
C416   H454    1.117   .     S
C416   O472    1.418   .     S
C416   C1377   1.526   .     S
C416   H549    1.111   .     S
C417   H455    1.112   .     S
C417   C1184   1.526   1_554 S
C417   C1283   1.527   1_554 S
C418   C423    1.399   .     A
C418   C1260   1.421   1_554 S
C418   C1284   1.417   1_554 S
C419   H459    1.111   .     S
C419   C1281   1.527   .     S
C419   H1225   1.111   .     S
C419   H1322   1.110   .     S
C420   C421    1.398   .     A
C420   C1265   1.414   .     S
C420   C1282   1.417   .     S
C421   C422    1.384   .     A
C421   H461    1.080   .     S
C422   H428    1.080   .     S
C423   H462    1.080   .     S
C424   I466    2.125   .     S
Cu425  Cu426   2.680   .     S
Cu425  O478    1.952   .     S
Cu425  O469    1.967   .     S
Cu425  O474    1.964   .     S
Cu425  O476    1.966   .     S
Cu425  N467    2.014   .     S
Cu426  O477    1.967   .     S
Cu426  O475    1.952   .     S
Cu426  O479    1.964   .     S
Cu426  N468    2.014   .     S
Cu426  O473    1.966   .     S
H432   C504    1.110   .     S
H433   C696    1.110   .     S
H450   C703    1.110   .     S
H451   C703    1.110   .     S
H452   C511    1.111   .     S
H456   C513    1.110   .     S
H457   C1379   1.111   1_554 S
H458   C1283   1.110   1_554 S
O472   C1265   1.387   .     S
C481   O565    1.292   .     A
C481   C489    1.449   .     S
C481   O569    1.291   .     A
C482   C484    1.468   .     S
C482   C503    1.420   .     A
C482   C499    1.400   .     A
C483   H525    1.083   .     S
C483   C489    1.399   .     A
C483   C773    1.384   .     S
C484   O571    1.292   .     A
C484   O570    1.299   .     A
C485   C486    1.401   .     A
C485   H523    1.081   .     S
C486   C495    1.459   .     S
C486   C487    1.416   .     A
C487   O576    1.383   .     S
C488   C489    1.398   .     A
C488   H534    1.084   .     S
C488   C775    1.385   .     S
C490   O566    1.396   .     S
C490   N564    1.375   .     A
C490   C299    1.439   1_655 S
C491   N563    1.363   .     A
C491   H545    1.078   .     S
C492   C503    1.417   .     A
C492   C1365   1.414   .     S
C492   C1378   1.421   .     S
C493   H556    1.077   .     S
C493   N563    1.358   .     A
C494   N564    1.375   .     A
C494   O567    1.384   .     S
C494   C301    1.420   1_655 S
C495   O572    1.288   .     A
C495   O573    1.300   .     A
C496   O575    1.297   .     A
C496   O574    1.301   .     A
C496   C498    1.480   .     S
C497   C520    1.405   .     A
C497   C1380   1.414   1_554 S
C497   O1432   1.387   1_554 S
C498   C520    1.414   .     A
C498   C519    1.399   .     A
C499   C500    1.385   .     A
C499   H559    1.083   .     S
C500   H561    1.082   .     S
C500   C1365   1.392   .     S
C501   H560    1.079   .     S
C501   C1356   1.414   1_554 S
C501   C1364   1.392   1_554 S
C502   H527    1.118   .     S
C502   H526    1.110   .     S
C502   C504    1.531   .     S
C502   O576    1.417   .     S
C503   C518    1.410   .     A
C505   H530    1.109   .     S
C505   H531    1.108   .     S
C505   H532    1.111   .     S
C505   C312    1.526   1_655 S
C506   H535    1.111   .     S
C506   C507    1.535   .     S
C506   O566    1.412   .     S
C506   H533    1.110   .     S
C507   H537    1.110   .     S
C507   H536    1.111   .     S
C507   C508    1.525   .     S
C508   H540    1.111   .     S
C508   H539    1.110   .     S
C508   H346    1.111   1_655 S
C509   H541    1.109   .     S
C509   H542    1.114   .     S
C509   O567    1.417   .     S
C509   C318    1.536   1_655 S
C510   H544    1.107   .     S
C510   C511    1.527   .     S
C510   H543    1.108   .     S
C512   H550    1.117   .     S
C512   O568    1.418   .     S
C512   C1185   1.526   1_655 S
C512   H357    1.111   1_655 S
C513   H551    1.112   .     S
C513   C1280   1.526   1_554 S
C513   C1379   1.527   1_554 S
C514   C519    1.399   .     A
C514   C1356   1.421   1_554 S
C514   C1380   1.417   1_554 S
C515   H555    1.111   .     S
C515   C1377   1.527   .     S
C515   H1321   1.111   .     S
C515   H1418   1.110   .     S
C516   C517    1.398   .     A
C516   C1361   1.414   .     S
C516   C1378   1.417   .     S
C517   C518    1.384   .     A
C517   H557    1.080   .     S
C518   H524    1.080   .     S
C519   H558    1.080   .     S
C520   I562    2.125   .     S
Cu521  Cu522   2.680   .     S
Cu521  O574    1.952   .     S
Cu521  O565    1.967   .     S
Cu521  O570    1.964   .     S
Cu521  O572    1.966   .     S
Cu521  N563    2.014   .     S
Cu522  O573    1.967   .     S
Cu522  O571    1.952   .     S
Cu522  O575    1.964   .     S
Cu522  N564    2.014   .     S
Cu522  O569    1.966   .     S
H528   C312    1.110   1_655 S
H529   C792    1.110   .     S
H546   C799    1.110   .     S
H547   C799    1.110   .     S
H548   C319    1.111   1_655 S
H552   C321    1.110   1_655 S
H553   C1187   1.111   1_654 S
H554   C1379   1.110   1_554 S
O568   C1361   1.387   .     S
C577   O661    1.292   .     A
C577   C585    1.449   .     S
C577   O665    1.291   .     A
C578   C580    1.468   .     S
C578   C599    1.420   .     A
C578   C595    1.400   .     A
C579   H621    1.083   .     S
C579   C585    1.399   .     A
C579   C5      1.384   1_565 S
C580   O667    1.292   .     A
C580   O666    1.299   .     A
C581   C582    1.401   .     A
C581   H619    1.081   .     S
C582   C591    1.459   .     S
C582   C583    1.416   .     A
C583   O672    1.383   .     S
C584   C585    1.398   .     A
C584   H630    1.084   .     S
C584   C7      1.385   1_565 S
C586   O662    1.396   .     S
C586   N660    1.375   .     A
C586   C683    1.439   .     S
C587   N659    1.363   .     A
C587   H641    1.078   .     S
C587   C778    1.439   1_455 S
C588   C599    1.417   .     A
C588   C1461   1.414   .     S
C588   C1474   1.421   .     S
C589   H652    1.077   .     S
C589   N659    1.358   .     A
C589   C782    1.420   1_455 S
C590   N660    1.375   .     A
C590   O663    1.384   .     S
C590   C685    1.420   .     S
C591   O668    1.288   .     A
C591   O669    1.300   .     A
C592   O671    1.297   .     A
C592   O670    1.301   .     A
C592   C594    1.480   .     S
C593   C616    1.405   .     A
C593   C1476   1.414   1_554 S
C593   O1528   1.387   1_554 S
C594   C616    1.414   .     A
C594   C615    1.399   .     A
C595   C596    1.385   .     A
C595   H655    1.083   .     S
C596   H657    1.082   .     S
C596   C1461   1.392   .     S
C597   H656    1.079   .     S
C597   C1452   1.414   1_554 S
C597   C1460   1.392   1_554 S
C598   H623    1.118   .     S
C598   H622    1.110   .     S
C598   C600    1.531   .     S
C598   O672    1.417   .     S
C599   C614    1.410   .     A
C600   C793    1.526   1_455 S
C600   H816    1.110   1_455 S
C601   H626    1.109   .     S
C601   H627    1.108   .     S
C601   H628    1.111   .     S
C601   C696    1.526   .     S
C602   H631    1.111   .     S
C602   C603    1.535   .     S
C602   O662    1.412   .     S
C602   H629    1.110   .     S
C603   H633    1.110   .     S
C603   H632    1.111   .     S
C603   C604    1.525   .     S
C604   H636    1.111   .     S
C604   H635    1.110   .     S
C604   H730    1.111   .     S
C605   H637    1.109   .     S
C605   H638    1.114   .     S
C605   O663    1.417   .     S
C605   C702    1.536   .     S
C606   H640    1.107   .     S
C606   C607    1.527   .     S
C606   H639    1.108   .     S
C606   C797    1.536   1_455 S
C607   H836    1.111   1_455 S
C608   H646    1.117   .     S
C608   O664    1.418   .     S
C608   C1569   1.526   .     S
C608   H741    1.111   .     S
C609   H647    1.112   .     S
C609   C1664   1.526   1_454 S
C609   C1475   1.527   1_554 S
C609   H840    1.110   1_455 S
C610   C615    1.399   .     A
C610   C1452   1.421   1_554 S
C610   C1476   1.417   1_554 S
C611   H651    1.111   .     S
C611   C1473   1.527   .     S
C611   H1705   1.111   1_455 S
C611   H1514   1.110   .     S
C612   C613    1.398   .     A
C612   C1457   1.414   .     S
C612   C1474   1.417   .     S
C613   C614    1.384   .     A
C613   H653    1.080   .     S
C614   H620    1.080   .     S
C615   H654    1.080   .     S
C616   I658    2.125   .     S
Cu617  Cu618   2.680   .     S
Cu617  O670    1.952   .     S
Cu617  O661    1.967   .     S
Cu617  O666    1.964   .     S
Cu617  O668    1.966   .     S
Cu617  N659    2.014   .     S
Cu618  O669    1.967   .     S
Cu618  O667    1.952   .     S
Cu618  O671    1.964   .     S
Cu618  N660    2.014   .     S
Cu618  O665    1.966   .     S
H624   C696    1.110   .     S
H625   C24     1.110   1_565 S
H634   C796    1.111   1_455 S
H642   C31     1.110   1_565 S
H643   C31     1.110   1_565 S
H644   C703    1.111   .     S
H645   C800    1.111   1_455 S
H648   C705    1.110   .     S
H649   C1571   1.111   1_554 S
H650   C1475   1.110   1_554 S
O664   C1457   1.387   .     S
C673   O757    1.292   .     A
C673   C681    1.449   .     S
C673   O761    1.291   .     A
C674   C676    1.468   .     S
C674   C695    1.420   .     A
C674   C691    1.400   .     A
C675   H717    1.083   .     S
C675   C681    1.399   .     A
C675   C101    1.384   1_565 S
C676   O763    1.292   .     A
C676   O762    1.299   .     A
C677   C678    1.401   .     A
C677   H715    1.081   .     S
C678   C687    1.459   .     S
C678   C679    1.416   .     A
C679   O768    1.383   .     S
C680   C681    1.398   .     A
C680   H726    1.084   .     S
C680   C103    1.385   1_565 S
C682   O758    1.396   .     S
C682   N756    1.375   .     A
C682   C779    1.439   .     S
C683   N755    1.363   .     A
C683   H737    1.078   .     S
C684   C695    1.417   .     A
C684   C1557   1.414   .     S
C684   C1570   1.421   .     S
C685   H748    1.077   .     S
C685   N755    1.358   .     A
C686   N756    1.375   .     A
C686   O759    1.384   .     S
C686   C781    1.420   .     S
C687   O764    1.288   .     A
C687   O765    1.300   .     A
C688   O767    1.297   .     A
C688   O766    1.301   .     A
C688   C690    1.480   .     S
C689   C712    1.405   .     A
C689   C1572   1.414   1_554 S
C689   O1624   1.387   1_554 S
C690   C712    1.414   .     A
C690   C711    1.399   .     A
C691   C692    1.385   .     A
C691   H751    1.083   .     S
C692   H753    1.082   .     S
C692   C1557   1.392   .     S
C693   H752    1.079   .     S
C693   C1548   1.414   1_554 S
C693   C1556   1.392   1_554 S
C694   H719    1.118   .     S
C694   H718    1.110   .     S
C694   C696    1.531   .     S
C694   O768    1.417   .     S
C695   C710    1.410   .     A
C697   H722    1.109   .     S
C697   H723    1.108   .     S
C697   H724    1.111   .     S
C697   C792    1.526   .     S
C698   H727    1.111   .     S
C698   C699    1.535   .     S
C698   O758    1.412   .     S
C698   H725    1.110   .     S
C699   H729    1.110   .     S
C699   H728    1.111   .     S
C699   C700    1.525   .     S
C700   H732    1.111   .     S
C700   H731    1.110   .     S
C700   H826    1.111   .     S
C701   H733    1.109   .     S
C701   H734    1.114   .     S
C701   O759    1.417   .     S
C701   C798    1.536   .     S
C702   H736    1.107   .     S
C702   C703    1.527   .     S
C702   H735    1.108   .     S
C704   H742    1.117   .     S
C704   O760    1.418   .     S
C704   C1665   1.526   .     S
C704   H837    1.111   .     S
C705   H743    1.112   .     S
C705   C1472   1.526   1_554 S
C705   C1571   1.527   1_554 S
C706   C711    1.399   .     A
C706   C1548   1.421   1_554 S
C706   C1572   1.417   1_554 S
C707   H747    1.111   .     S
C707   C1569   1.527   .     S
C707   H1513   1.111   .     S
C707   H1610   1.110   .     S
C708   C709    1.398   .     A
C708   C1553   1.414   .     S
C708   C1570   1.417   .     S
C709   C710    1.384   .     A
C709   H749    1.080   .     S
C710   H716    1.080   .     S
C711   H750    1.080   .     S
C712   I754    2.125   .     S
Cu713  Cu714   2.680   .     S
Cu713  O766    1.952   .     S
Cu713  O757    1.967   .     S
Cu713  O762    1.964   .     S
Cu713  O764    1.966   .     S
Cu713  N755    2.014   .     S
Cu714  O765    1.967   .     S
Cu714  O763    1.952   .     S
Cu714  O767    1.964   .     S
Cu714  N756    2.014   .     S
Cu714  O761    1.966   .     S
H720   C792    1.110   .     S
H721   C120    1.110   1_565 S
H738   C127    1.110   1_565 S
H739   C127    1.110   1_565 S
H740   C799    1.111   .     S
H744   C801    1.110   .     S
H745   C1667   1.111   1_554 S
H746   C1571   1.110   1_554 S
O760   C1553   1.387   .     S
C769   O853    1.292   .     A
C769   C777    1.449   .     S
C769   O857    1.291   .     A
C770   C772    1.468   .     S
C770   C791    1.420   .     A
C770   C787    1.400   .     A
C771   H813    1.083   .     S
C771   C777    1.399   .     A
C771   C197    1.384   1_565 S
C772   O859    1.292   .     A
C772   O858    1.299   .     A
C773   C774    1.401   .     A
C773   H811    1.081   .     S
C774   C783    1.459   .     S
C774   C775    1.416   .     A
C775   O864    1.383   .     S
C776   C777    1.398   .     A
C776   H822    1.084   .     S
C776   C199    1.385   1_565 S
C778   O854    1.396   .     S
C778   N852    1.375   .     A
C778   C587    1.439   1_655 S
C779   N851    1.363   .     A
C779   H833    1.078   .     S
C780   C791    1.417   .     A
C780   C1653   1.414   .     S
C780   C1666   1.421   .     S
C781   H844    1.077   .     S
C781   N851    1.358   .     A
C782   N852    1.375   .     A
C782   O855    1.384   .     S
C782   C589    1.420   1_655 S
C783   O860    1.288   .     A
C783   O861    1.300   .     A
C784   O863    1.297   .     A
C784   O862    1.301   .     A
C784   C786    1.480   .     S
C785   C808    1.405   .     A
C785   C1668   1.414   1_554 S
C785   O1720   1.387   1_554 S
C786   C808    1.414   .     A
C786   C807    1.399   .     A
C787   C788    1.385   .     A
C787   H847    1.083   .     S
C788   H849    1.082   .     S
C788   C1653   1.392   .     S
C789   H848    1.079   .     S
C789   C1644   1.414   1_554 S
C789   C1652   1.392   1_554 S
C790   H815    1.118   .     S
C790   H814    1.110   .     S
C790   C792    1.531   .     S
C790   O864    1.417   .     S
C791   C806    1.410   .     A
C793   H818    1.109   .     S
C793   H819    1.108   .     S
C793   H820    1.111   .     S
C793   C600    1.526   1_655 S
C794   H823    1.111   .     S
C794   C795    1.535   .     S
C794   O854    1.412   .     S
C794   H821    1.110   .     S
C795   H825    1.110   .     S
C795   H824    1.111   .     S
C795   C796    1.525   .     S
C796   H828    1.111   .     S
C796   H827    1.110   .     S
C796   H634    1.111   1_655 S
C797   H829    1.109   .     S
C797   H830    1.114   .     S
C797   O855    1.417   .     S
C797   C606    1.536   1_655 S
C798   H832    1.107   .     S
C798   C799    1.527   .     S
C798   H831    1.108   .     S
C800   H838    1.117   .     S
C800   O856    1.418   .     S
C800   C1473   1.526   1_655 S
C800   H645    1.111   1_655 S
C801   H839    1.112   .     S
C801   C1568   1.526   1_554 S
C801   C1667   1.527   1_554 S
C802   C807    1.399   .     A
C802   C1644   1.421   1_554 S
C802   C1668   1.417   1_554 S
C803   H843    1.111   .     S
C803   C1665   1.527   .     S
C803   H1609   1.111   .     S
C803   H1706   1.110   .     S
C804   C805    1.398   .     A
C804   C1649   1.414   .     S
C804   C1666   1.417   .     S
C805   C806    1.384   .     A
C805   H845    1.080   .     S
C806   H812    1.080   .     S
C807   H846    1.080   .     S
C808   I850    2.125   .     S
Cu809  Cu810   2.680   .     S
Cu809  O862    1.952   .     S
Cu809  O853    1.967   .     S
Cu809  O858    1.964   .     S
Cu809  O860    1.966   .     S
Cu809  N851    2.014   .     S
Cu810  O861    1.967   .     S
Cu810  O859    1.952   .     S
Cu810  O863    1.964   .     S
Cu810  N852    2.014   .     S
Cu810  O857    1.966   .     S
H816   C600    1.110   1_655 S
H817   C216    1.110   1_565 S
H834   C223    1.110   1_565 S
H835   C223    1.110   1_565 S
H836   C607    1.111   1_655 S
H840   C609    1.110   1_655 S
H841   C1475   1.111   1_654 S
H842   C1667   1.110   1_554 S
O856   C1649   1.387   .     S
C865   O949    1.292   .     A
C865   C873    1.449   .     S
C865   O953    1.291   .     A
C866   C868    1.468   .     S
C866   C887    1.420   .     A
C866   C883    1.400   .     A
C867   H909    1.083   .     S
C867   C873    1.399   .     A
C867   C1157   1.384   .     S
C868   O955    1.292   .     A
C868   O954    1.299   .     A
C869   C870    1.401   .     A
C869   H907    1.081   .     S
C869   C1443   1.384   1_545 S
C870   C879    1.459   .     S
C870   C871    1.416   .     A
C871   O960    1.383   .     S
C871   C1448   1.385   1_545 S
C872   C873    1.398   .     A
C872   H918    1.084   .     S
C872   C1159   1.385   .     S
C874   O950    1.396   .     S
C874   N948    1.375   .     A
C874   C971    1.439   .     S
C875   N947    1.363   .     A
C875   H929    1.078   .     S
C875   C1066   1.439   1_455 S
C876   C887    1.417   .     A
C876   C21     1.414   1_556 S
C876   C34     1.421   1_556 S
C877   H940    1.077   .     S
C877   N947    1.358   .     A
C877   C1070   1.420   1_455 S
C878   N948    1.375   .     A
C878   O951    1.384   .     S
C878   C973    1.420   .     S
C879   O956    1.288   .     A
C879   O957    1.300   .     A
C880   O959    1.297   .     A
C880   O958    1.301   .     A
C880   C882    1.480   .     S
C881   C904    1.405   .     A
C882   C904    1.414   .     A
C882   C903    1.399   .     A
C883   C884    1.385   .     A
C883   H943    1.083   .     S
C884   H945    1.082   .     S
C884   C21     1.392   1_556 S
C885   H944    1.079   .     S
C886   H911    1.118   .     S
C886   H910    1.110   .     S
C886   C888    1.531   .     S
C886   O960    1.417   .     S
C887   C902    1.410   .     A
C888   C1081   1.526   1_455 S
C888   H1104   1.110   1_455 S
C888   H1489   1.110   1_545 S
C889   H914    1.109   .     S
C889   H915    1.108   .     S
C889   H916    1.111   .     S
C889   C984    1.526   .     S
C890   H919    1.111   .     S
C890   C891    1.535   .     S
C890   O950    1.412   .     S
C890   H917    1.110   .     S
C891   H921    1.110   .     S
C891   H920    1.111   .     S
C891   C892    1.525   .     S
C892   H924    1.111   .     S
C892   H923    1.110   .     S
C892   H1018   1.111   .     S
C893   H925    1.109   .     S
C893   H926    1.114   .     S
C893   O951    1.417   .     S
C893   C990    1.536   .     S
C894   H928    1.107   .     S
C894   C895    1.527   .     S
C894   H927    1.108   .     S
C894   C1085   1.536   1_455 S
C895   H1506   1.110   1_545 S
C895   H1507   1.110   1_545 S
C895   H1124   1.111   1_455 S
C896   H934    1.117   .     S
C896   O952    1.418   .     S
C896   C129    1.526   1_556 S
C896   H1029   1.111   .     S
C897   H935    1.112   .     S
C897   C224    1.526   1_455 S
C897   H1128   1.110   1_455 S
C898   C903    1.399   .     A
C899   H939    1.111   .     S
C899   C33     1.527   1_556 S
C899   H265    1.111   1_456 S
C899   H74     1.110   1_556 S
C900   C901    1.398   .     A
C900   C17     1.414   1_556 S
C900   C34     1.417   1_556 S
C901   C902    1.384   .     A
C901   H941    1.080   .     S
C902   H908    1.080   .     S
C903   H942    1.080   .     S
C904   I946    2.125   .     S
Cu905  Cu906   2.680   .     S
Cu905  O958    1.952   .     S
Cu905  O949    1.967   .     S
Cu905  O954    1.964   .     S
Cu905  O956    1.966   .     S
Cu905  N947    2.014   .     S
Cu906  O957    1.967   .     S
Cu906  O955    1.952   .     S
Cu906  O959    1.964   .     S
Cu906  N948    2.014   .     S
Cu906  O953    1.966   .     S
H912   C984    1.110   .     S
H913   C1176   1.110   .     S
H922   C1084   1.111   1_455 S
H930   C1183   1.110   .     S
H931   C1183   1.110   .     S
H932   C991    1.111   .     S
H933   C1088   1.111   1_455 S
H936   C993    1.110   .     S
O952   C17     1.387   1_556 S
C961   O1045   1.292   .     A
C961   C969    1.449   .     S
C961   O1049   1.291   .     A
C962   C964    1.468   .     S
C962   C983    1.420   .     A
C962   C979    1.400   .     A
C963   H1005   1.083   .     S
C963   C969    1.399   .     A
C963   C1253   1.384   .     S
C964   O1051   1.292   .     A
C964   O1050   1.299   .     A
C965   C966    1.401   .     A
C965   H1003   1.081   .     S
C965   C1539   1.384   1_545 S
C966   C975    1.459   .     S
C966   C967    1.416   .     A
C967   O1056   1.383   .     S
C967   C1544   1.385   1_545 S
C968   C969    1.398   .     A
C968   H1014   1.084   .     S
C968   C1255   1.385   .     S
C970   O1046   1.396   .     S
C970   N1044   1.375   .     A
C970   C1067   1.439   .     S
C971   N1043   1.363   .     A
C971   H1025   1.078   .     S
C972   C983    1.417   .     A
C972   C117    1.414   1_556 S
C972   C130    1.421   1_556 S
C973   H1036   1.077   .     S
C973   N1043   1.358   .     A
C974   N1044   1.375   .     A
C974   O1047   1.384   .     S
C974   C1069   1.420   .     S
C975   O1052   1.288   .     A
C975   O1053   1.300   .     A
C976   O1055   1.297   .     A
C976   O1054   1.301   .     A
C976   C978    1.480   .     S
C977   C1000   1.405   .     A
C978   C1000   1.414   .     A
C978   C999    1.399   .     A
C979   C980    1.385   .     A
C979   H1039   1.083   .     S
C980   H1041   1.082   .     S
C980   C117    1.392   1_556 S
C981   H1040   1.079   .     S
C982   H1007   1.118   .     S
C982   H1006   1.110   .     S
C982   C984    1.531   .     S
C982   O1056   1.417   .     S
C983   C998    1.410   .     A
C984   H1585   1.110   1_545 S
C985   H1010   1.109   .     S
C985   H1011   1.108   .     S
C985   H1012   1.111   .     S
C985   C1080   1.526   .     S
C986   H1015   1.111   .     S
C986   C987    1.535   .     S
C986   O1046   1.412   .     S
C986   H1013   1.110   .     S
C987   H1017   1.110   .     S
C987   H1016   1.111   .     S
C987   C988    1.525   .     S
C988   H1020   1.111   .     S
C988   H1019   1.110   .     S
C988   H1114   1.111   .     S
C989   H1021   1.109   .     S
C989   H1022   1.114   .     S
C989   O1047   1.417   .     S
C989   C1086   1.536   .     S
C990   H1024   1.107   .     S
C990   C991    1.527   .     S
C990   H1023   1.108   .     S
C991   H1602   1.110   1_545 S
C991   H1603   1.110   1_545 S
C992   H1030   1.117   .     S
C992   O1048   1.418   .     S
C992   C225    1.526   1_556 S
C992   H1125   1.111   .     S
C993   H1031   1.112   .     S
C994   C999    1.399   .     A
C995   H1035   1.111   .     S
C995   C129    1.527   1_556 S
C995   H73     1.111   1_556 S
C995   H170    1.110   1_556 S
C996   C997    1.398   .     A
C996   C113    1.414   1_556 S
C996   C130    1.417   1_556 S
C997   C998    1.384   .     A
C997   H1037   1.080   .     S
C998   H1004   1.080   .     S
C999   H1038   1.080   .     S
C1000  I1042   2.125   .     S
Cu1001 Cu1002  2.680   .     S
Cu1001 O1054   1.952   .     S
Cu1001 O1045   1.967   .     S
Cu1001 O1050   1.964   .     S
Cu1001 O1052   1.966   .     S
Cu1001 N1043   2.014   .     S
Cu1002 O1053   1.967   .     S
Cu1002 O1051   1.952   .     S
Cu1002 O1055   1.964   .     S
Cu1002 N1044   2.014   .     S
Cu1002 O1049   1.966   .     S
H1008  C1080   1.110   .     S
H1009  C1272   1.110   .     S
H1026  C1279   1.110   .     S
H1027  C1279   1.110   .     S
H1028  C1087   1.111   .     S
H1032  C1089   1.110   .     S
O1048  C113    1.387   1_556 S
C1057  O1141   1.292   .     A
C1057  C1065   1.449   .     S
C1057  O1145   1.291   .     A
C1058  C1060   1.468   .     S
C1058  C1079   1.420   .     A
C1058  C1075   1.400   .     A
C1059  H1101   1.083   .     S
C1059  C1065   1.399   .     A
C1059  C1349   1.384   .     S
C1060  O1147   1.292   .     A
C1060  O1146   1.299   .     A
C1061  C1062   1.401   .     A
C1061  H1099   1.081   .     S
C1061  C1635   1.384   1_545 S
C1062  C1071   1.459   .     S
C1062  C1063   1.416   .     A
C1063  O1152   1.383   .     S
C1063  C1640   1.385   1_545 S
C1064  C1065   1.398   .     A
C1064  H1110   1.084   .     S
C1064  C1351   1.385   .     S
C1066  O1142   1.396   .     S
C1066  N1140   1.375   .     A
C1066  C875    1.439   1_655 S
C1067  N1139   1.363   .     A
C1067  H1121   1.078   .     S
C1068  C1079   1.417   .     A
C1068  C213    1.414   1_556 S
C1068  C226    1.421   1_556 S
C1069  H1132   1.077   .     S
C1069  N1139   1.358   .     A
C1070  N1140   1.375   .     A
C1070  O1143   1.384   .     S
C1070  C877    1.420   1_655 S
C1071  O1148   1.288   .     A
C1071  O1149   1.300   .     A
C1072  O1151   1.297   .     A
C1072  O1150   1.301   .     A
C1072  C1074   1.480   .     S
C1073  C1096   1.405   .     A
C1074  C1096   1.414   .     A
C1074  C1095   1.399   .     A
C1075  C1076   1.385   .     A
C1075  H1135   1.083   .     S
C1076  H1137   1.082   .     S
C1076  C213    1.392   1_556 S
C1077  H1136   1.079   .     S
C1078  H1103   1.118   .     S
C1078  H1102   1.110   .     S
C1078  C1080   1.531   .     S
C1078  O1152   1.417   .     S
C1079  C1094   1.410   .     A
C1080  H1681   1.110   1_545 S
C1081  H1106   1.109   .     S
C1081  H1107   1.108   .     S
C1081  H1108   1.111   .     S
C1081  C888    1.526   1_655 S
C1082  H1111   1.111   .     S
C1082  C1083   1.535   .     S
C1082  O1142   1.412   .     S
C1082  H1109   1.110   .     S
C1083  H1113   1.110   .     S
C1083  H1112   1.111   .     S
C1083  C1084   1.525   .     S
C1084  H1116   1.111   .     S
C1084  H1115   1.110   .     S
C1084  H922    1.111   1_655 S
C1085  H1117   1.109   .     S
C1085  H1118   1.114   .     S
C1085  O1143   1.417   .     S
C1085  C894    1.536   1_655 S
C1086  H1120   1.107   .     S
C1086  C1087   1.527   .     S
C1086  H1119   1.108   .     S
C1087  H1698   1.110   1_545 S
C1087  H1699   1.110   1_545 S
C1088  H1126   1.117   .     S
C1088  O1144   1.418   .     S
C1088  C33     1.526   1_656 S
C1088  H933    1.111   1_655 S
C1089  H1127   1.112   .     S
C1090  C1095   1.399   .     A
C1091  H1131   1.111   .     S
C1091  C225    1.527   1_556 S
C1091  H169    1.111   1_556 S
C1091  H266    1.110   1_556 S
C1092  C1093   1.398   .     A
C1092  C209    1.414   1_556 S
C1092  C226    1.417   1_556 S
C1093  C1094   1.384   .     A
C1093  H1133   1.080   .     S
C1094  H1100   1.080   .     S
C1095  H1134   1.080   .     S
C1096  I1138   2.125   .     S
Cu1097 Cu1098  2.680   .     S
Cu1097 O1150   1.952   .     S
Cu1097 O1141   1.967   .     S
Cu1097 O1146   1.964   .     S
Cu1097 O1148   1.966   .     S
Cu1097 N1139   2.014   .     S
Cu1098 O1149   1.967   .     S
Cu1098 O1147   1.952   .     S
Cu1098 O1151   1.964   .     S
Cu1098 N1140   2.014   .     S
Cu1098 O1145   1.966   .     S
H1104  C888    1.110   1_655 S
H1105  C1368   1.110   .     S
H1122  C1375   1.110   .     S
H1123  C1375   1.110   .     S
H1124  C895    1.111   1_655 S
H1128  C897    1.110   1_655 S
H1129  C35     1.111   1_655 S
O1144  C209    1.387   1_556 S
C1153  O1237   1.292   .     A
C1153  C1161   1.449   .     S
C1153  O1241   1.291   .     A
C1154  C1156   1.468   .     S
C1154  C1175   1.420   .     A
C1154  C1171   1.400   .     A
C1155  H1197   1.083   .     S
C1155  C1161   1.399   .     A
C1155  C1445   1.384   .     S
C1156  O1243   1.292   .     A
C1156  O1242   1.299   .     A
C1157  C1158   1.401   .     A
C1157  H1195   1.081   .     S
C1158  C1167   1.459   .     S
C1158  C1159   1.416   .     A
C1159  O1248   1.383   .     S
C1160  C1161   1.398   .     A
C1160  H1206   1.084   .     S
C1160  C1447   1.385   .     S
C1162  O1238   1.396   .     S
C1162  N1236   1.375   .     A
C1162  C1259   1.439   .     S
C1163  N1235   1.363   .     A
C1163  H1217   1.078   .     S
C1163  C1354   1.439   1_455 S
C1164  C1175   1.417   .     A
C1164  C309    1.414   1_556 S
C1164  C322    1.421   1_556 S
C1165  H1228   1.077   .     S
C1165  N1235   1.358   .     A
C1165  C1358   1.420   1_455 S
C1166  N1236   1.375   .     A
C1166  O1239   1.384   .     S
C1166  C1261   1.420   .     S
C1167  O1244   1.288   .     A
C1167  O1245   1.300   .     A
C1168  O1247   1.297   .     A
C1168  O1246   1.301   .     A
C1168  C1170   1.480   .     S
C1169  C1192   1.405   .     A
C1170  C1192   1.414   .     A
C1170  C1191   1.399   .     A
C1171  C1172   1.385   .     A
C1171  H1231   1.083   .     S
C1172  H1233   1.082   .     S
C1172  C309    1.392   1_556 S
C1173  H1232   1.079   .     S
C1174  H1199   1.118   .     S
C1174  H1198   1.110   .     S
C1174  C1176   1.531   .     S
C1174  O1248   1.417   .     S
C1175  C1190   1.410   .     A
C1176  C1369   1.526   1_455 S
C1176  H1392   1.110   1_455 S
C1177  H1202   1.109   .     S
C1177  H1203   1.108   .     S
C1177  H1204   1.111   .     S
C1177  C1272   1.526   .     S
C1178  H1207   1.111   .     S
C1178  C1179   1.535   .     S
C1178  O1238   1.412   .     S
C1178  H1205   1.110   .     S
C1179  H1209   1.110   .     S
C1179  H1208   1.111   .     S
C1179  C1180   1.525   .     S
C1180  H1212   1.111   .     S
C1180  H1211   1.110   .     S
C1180  H1306   1.111   .     S
C1181  H1213   1.109   .     S
C1181  H1214   1.114   .     S
C1181  O1239   1.417   .     S
C1181  C1278   1.536   .     S
C1182  H1216   1.107   .     S
C1182  C1183   1.527   .     S
C1182  H1215   1.108   .     S
C1182  C1373   1.536   1_455 S
C1183  H1412   1.111   1_455 S
C1184  H1222   1.117   .     S
C1184  O1240   1.418   .     S
C1184  C417    1.526   1_556 S
C1184  H1317   1.111   .     S
C1185  H1223   1.112   .     S
C1185  C512    1.526   1_455 S
C1185  H1416   1.110   1_455 S
C1186  C1191   1.399   .     A
C1187  H1227   1.111   .     S
C1187  C321    1.527   1_556 S
C1187  H553    1.111   1_456 S
C1187  H362    1.110   1_556 S
C1188  C1189   1.398   .     A
C1188  C305    1.414   1_556 S
C1188  C322    1.417   1_556 S
C1189  C1190   1.384   .     A
C1189  H1229   1.080   .     S
C1190  H1196   1.080   .     S
C1191  H1230   1.080   .     S
C1192  I1234   2.125   .     S
Cu1193 Cu1194  2.680   .     S
Cu1193 O1246   1.952   .     S
Cu1193 O1237   1.967   .     S
Cu1193 O1242   1.964   .     S
Cu1193 O1244   1.966   .     S
Cu1193 N1235   2.014   .     S
Cu1194 O1245   1.967   .     S
Cu1194 O1243   1.952   .     S
Cu1194 O1247   1.964   .     S
Cu1194 N1236   2.014   .     S
Cu1194 O1241   1.966   .     S
H1200  C1272   1.110   .     S
H1201  C1464   1.110   .     S
H1210  C1372   1.111   1_455 S
H1218  C1471   1.110   .     S
H1219  C1471   1.110   .     S
H1220  C1279   1.111   .     S
H1221  C1376   1.111   1_455 S
H1224  C1281   1.110   .     S
O1240  C305    1.387   1_556 S
C1249  O1333   1.292   .     A
C1249  C1257   1.449   .     S
C1249  O1337   1.291   .     A
C1250  C1252   1.468   .     S
C1250  C1271   1.420   .     A
C1250  C1267   1.400   .     A
C1251  H1293   1.083   .     S
C1251  C1257   1.399   .     A
C1251  C1541   1.384   .     S
C1252  O1339   1.292   .     A
C1252  O1338   1.299   .     A
C1253  C1254   1.401   .     A
C1253  H1291   1.081   .     S
C1254  C1263   1.459   .     S
C1254  C1255   1.416   .     A
C1255  O1344   1.383   .     S
C1256  C1257   1.398   .     A
C1256  H1302   1.084   .     S
C1256  C1543   1.385   .     S
C1258  O1334   1.396   .     S
C1258  N1332   1.375   .     A
C1258  C1355   1.439   .     S
C1259  N1331   1.363   .     A
C1259  H1313   1.078   .     S
C1260  C1271   1.417   .     A
C1260  C405    1.414   1_556 S
C1260  C418    1.421   1_556 S
C1261  H1324   1.077   .     S
C1261  N1331   1.358   .     A
C1262  N1332   1.375   .     A
C1262  O1335   1.384   .     S
C1262  C1357   1.420   .     S
C1263  O1340   1.288   .     A
C1263  O1341   1.300   .     A
C1264  O1343   1.297   .     A
C1264  O1342   1.301   .     A
C1264  C1266   1.480   .     S
C1265  C1288   1.405   .     A
C1266  C1288   1.414   .     A
C1266  C1287   1.399   .     A
C1267  C1268   1.385   .     A
C1267  H1327   1.083   .     S
C1268  H1329   1.082   .     S
C1268  C405    1.392   1_556 S
C1269  H1328   1.079   .     S
C1270  H1295   1.118   .     S
C1270  H1294   1.110   .     S
C1270  C1272   1.531   .     S
C1270  O1344   1.417   .     S
C1271  C1286   1.410   .     A
C1273  H1298   1.109   .     S
C1273  H1299   1.108   .     S
C1273  H1300   1.111   .     S
C1273  C1368   1.526   .     S
C1274  H1303   1.111   .     S
C1274  C1275   1.535   .     S
C1274  O1334   1.412   .     S
C1274  H1301   1.110   .     S
C1275  H1305   1.110   .     S
C1275  H1304   1.111   .     S
C1275  C1276   1.525   .     S
C1276  H1308   1.111   .     S
C1276  H1307   1.110   .     S
C1276  H1402   1.111   .     S
C1277  H1309   1.109   .     S
C1277  H1310   1.114   .     S
C1277  O1335   1.417   .     S
C1277  C1374   1.536   .     S
C1278  H1312   1.107   .     S
C1278  C1279   1.527   .     S
C1278  H1311   1.108   .     S
C1280  H1318   1.117   .     S
C1280  O1336   1.418   .     S
C1280  C513    1.526   1_556 S
C1280  H1413   1.111   .     S
C1281  H1319   1.112   .     S
C1282  C1287   1.399   .     A
C1283  H1323   1.111   .     S
C1283  C417    1.527   1_556 S
C1283  H361    1.111   1_556 S
C1283  H458    1.110   1_556 S
C1284  C1285   1.398   .     A
C1284  C401    1.414   1_556 S
C1284  C418    1.417   1_556 S
C1285  C1286   1.384   .     A
C1285  H1325   1.080   .     S
C1286  H1292   1.080   .     S
C1287  H1326   1.080   .     S
C1288  I1330   2.125   .     S
Cu1289 Cu1290  2.680   .     S
Cu1289 O1342   1.952   .     S
Cu1289 O1333   1.967   .     S
Cu1289 O1338   1.964   .     S
Cu1289 O1340   1.966   .     S
Cu1289 N1331   2.014   .     S
Cu1290 O1341   1.967   .     S
Cu1290 O1339   1.952   .     S
Cu1290 O1343   1.964   .     S
Cu1290 N1332   2.014   .     S
Cu1290 O1337   1.966   .     S
H1296  C1368   1.110   .     S
H1297  C1560   1.110   .     S
H1314  C1567   1.110   .     S
H1315  C1567   1.110   .     S
H1316  C1375   1.111   .     S
H1320  C1377   1.110   .     S
O1336  C401    1.387   1_556 S
C1345  O1429   1.292   .     A
C1345  C1353   1.449   .     S
C1345  O1433   1.291   .     A
C1346  C1348   1.468   .     S
C1346  C1367   1.420   .     A
C1346  C1363   1.400   .     A
C1347  H1389   1.083   .     S
C1347  C1353   1.399   .     A
C1347  C1637   1.384   .     S
C1348  O1435   1.292   .     A
C1348  O1434   1.299   .     A
C1349  C1350   1.401   .     A
C1349  H1387   1.081   .     S
C1350  C1359   1.459   .     S
C1350  C1351   1.416   .     A
C1351  O1440   1.383   .     S
C1352  C1353   1.398   .     A
C1352  H1398   1.084   .     S
C1352  C1639   1.385   .     S
C1354  O1430   1.396   .     S
C1354  N1428   1.375   .     A
C1354  C1163   1.439   1_655 S
C1355  N1427   1.363   .     A
C1355  H1409   1.078   .     S
C1356  C1367   1.417   .     A
C1356  C501    1.414   1_556 S
C1356  C514    1.421   1_556 S
C1357  H1420   1.077   .     S
C1357  N1427   1.358   .     A
C1358  N1428   1.375   .     A
C1358  O1431   1.384   .     S
C1358  C1165   1.420   1_655 S
C1359  O1436   1.288   .     A
C1359  O1437   1.300   .     A
C1360  O1439   1.297   .     A
C1360  O1438   1.301   .     A
C1360  C1362   1.480   .     S
C1361  C1384   1.405   .     A
C1362  C1384   1.414   .     A
C1362  C1383   1.399   .     A
C1363  C1364   1.385   .     A
C1363  H1423   1.083   .     S
C1364  H1425   1.082   .     S
C1364  C501    1.392   1_556 S
C1365  H1424   1.079   .     S
C1366  H1391   1.118   .     S
C1366  H1390   1.110   .     S
C1366  C1368   1.531   .     S
C1366  O1440   1.417   .     S
C1367  C1382   1.410   .     A
C1369  H1394   1.109   .     S
C1369  H1395   1.108   .     S
C1369  H1396   1.111   .     S
C1369  C1176   1.526   1_655 S
C1370  H1399   1.111   .     S
C1370  C1371   1.535   .     S
C1370  O1430   1.412   .     S
C1370  H1397   1.110   .     S
C1371  H1401   1.110   .     S
C1371  H1400   1.111   .     S
C1371  C1372   1.525   .     S
C1372  H1404   1.111   .     S
C1372  H1403   1.110   .     S
C1372  H1210   1.111   1_655 S
C1373  H1405   1.109   .     S
C1373  H1406   1.114   .     S
C1373  O1431   1.417   .     S
C1373  C1182   1.536   1_655 S
C1374  H1408   1.107   .     S
C1374  C1375   1.527   .     S
C1374  H1407   1.108   .     S
C1376  H1414   1.117   .     S
C1376  O1432   1.418   .     S
C1376  C321    1.526   1_656 S
C1376  H1221   1.111   1_655 S
C1377  H1415   1.112   .     S
C1378  C1383   1.399   .     A
C1379  H1419   1.111   .     S
C1379  C513    1.527   1_556 S
C1379  H457    1.111   1_556 S
C1379  H554    1.110   1_556 S
C1380  C1381   1.398   .     A
C1380  C497    1.414   1_556 S
C1380  C514    1.417   1_556 S
C1381  C1382   1.384   .     A
C1381  H1421   1.080   .     S
C1382  H1388   1.080   .     S
C1383  H1422   1.080   .     S
C1384  I1426   2.125   .     S
Cu1385 Cu1386  2.680   .     S
Cu1385 O1438   1.952   .     S
Cu1385 O1429   1.967   .     S
Cu1385 O1434   1.964   .     S
Cu1385 O1436   1.966   .     S
Cu1385 N1427   2.014   .     S
Cu1386 O1437   1.967   .     S
Cu1386 O1435   1.952   .     S
Cu1386 O1439   1.964   .     S
Cu1386 N1428   2.014   .     S
Cu1386 O1433   1.966   .     S
H1392  C1176   1.110   1_655 S
H1393  C1656   1.110   .     S
H1410  C1663   1.110   .     S
H1411  C1663   1.110   .     S
H1412  C1183   1.111   1_655 S
H1416  C1185   1.110   1_655 S
H1417  C323    1.111   1_655 S
O1432  C497    1.387   1_556 S
C1441  O1525   1.292   .     A
C1441  C1449   1.449   .     S
C1441  O1529   1.291   .     A
C1442  C1444   1.468   .     S
C1442  C1463   1.420   .     A
C1442  C1459   1.400   .     A
C1443  H1485   1.083   .     S
C1443  C1449   1.399   .     A
C1443  C869    1.384   1_565 S
C1444  O1531   1.292   .     A
C1444  O1530   1.299   .     A
C1445  C1446   1.401   .     A
C1445  H1483   1.081   .     S
C1446  C1455   1.459   .     S
C1446  C1447   1.416   .     A
C1447  O1536   1.383   .     S
C1448  C1449   1.398   .     A
C1448  H1494   1.084   .     S
C1448  C871    1.385   1_565 S
C1450  O1526   1.396   .     S
C1450  N1524   1.375   .     A
C1450  C1547   1.439   .     S
C1451  N1523   1.363   .     A
C1451  H1505   1.078   .     S
C1451  C1642   1.439   1_455 S
C1452  C1463   1.417   .     A
C1452  C597    1.414   1_556 S
C1452  C610    1.421   1_556 S
C1453  H1516   1.077   .     S
C1453  N1523   1.358   .     A
C1453  C1646   1.420   1_455 S
C1454  N1524   1.375   .     A
C1454  O1527   1.384   .     S
C1454  C1549   1.420   .     S
C1455  O1532   1.288   .     A
C1455  O1533   1.300   .     A
C1456  O1535   1.297   .     A
C1456  O1534   1.301   .     A
C1456  C1458   1.480   .     S
C1457  C1480   1.405   .     A
C1458  C1480   1.414   .     A
C1458  C1479   1.399   .     A
C1459  C1460   1.385   .     A
C1459  H1519   1.083   .     S
C1460  H1521   1.082   .     S
C1460  C597    1.392   1_556 S
C1461  H1520   1.079   .     S
C1462  H1487   1.118   .     S
C1462  H1486   1.110   .     S
C1462  C1464   1.531   .     S
C1462  O1536   1.417   .     S
C1463  C1478   1.410   .     A
C1464  C1657   1.526   1_455 S
C1464  H1680   1.110   1_455 S
C1465  H1490   1.109   .     S
C1465  H1491   1.108   .     S
C1465  H1492   1.111   .     S
C1465  C1560   1.526   .     S
C1466  H1495   1.111   .     S
C1466  C1467   1.535   .     S
C1466  O1526   1.412   .     S
C1466  H1493   1.110   .     S
C1467  H1497   1.110   .     S
C1467  H1496   1.111   .     S
C1467  C1468   1.525   .     S
C1468  H1500   1.111   .     S
C1468  H1499   1.110   .     S
C1468  H1594   1.111   .     S
C1469  H1501   1.109   .     S
C1469  H1502   1.114   .     S
C1469  O1527   1.417   .     S
C1469  C1566   1.536   .     S
C1470  H1504   1.107   .     S
C1470  C1471   1.527   .     S
C1470  H1503   1.108   .     S
C1470  C1661   1.536   1_455 S
C1471  H1700   1.111   1_455 S
C1472  H1510   1.117   .     S
C1472  O1528   1.418   .     S
C1472  C705    1.526   1_556 S
C1472  H1605   1.111   .     S
C1473  H1511   1.112   .     S
C1473  C800    1.526   1_455 S
C1473  H1704   1.110   1_455 S
C1474  C1479   1.399   .     A
C1475  H1515   1.111   .     S
C1475  C609    1.527   1_556 S
C1475  H841    1.111   1_456 S
C1475  H650    1.110   1_556 S
C1476  C1477   1.398   .     A
C1476  C593    1.414   1_556 S
C1476  C610    1.417   1_556 S
C1477  C1478   1.384   .     A
C1477  H1517   1.080   .     S
C1478  H1484   1.080   .     S
C1479  H1518   1.080   .     S
C1480  I1522   2.125   .     S
Cu1481 Cu1482  2.680   .     S
Cu1481 O1534   1.952   .     S
Cu1481 O1525   1.967   .     S
Cu1481 O1530   1.964   .     S
Cu1481 O1532   1.966   .     S
Cu1481 N1523   2.014   .     S
Cu1482 O1533   1.967   .     S
Cu1482 O1531   1.952   .     S
Cu1482 O1535   1.964   .     S
Cu1482 N1524   2.014   .     S
Cu1482 O1529   1.966   .     S
H1488  C1560   1.110   .     S
H1489  C888    1.110   1_565 S
H1498  C1660   1.111   1_455 S
H1506  C895    1.110   1_565 S
H1507  C895    1.110   1_565 S
H1508  C1567   1.111   .     S
H1509  C1664   1.111   1_455 S
H1512  C1569   1.110   .     S
O1528  C593    1.387   1_556 S
C1537  O1621   1.292   .     A
C1537  C1545   1.449   .     S
C1537  O1625   1.291   .     A
C1538  C1540   1.468   .     S
C1538  C1559   1.420   .     A
C1538  C1555   1.400   .     A
C1539  H1581   1.083   .     S
C1539  C1545   1.399   .     A
C1539  C965    1.384   1_565 S
C1540  O1627   1.292   .     A
C1540  O1626   1.299   .     A
C1541  C1542   1.401   .     A
C1541  H1579   1.081   .     S
C1542  C1551   1.459   .     S
C1542  C1543   1.416   .     A
C1543  O1632   1.383   .     S
C1544  C1545   1.398   .     A
C1544  H1590   1.084   .     S
C1544  C967    1.385   1_565 S
C1546  O1622   1.396   .     S
C1546  N1620   1.375   .     A
C1546  C1643   1.439   .     S
C1547  N1619   1.363   .     A
C1547  H1601   1.078   .     S
C1548  C1559   1.417   .     A
C1548  C693    1.414   1_556 S
C1548  C706    1.421   1_556 S
C1549  H1612   1.077   .     S
C1549  N1619   1.358   .     A
C1550  N1620   1.375   .     A
C1550  O1623   1.384   .     S
C1550  C1645   1.420   .     S
C1551  O1628   1.288   .     A
C1551  O1629   1.300   .     A
C1552  O1631   1.297   .     A
C1552  O1630   1.301   .     A
C1552  C1554   1.480   .     S
C1553  C1576   1.405   .     A
C1554  C1576   1.414   .     A
C1554  C1575   1.399   .     A
C1555  C1556   1.385   .     A
C1555  H1615   1.083   .     S
C1556  H1617   1.082   .     S
C1556  C693    1.392   1_556 S
C1557  H1616   1.079   .     S
C1558  H1583   1.118   .     S
C1558  H1582   1.110   .     S
C1558  C1560   1.531   .     S
C1558  O1632   1.417   .     S
C1559  C1574   1.410   .     A
C1561  H1586   1.109   .     S
C1561  H1587   1.108   .     S
C1561  H1588   1.111   .     S
C1561  C1656   1.526   .     S
C1562  H1591   1.111   .     S
C1562  C1563   1.535   .     S
C1562  O1622   1.412   .     S
C1562  H1589   1.110   .     S
C1563  H1593   1.110   .     S
C1563  H1592   1.111   .     S
C1563  C1564   1.525   .     S
C1564  H1596   1.111   .     S
C1564  H1595   1.110   .     S
C1564  H1690   1.111   .     S
C1565  H1597   1.109   .     S
C1565  H1598   1.114   .     S
C1565  O1623   1.417   .     S
C1565  C1662   1.536   .     S
C1566  H1600   1.107   .     S
C1566  C1567   1.527   .     S
C1566  H1599   1.108   .     S
C1568  H1606   1.117   .     S
C1568  O1624   1.418   .     S
C1568  C801    1.526   1_556 S
C1568  H1701   1.111   .     S
C1569  H1607   1.112   .     S
C1570  C1575   1.399   .     A
C1571  H1611   1.111   .     S
C1571  C705    1.527   1_556 S
C1571  H649    1.111   1_556 S
C1571  H746    1.110   1_556 S
C1572  C1573   1.398   .     A
C1572  C689    1.414   1_556 S
C1572  C706    1.417   1_556 S
C1573  C1574   1.384   .     A
C1573  H1613   1.080   .     S
C1574  H1580   1.080   .     S
C1575  H1614   1.080   .     S
C1576  I1618   2.125   .     S
Cu1577 Cu1578  2.680   .     S
Cu1577 O1630   1.952   .     S
Cu1577 O1621   1.967   .     S
Cu1577 O1626   1.964   .     S
Cu1577 O1628   1.966   .     S
Cu1577 N1619   2.014   .     S
Cu1578 O1629   1.967   .     S
Cu1578 O1627   1.952   .     S
Cu1578 O1631   1.964   .     S
Cu1578 N1620   2.014   .     S
Cu1578 O1625   1.966   .     S
H1584  C1656   1.110   .     S
H1585  C984    1.110   1_565 S
H1602  C991    1.110   1_565 S
H1603  C991    1.110   1_565 S
H1604  C1663   1.111   .     S
H1608  C1665   1.110   .     S
O1624  C689    1.387   1_556 S
C1633  O1717   1.292   .     A
C1633  C1641   1.449   .     S
C1633  O1721   1.291   .     A
C1634  C1636   1.468   .     S
C1634  C1655   1.420   .     A
C1634  C1651   1.400   .     A
C1635  H1677   1.083   .     S
C1635  C1641   1.399   .     A
C1635  C1061   1.384   1_565 S
C1636  O1723   1.292   .     A
C1636  O1722   1.299   .     A
C1637  C1638   1.401   .     A
C1637  H1675   1.081   .     S
C1638  C1647   1.459   .     S
C1638  C1639   1.416   .     A
C1639  O1728   1.383   .     S
C1640  C1641   1.398   .     A
C1640  H1686   1.084   .     S
C1640  C1063   1.385   1_565 S
C1642  O1718   1.396   .     S
C1642  N1716   1.375   .     A
C1642  C1451   1.439   1_655 S
C1643  N1715   1.363   .     A
C1643  H1697   1.078   .     S
C1644  C1655   1.417   .     A
C1644  C789    1.414   1_556 S
C1644  C802    1.421   1_556 S
C1645  H1708   1.077   .     S
C1645  N1715   1.358   .     A
C1646  N1716   1.375   .     A
C1646  O1719   1.384   .     S
C1646  C1453   1.420   1_655 S
C1647  O1724   1.288   .     A
C1647  O1725   1.300   .     A
C1648  O1727   1.297   .     A
C1648  O1726   1.301   .     A
C1648  C1650   1.480   .     S
C1649  C1672   1.405   .     A
C1650  C1672   1.414   .     A
C1650  C1671   1.399   .     A
C1651  C1652   1.385   .     A
C1651  H1711   1.083   .     S
C1652  H1713   1.082   .     S
C1652  C789    1.392   1_556 S
C1653  H1712   1.079   .     S
C1654  H1679   1.118   .     S
C1654  H1678   1.110   .     S
C1654  C1656   1.531   .     S
C1654  O1728   1.417   .     S
C1655  C1670   1.410   .     A
C1657  H1682   1.109   .     S
C1657  H1683   1.108   .     S
C1657  H1684   1.111   .     S
C1657  C1464   1.526   1_655 S
C1658  H1687   1.111   .     S
C1658  C1659   1.535   .     S
C1658  O1718   1.412   .     S
C1658  H1685   1.110   .     S
C1659  H1689   1.110   .     S
C1659  H1688   1.111   .     S
C1659  C1660   1.525   .     S
C1660  H1692   1.111   .     S
C1660  H1691   1.110   .     S
C1660  H1498   1.111   1_655 S
C1661  H1693   1.109   .     S
C1661  H1694   1.114   .     S
C1661  O1719   1.417   .     S
C1661  C1470   1.536   1_655 S
C1662  H1696   1.107   .     S
C1662  C1663   1.527   .     S
C1662  H1695   1.108   .     S
C1664  H1702   1.117   .     S
C1664  O1720   1.418   .     S
C1664  C609    1.526   1_656 S
C1664  H1509   1.111   1_655 S
C1665  H1703   1.112   .     S
C1666  C1671   1.399   .     A
C1667  H1707   1.111   .     S
C1667  C801    1.527   1_556 S
C1667  H745    1.111   1_556 S
C1667  H842    1.110   1_556 S
C1668  C1669   1.398   .     A
C1668  C785    1.414   1_556 S
C1668  C802    1.417   1_556 S
C1669  C1670   1.384   .     A
C1669  H1709   1.080   .     S
C1670  H1676   1.080   .     S
C1671  H1710   1.080   .     S
C1672  I1714   2.125   .     S
Cu1673 Cu1674  2.680   .     S
Cu1673 O1726   1.952   .     S
Cu1673 O1717   1.967   .     S
Cu1673 O1722   1.964   .     S
Cu1673 O1724   1.966   .     S
Cu1673 N1715   2.014   .     S
Cu1674 O1725   1.967   .     S
Cu1674 O1723   1.952   .     S
Cu1674 O1727   1.964   .     S
Cu1674 N1716   2.014   .     S
Cu1674 O1721   1.966   .     S
H1680  C1464   1.110   1_655 S
H1681  C1080   1.110   1_565 S
H1698  C1087   1.110   1_565 S
H1699  C1087   1.110   1_565 S
H1700  C1471   1.111   1_655 S
H1704  C1473   1.110   1_655 S
H1705  C611    1.111   1_655 S
O1720  C785    1.387   1_556 S
