data_str_m2_o1_o18_pcu_sym.105
_audit_creation_date              2020-01-03
_audit_creation_method            'Materials Studio'
_symmetry_space_group_name_H-M    'P1'
_symmetry_Int_Tables_number       1
_symmetry_cell_setting            triclinic
loop_
_symmetry_equiv_pos_as_xyz
  x,y,z
_cell_length_a                    28.5521
_cell_length_b                    32.4648
_cell_length_c                    30.8943
_cell_angle_alpha                 89.9206
_cell_angle_beta                  74.6467
_cell_angle_gamma                 89.8149
loop_
_atom_site_label
_atom_site_type_symbol
_atom_site_fract_x
_atom_site_fract_y
_atom_site_fract_z
_atom_site_U_iso_or_equiv
_atom_site_adp_type
_atom_site_occupancy
C1     C     0.33332   0.08736   0.25018   0.00000  Uiso   1.00
C2     C     0.33328   0.24598   0.25009   0.00000  Uiso   1.00
C3     C     0.19556   0.16346   0.04810   0.00000  Uiso   1.00
C4     C     0.14167   0.19394   0.45528   0.00000  Uiso   1.00
C5     C     0.24413   0.15842   0.02561   0.00000  Uiso   1.00
C6     C     0.09325   0.19981   0.47801   0.00000  Uiso   1.00
C7     C     0.28934   0.02143   0.25746   0.00000  Uiso   1.00
C8     C     0.04386   0.31191   0.24360   0.00000  Uiso   1.00
C9     C     0.28929   0.31216   0.25751   0.00000  Uiso   1.00
C10    C     0.04389   0.02118   0.24372   0.00000  Uiso   1.00
C11    C     0.33323   0.29059   0.25036   0.00000  Uiso   1.00
C12    C     0.33331   0.04275   0.25048   0.00000  Uiso   1.00
C13    C     0.18361   0.14169   0.27849   0.00000  Uiso   1.00
C14    C     0.14993   0.19117   0.22112   0.00000  Uiso   1.00
C15    C     0.13303   0.14154   0.27915   0.00000  Uiso   1.00
C16    C     0.19991   0.19197   0.22135   0.00000  Uiso   1.00
C17    C     0.30612   0.16660   0.33614   0.00000  Uiso   1.00
C18    C     0.02721   0.16745   0.16390   0.00000  Uiso   1.00
C19    C     0.29119   0.16632   0.38541   0.00000  Uiso   1.00
C20    C     0.04243   0.17245   0.11500   0.00000  Uiso   1.00
C21    C     0.30857   0.15542   0.45696   0.00000  Uiso   1.00
C22    C     0.02756   0.19638   0.04576   0.00000  Uiso   1.00
C23    C     0.32446   0.15803   0.41039   0.00000  Uiso   1.00
C24    C     0.01043   0.18736   0.09129   0.00000  Uiso   1.00
C25    C     0.24230   0.17330   0.40748   0.00000  Uiso   1.00
C26    C     0.09130   0.16599   0.09269   0.00000  Uiso   1.00
C27    C     0.22556   0.17220   0.45454   0.00000  Uiso   1.00
C28    C     0.10993   0.17644   0.04726   0.00000  Uiso   1.00
C29    C     0.25949   0.16209   0.47915   0.00000  Uiso   1.00
C30    C     0.07685   0.19083   0.02354   0.00000  Uiso   1.00
C31    C     0.17594   0.17949   0.47762   0.00000  Uiso   1.00
C32    C     0.16027   0.17274   0.02480   0.00000  Uiso   1.00
Cu33   Cu    0.04689   0.16667   0.25000   0.00000  Uiso   1.00
Cu34   Cu    0.28645   0.16666   0.25000   0.00000  Uiso   1.00
H35    H     0.26978   0.15100   0.04481   0.00000  Uiso   1.00
H36    H     0.06836   0.21124   0.45964   0.00000  Uiso   1.00
H37    H     0.11400   0.15244   0.11171   0.00000  Uiso   1.00
H38    H     0.21768   0.17834   0.38699   0.00000  Uiso   1.00
H39    H     0.30591   0.19290   0.10809   0.00000  Uiso   1.00
H40    H     0.02909   0.15253   0.39395   0.00000  Uiso   1.00
H41    H     0.00127   0.14762   0.47560   0.00000  Uiso   1.00
H42    H     0.00239   0.20834   0.02802   0.00000  Uiso   1.00
H43    H     0.18719   0.16090   0.08409   0.00000  Uiso   1.00
H44    H     0.15124   0.20236   0.42033   0.00000  Uiso   1.00
H45    H     0.25501   0.03759   0.26309   0.00000  Uiso   1.00
H46    H     0.07822   0.29576   0.23795   0.00000  Uiso   1.00
H47    H     0.25491   0.29621   0.26336   0.00000  Uiso   1.00
H48    H     0.07824   0.03715   0.23815   0.00000  Uiso   1.00
H49    H     0.19803   0.12177   0.29980   0.00000  Uiso   1.00
H50    H     0.13692   0.20982   0.19777   0.00000  Uiso   1.00
N51    N     0.11736   0.16668   0.24999   0.00000  Uiso   1.00
N52    N     0.21597   0.16666   0.25001   0.00000  Uiso   1.00
O53    O     0.03958   0.10655   0.25000   0.00000  Uiso   1.00
O54    O     0.29375   0.22678   0.25000   0.00000  Uiso   1.00
O55    O     0.29372   0.10654   0.25001   0.00000  Uiso   1.00
O56    O     0.03961   0.22679   0.25000   0.00000  Uiso   1.00
O57    O     0.01852   0.16668   0.31492   0.00000  Uiso   1.00
O58    O     0.31481   0.16666   0.18509   0.00000  Uiso   1.00
O59    O     0.27267   0.16667   0.31492   0.00000  Uiso   1.00
O60    O     0.06067   0.16667   0.18508   0.00000  Uiso   1.00
O61    O     0.09806   0.11611   0.30670   0.00000  Uiso   1.00
C62    C     0.11331   0.09353   0.33972   0.00000  Uiso   1.00
H63    H     0.08029   0.08608   0.36689   0.00000  Uiso   1.00
H64    H     0.13609   0.11201   0.35660   0.00000  Uiso   1.00
C65    C     0.13673   0.05252   0.32047   0.00000  Uiso   1.00
H66    H     0.10842   0.03222   0.31328   0.00000  Uiso   1.00
H67    H     0.16476   0.05755   0.28835   0.00000  Uiso   1.00
C68    C     0.16014   0.03076   0.35327   0.00000  Uiso   1.00
H69    H     0.18963   0.05004   0.35976   0.00000  Uiso   1.00
H70    H     0.17601   0.00098   0.33868   0.00000  Uiso   1.00
H71    H     0.13258   0.02460   0.38546   0.00000  Uiso   1.00
O72    O     0.23429   0.21479   0.19035   0.00000  Uiso   1.00
C73    C     0.21812   0.25496   0.18347   0.00000  Uiso   1.00
H74    H     0.24738   0.27677   0.18538   0.00000  Uiso   1.00
H75    H     0.18530   0.26530   0.20973   0.00000  Uiso   1.00
C76    C     0.21041   0.25830   0.13634   0.00000  Uiso   1.00
H77    H     0.24576   0.25382   0.11093   0.00000  Uiso   1.00
H78    H     0.18535   0.23389   0.13110   0.00000  Uiso   1.00
C79    C     0.18955   0.30026   0.12900   0.00000  Uiso   1.00
H80    H     0.15348   0.30487   0.15326   0.00000  Uiso   1.00
H81    H     0.18503   0.30195   0.09443   0.00000  Uiso   1.00
H82    H     0.21445   0.32523   0.13330   0.00000  Uiso   1.00
C83    C     0.66666   0.08736   0.25018   0.00000  Uiso   1.00
C84    C     0.66661   0.24598   0.25009   0.00000  Uiso   1.00
C85    C     0.52889   0.16346   0.04810   0.00000  Uiso   1.00
C86    C     0.47500   0.19394   0.45528   0.00000  Uiso   1.00
C87    C     0.57747   0.15842   0.02561   0.00000  Uiso   1.00
C88    C     0.42659   0.19981   0.47801   0.00000  Uiso   1.00
C89    C     0.62267   0.02143   0.25746   0.00000  Uiso   1.00
C90    C     0.37719   0.31191   0.24360   0.00000  Uiso   1.00
C91    C     0.62262   0.31216   0.25751   0.00000  Uiso   1.00
C92    C     0.37722   0.02118   0.24372   0.00000  Uiso   1.00
C93    C     0.66656   0.29059   0.25036   0.00000  Uiso   1.00
C94    C     0.66664   0.04275   0.25048   0.00000  Uiso   1.00
C95    C     0.51694   0.14169   0.27849   0.00000  Uiso   1.00
C96    C     0.48326   0.19117   0.22112   0.00000  Uiso   1.00
C97    C     0.46636   0.14154   0.27915   0.00000  Uiso   1.00
C98    C     0.53325   0.19197   0.22135   0.00000  Uiso   1.00
C99    C     0.63946   0.16660   0.33614   0.00000  Uiso   1.00
C100   C     0.36055   0.16745   0.16390   0.00000  Uiso   1.00
C101   C     0.62452   0.16632   0.38541   0.00000  Uiso   1.00
C102   C     0.37576   0.17245   0.11500   0.00000  Uiso   1.00
C103   C     0.64191   0.15542   0.45696   0.00000  Uiso   1.00
C104   C     0.36089   0.19638   0.04576   0.00000  Uiso   1.00
C105   C     0.65780   0.15803   0.41039   0.00000  Uiso   1.00
C106   C     0.34377   0.18736   0.09129   0.00000  Uiso   1.00
C107   C     0.57563   0.17330   0.40748   0.00000  Uiso   1.00
C108   C     0.42463   0.16599   0.09269   0.00000  Uiso   1.00
C109   C     0.55890   0.17220   0.45454   0.00000  Uiso   1.00
C110   C     0.44326   0.17644   0.04726   0.00000  Uiso   1.00
C111   C     0.59282   0.16209   0.47915   0.00000  Uiso   1.00
C112   C     0.41018   0.19083   0.02354   0.00000  Uiso   1.00
C113   C     0.50928   0.17949   0.47762   0.00000  Uiso   1.00
C114   C     0.49360   0.17274   0.02480   0.00000  Uiso   1.00
Cu115  Cu    0.38022   0.16667   0.25000   0.00000  Uiso   1.00
Cu116  Cu    0.61978   0.16666   0.25000   0.00000  Uiso   1.00
H117   H     0.60312   0.15100   0.04481   0.00000  Uiso   1.00
H118   H     0.40169   0.21124   0.45964   0.00000  Uiso   1.00
H119   H     0.44733   0.15244   0.11171   0.00000  Uiso   1.00
H120   H     0.55101   0.17834   0.38699   0.00000  Uiso   1.00
H121   H     0.63924   0.19290   0.10809   0.00000  Uiso   1.00
H122   H     0.36243   0.15253   0.39395   0.00000  Uiso   1.00
H123   H     0.33460   0.14762   0.47560   0.00000  Uiso   1.00
H124   H     0.33572   0.20834   0.02802   0.00000  Uiso   1.00
H125   H     0.52052   0.16090   0.08409   0.00000  Uiso   1.00
H126   H     0.48457   0.20236   0.42033   0.00000  Uiso   1.00
H127   H     0.58835   0.03759   0.26309   0.00000  Uiso   1.00
H128   H     0.41156   0.29576   0.23795   0.00000  Uiso   1.00
H129   H     0.58824   0.29621   0.26336   0.00000  Uiso   1.00
H130   H     0.41157   0.03715   0.23815   0.00000  Uiso   1.00
H131   H     0.53137   0.12177   0.29980   0.00000  Uiso   1.00
H132   H     0.47025   0.20982   0.19777   0.00000  Uiso   1.00
N133   N     0.45069   0.16668   0.24999   0.00000  Uiso   1.00
N134   N     0.54931   0.16666   0.25001   0.00000  Uiso   1.00
O135   O     0.37291   0.10655   0.25000   0.00000  Uiso   1.00
O136   O     0.62709   0.22678   0.25000   0.00000  Uiso   1.00
O137   O     0.62706   0.10654   0.25001   0.00000  Uiso   1.00
O138   O     0.37294   0.22679   0.25000   0.00000  Uiso   1.00
O139   O     0.35186   0.16668   0.31492   0.00000  Uiso   1.00
O140   O     0.64814   0.16666   0.18509   0.00000  Uiso   1.00
O141   O     0.60600   0.16667   0.31492   0.00000  Uiso   1.00
O142   O     0.39400   0.16667   0.18508   0.00000  Uiso   1.00
O143   O     0.43139   0.11611   0.30670   0.00000  Uiso   1.00
C144   C     0.44665   0.09353   0.33972   0.00000  Uiso   1.00
H145   H     0.41363   0.08608   0.36689   0.00000  Uiso   1.00
H146   H     0.46942   0.11201   0.35660   0.00000  Uiso   1.00
C147   C     0.47006   0.05252   0.32047   0.00000  Uiso   1.00
H148   H     0.44175   0.03222   0.31328   0.00000  Uiso   1.00
H149   H     0.49810   0.05755   0.28835   0.00000  Uiso   1.00
C150   C     0.49347   0.03076   0.35327   0.00000  Uiso   1.00
H151   H     0.52297   0.05004   0.35976   0.00000  Uiso   1.00
H152   H     0.50935   0.00098   0.33868   0.00000  Uiso   1.00
H153   H     0.46592   0.02460   0.38546   0.00000  Uiso   1.00
O154   O     0.56762   0.21479   0.19035   0.00000  Uiso   1.00
C155   C     0.55145   0.25496   0.18347   0.00000  Uiso   1.00
H156   H     0.58071   0.27677   0.18538   0.00000  Uiso   1.00
H157   H     0.51864   0.26530   0.20973   0.00000  Uiso   1.00
C158   C     0.54375   0.25830   0.13634   0.00000  Uiso   1.00
H159   H     0.57909   0.25382   0.11093   0.00000  Uiso   1.00
H160   H     0.51868   0.23389   0.13110   0.00000  Uiso   1.00
C161   C     0.52288   0.30026   0.12900   0.00000  Uiso   1.00
H162   H     0.48681   0.30487   0.15326   0.00000  Uiso   1.00
H163   H     0.51836   0.30195   0.09443   0.00000  Uiso   1.00
H164   H     0.54778   0.32523   0.13330   0.00000  Uiso   1.00
C165   C     0.99999   0.08736   0.25018   0.00000  Uiso   1.00
C166   C     0.99995   0.24598   0.25009   0.00000  Uiso   1.00
C167   C     0.86222   0.16346   0.04810   0.00000  Uiso   1.00
C168   C     0.80834   0.19394   0.45528   0.00000  Uiso   1.00
C169   C     0.91080   0.15842   0.02561   0.00000  Uiso   1.00
C170   C     0.75992   0.19981   0.47801   0.00000  Uiso   1.00
C171   C     0.95601   0.02143   0.25746   0.00000  Uiso   1.00
C172   C     0.71053   0.31191   0.24360   0.00000  Uiso   1.00
C173   C     0.95595   0.31216   0.25751   0.00000  Uiso   1.00
C174   C     0.71055   0.02118   0.24372   0.00000  Uiso   1.00
C175   C     0.99990   0.29059   0.25036   0.00000  Uiso   1.00
C176   C     0.99998   0.04275   0.25048   0.00000  Uiso   1.00
C177   C     0.85027   0.14169   0.27849   0.00000  Uiso   1.00
C178   C     0.81659   0.19117   0.22112   0.00000  Uiso   1.00
C179   C     0.79969   0.14154   0.27915   0.00000  Uiso   1.00
C180   C     0.86658   0.19197   0.22135   0.00000  Uiso   1.00
C181   C     0.97279   0.16660   0.33614   0.00000  Uiso   1.00
C182   C     0.69388   0.16745   0.16390   0.00000  Uiso   1.00
C183   C     0.95786   0.16632   0.38541   0.00000  Uiso   1.00
C184   C     0.70910   0.17245   0.11500   0.00000  Uiso   1.00
C185   C     0.97524   0.15542   0.45696   0.00000  Uiso   1.00
C186   C     0.69422   0.19638   0.04576   0.00000  Uiso   1.00
C187   C     0.99113   0.15803   0.41039   0.00000  Uiso   1.00
C188   C     0.67710   0.18736   0.09129   0.00000  Uiso   1.00
C189   C     0.90897   0.17330   0.40748   0.00000  Uiso   1.00
C190   C     0.75796   0.16599   0.09269   0.00000  Uiso   1.00
C191   C     0.89223   0.17220   0.45454   0.00000  Uiso   1.00
C192   C     0.77660   0.17644   0.04726   0.00000  Uiso   1.00
C193   C     0.92616   0.16209   0.47915   0.00000  Uiso   1.00
C194   C     0.74352   0.19083   0.02354   0.00000  Uiso   1.00
C195   C     0.84261   0.17949   0.47762   0.00000  Uiso   1.00
C196   C     0.82693   0.17274   0.02480   0.00000  Uiso   1.00
Cu197  Cu    0.71355   0.16667   0.25000   0.00000  Uiso   1.00
Cu198  Cu    0.95311   0.16666   0.25000   0.00000  Uiso   1.00
H199   H     0.93645   0.15100   0.04481   0.00000  Uiso   1.00
H200   H     0.73503   0.21124   0.45964   0.00000  Uiso   1.00
H201   H     0.78066   0.15244   0.11171   0.00000  Uiso   1.00
H202   H     0.88435   0.17834   0.38699   0.00000  Uiso   1.00
H203   H     0.97258   0.19290   0.10809   0.00000  Uiso   1.00
H204   H     0.69576   0.15253   0.39395   0.00000  Uiso   1.00
H205   H     0.66793   0.14762   0.47560   0.00000  Uiso   1.00
H206   H     0.66905   0.20834   0.02802   0.00000  Uiso   1.00
H207   H     0.85385   0.16090   0.08409   0.00000  Uiso   1.00
H208   H     0.81790   0.20236   0.42033   0.00000  Uiso   1.00
H209   H     0.92168   0.03759   0.26309   0.00000  Uiso   1.00
H210   H     0.74489   0.29576   0.23795   0.00000  Uiso   1.00
H211   H     0.92157   0.29621   0.26336   0.00000  Uiso   1.00
H212   H     0.74491   0.03715   0.23815   0.00000  Uiso   1.00
H213   H     0.86470   0.12177   0.29980   0.00000  Uiso   1.00
H214   H     0.80359   0.20982   0.19777   0.00000  Uiso   1.00
N215   N     0.78403   0.16668   0.24999   0.00000  Uiso   1.00
N216   N     0.88264   0.16666   0.25001   0.00000  Uiso   1.00
O217   O     0.70625   0.10655   0.25000   0.00000  Uiso   1.00
O218   O     0.96042   0.22678   0.25000   0.00000  Uiso   1.00
O219   O     0.96039   0.10654   0.25001   0.00000  Uiso   1.00
O220   O     0.70628   0.22679   0.25000   0.00000  Uiso   1.00
O221   O     0.68519   0.16668   0.31492   0.00000  Uiso   1.00
O222   O     0.98148   0.16666   0.18509   0.00000  Uiso   1.00
O223   O     0.93933   0.16667   0.31492   0.00000  Uiso   1.00
O224   O     0.72733   0.16667   0.18508   0.00000  Uiso   1.00
O225   O     0.76472   0.11611   0.30670   0.00000  Uiso   1.00
C226   C     0.77998   0.09353   0.33972   0.00000  Uiso   1.00
H227   H     0.74696   0.08608   0.36689   0.00000  Uiso   1.00
H228   H     0.80275   0.11201   0.35660   0.00000  Uiso   1.00
C229   C     0.80340   0.05252   0.32047   0.00000  Uiso   1.00
H230   H     0.77509   0.03222   0.31328   0.00000  Uiso   1.00
H231   H     0.83143   0.05755   0.28835   0.00000  Uiso   1.00
C232   C     0.82680   0.03076   0.35327   0.00000  Uiso   1.00
H233   H     0.85630   0.05004   0.35976   0.00000  Uiso   1.00
H234   H     0.84268   0.00098   0.33868   0.00000  Uiso   1.00
H235   H     0.79925   0.02460   0.38546   0.00000  Uiso   1.00
O236   O     0.90096   0.21479   0.19035   0.00000  Uiso   1.00
C237   C     0.88478   0.25496   0.18347   0.00000  Uiso   1.00
H238   H     0.91404   0.27677   0.18538   0.00000  Uiso   1.00
H239   H     0.85197   0.26530   0.20973   0.00000  Uiso   1.00
C240   C     0.87708   0.25830   0.13634   0.00000  Uiso   1.00
H241   H     0.91242   0.25382   0.11093   0.00000  Uiso   1.00
H242   H     0.85202   0.23389   0.13110   0.00000  Uiso   1.00
C243   C     0.85621   0.30026   0.12900   0.00000  Uiso   1.00
H244   H     0.82015   0.30487   0.15326   0.00000  Uiso   1.00
H245   H     0.85170   0.30195   0.09443   0.00000  Uiso   1.00
H246   H     0.88112   0.32523   0.13330   0.00000  Uiso   1.00
C247   C     0.33332   0.42069   0.25018   0.00000  Uiso   1.00
C248   C     0.33328   0.57931   0.25009   0.00000  Uiso   1.00
C249   C     0.19556   0.49679   0.04810   0.00000  Uiso   1.00
C250   C     0.14167   0.52727   0.45528   0.00000  Uiso   1.00
C251   C     0.24413   0.49175   0.02561   0.00000  Uiso   1.00
C252   C     0.09325   0.53314   0.47801   0.00000  Uiso   1.00
C253   C     0.28934   0.35476   0.25746   0.00000  Uiso   1.00
C254   C     0.04386   0.64525   0.24360   0.00000  Uiso   1.00
C255   C     0.28929   0.64550   0.25751   0.00000  Uiso   1.00
C256   C     0.04389   0.35452   0.24372   0.00000  Uiso   1.00
C257   C     0.33323   0.62392   0.25036   0.00000  Uiso   1.00
C258   C     0.33331   0.37608   0.25048   0.00000  Uiso   1.00
C259   C     0.18361   0.47502   0.27849   0.00000  Uiso   1.00
C260   C     0.14993   0.52450   0.22112   0.00000  Uiso   1.00
C261   C     0.13303   0.47488   0.27915   0.00000  Uiso   1.00
C262   C     0.19991   0.52530   0.22135   0.00000  Uiso   1.00
C263   C     0.30612   0.49993   0.33614   0.00000  Uiso   1.00
C264   C     0.02721   0.50078   0.16390   0.00000  Uiso   1.00
C265   C     0.29119   0.49965   0.38541   0.00000  Uiso   1.00
C266   C     0.04243   0.50578   0.11500   0.00000  Uiso   1.00
C267   C     0.30857   0.48876   0.45696   0.00000  Uiso   1.00
C268   C     0.02756   0.52971   0.04576   0.00000  Uiso   1.00
C269   C     0.32446   0.49137   0.41039   0.00000  Uiso   1.00
C270   C     0.01043   0.52069   0.09129   0.00000  Uiso   1.00
C271   C     0.24230   0.50663   0.40748   0.00000  Uiso   1.00
C272   C     0.09130   0.49932   0.09269   0.00000  Uiso   1.00
C273   C     0.22556   0.50554   0.45454   0.00000  Uiso   1.00
C274   C     0.10993   0.50977   0.04726   0.00000  Uiso   1.00
C275   C     0.25949   0.49542   0.47915   0.00000  Uiso   1.00
C276   C     0.07685   0.52416   0.02354   0.00000  Uiso   1.00
C277   C     0.17594   0.51282   0.47762   0.00000  Uiso   1.00
C278   C     0.16027   0.50607   0.02480   0.00000  Uiso   1.00
Cu279  Cu    0.04689   0.50001   0.25000   0.00000  Uiso   1.00
Cu280  Cu    0.28645   0.49999   0.25000   0.00000  Uiso   1.00
H281   H     0.26978   0.48434   0.04481   0.00000  Uiso   1.00
H282   H     0.06836   0.54457   0.45964   0.00000  Uiso   1.00
H283   H     0.11400   0.48577   0.11171   0.00000  Uiso   1.00
H284   H     0.21768   0.51167   0.38699   0.00000  Uiso   1.00
H285   H     0.30591   0.52624   0.10809   0.00000  Uiso   1.00
H286   H     0.02909   0.48587   0.39395   0.00000  Uiso   1.00
H287   H     0.00127   0.48095   0.47560   0.00000  Uiso   1.00
H288   H     0.00239   0.54168   0.02802   0.00000  Uiso   1.00
H289   H     0.18719   0.49423   0.08409   0.00000  Uiso   1.00
H290   H     0.15124   0.53569   0.42033   0.00000  Uiso   1.00
H291   H     0.25501   0.37093   0.26309   0.00000  Uiso   1.00
H292   H     0.07822   0.62910   0.23795   0.00000  Uiso   1.00
H293   H     0.25491   0.62955   0.26336   0.00000  Uiso   1.00
H294   H     0.07824   0.37048   0.23815   0.00000  Uiso   1.00
H295   H     0.19803   0.45510   0.29980   0.00000  Uiso   1.00
H296   H     0.13692   0.54316   0.19777   0.00000  Uiso   1.00
N297   N     0.11736   0.50001   0.24999   0.00000  Uiso   1.00
N298   N     0.21597   0.49999   0.25001   0.00000  Uiso   1.00
O299   O     0.03958   0.43989   0.25000   0.00000  Uiso   1.00
O300   O     0.29375   0.56011   0.25000   0.00000  Uiso   1.00
O301   O     0.29372   0.43988   0.25001   0.00000  Uiso   1.00
O302   O     0.03961   0.56012   0.25000   0.00000  Uiso   1.00
O303   O     0.01852   0.50001   0.31492   0.00000  Uiso   1.00
O304   O     0.31481   0.49999   0.18509   0.00000  Uiso   1.00
O305   O     0.27267   0.50000   0.31492   0.00000  Uiso   1.00
O306   O     0.06067   0.50000   0.18508   0.00000  Uiso   1.00
O307   O     0.09806   0.44945   0.30670   0.00000  Uiso   1.00
C308   C     0.11331   0.42687   0.33972   0.00000  Uiso   1.00
H309   H     0.08029   0.41942   0.36689   0.00000  Uiso   1.00
H310   H     0.13609   0.44534   0.35660   0.00000  Uiso   1.00
C311   C     0.13673   0.38585   0.32047   0.00000  Uiso   1.00
H312   H     0.10842   0.36556   0.31328   0.00000  Uiso   1.00
H313   H     0.16476   0.39089   0.28835   0.00000  Uiso   1.00
C314   C     0.16014   0.36409   0.35327   0.00000  Uiso   1.00
H315   H     0.18963   0.38337   0.35976   0.00000  Uiso   1.00
H316   H     0.17601   0.33431   0.33868   0.00000  Uiso   1.00
H317   H     0.13258   0.35793   0.38546   0.00000  Uiso   1.00
O318   O     0.23429   0.54812   0.19035   0.00000  Uiso   1.00
C319   C     0.21812   0.58829   0.18347   0.00000  Uiso   1.00
H320   H     0.24738   0.61011   0.18538   0.00000  Uiso   1.00
H321   H     0.18530   0.59863   0.20973   0.00000  Uiso   1.00
C322   C     0.21041   0.59164   0.13634   0.00000  Uiso   1.00
H323   H     0.24576   0.58716   0.11093   0.00000  Uiso   1.00
H324   H     0.18535   0.56722   0.13110   0.00000  Uiso   1.00
C325   C     0.18955   0.63360   0.12900   0.00000  Uiso   1.00
H326   H     0.15348   0.63820   0.15326   0.00000  Uiso   1.00
H327   H     0.18503   0.63528   0.09443   0.00000  Uiso   1.00
H328   H     0.21445   0.65857   0.13330   0.00000  Uiso   1.00
C329   C     0.66666   0.42069   0.25018   0.00000  Uiso   1.00
C330   C     0.66661   0.57931   0.25009   0.00000  Uiso   1.00
C331   C     0.52889   0.49679   0.04810   0.00000  Uiso   1.00
C332   C     0.47500   0.52727   0.45528   0.00000  Uiso   1.00
C333   C     0.57747   0.49175   0.02561   0.00000  Uiso   1.00
C334   C     0.42659   0.53314   0.47801   0.00000  Uiso   1.00
C335   C     0.62267   0.35476   0.25746   0.00000  Uiso   1.00
C336   C     0.37719   0.64525   0.24360   0.00000  Uiso   1.00
C337   C     0.62262   0.64550   0.25751   0.00000  Uiso   1.00
C338   C     0.37722   0.35452   0.24372   0.00000  Uiso   1.00
C339   C     0.66656   0.62392   0.25036   0.00000  Uiso   1.00
C340   C     0.66664   0.37608   0.25048   0.00000  Uiso   1.00
C341   C     0.51694   0.47502   0.27849   0.00000  Uiso   1.00
C342   C     0.48326   0.52450   0.22112   0.00000  Uiso   1.00
C343   C     0.46636   0.47488   0.27915   0.00000  Uiso   1.00
C344   C     0.53325   0.52530   0.22135   0.00000  Uiso   1.00
C345   C     0.63946   0.49993   0.33614   0.00000  Uiso   1.00
C346   C     0.36055   0.50078   0.16390   0.00000  Uiso   1.00
C347   C     0.62452   0.49965   0.38541   0.00000  Uiso   1.00
C348   C     0.37576   0.50578   0.11500   0.00000  Uiso   1.00
C349   C     0.64191   0.48876   0.45696   0.00000  Uiso   1.00
C350   C     0.36089   0.52971   0.04576   0.00000  Uiso   1.00
C351   C     0.65780   0.49137   0.41039   0.00000  Uiso   1.00
C352   C     0.34377   0.52069   0.09129   0.00000  Uiso   1.00
C353   C     0.57563   0.50663   0.40748   0.00000  Uiso   1.00
C354   C     0.42463   0.49932   0.09269   0.00000  Uiso   1.00
C355   C     0.55890   0.50554   0.45454   0.00000  Uiso   1.00
C356   C     0.44326   0.50977   0.04726   0.00000  Uiso   1.00
C357   C     0.59282   0.49542   0.47915   0.00000  Uiso   1.00
C358   C     0.41018   0.52416   0.02354   0.00000  Uiso   1.00
C359   C     0.50928   0.51282   0.47762   0.00000  Uiso   1.00
C360   C     0.49360   0.50607   0.02480   0.00000  Uiso   1.00
Cu361  Cu    0.38022   0.50001   0.25000   0.00000  Uiso   1.00
Cu362  Cu    0.61978   0.49999   0.25000   0.00000  Uiso   1.00
H363   H     0.60312   0.48434   0.04481   0.00000  Uiso   1.00
H364   H     0.40169   0.54457   0.45964   0.00000  Uiso   1.00
H365   H     0.44733   0.48577   0.11171   0.00000  Uiso   1.00
H366   H     0.55101   0.51167   0.38699   0.00000  Uiso   1.00
H367   H     0.63924   0.52624   0.10809   0.00000  Uiso   1.00
H368   H     0.36243   0.48587   0.39395   0.00000  Uiso   1.00
H369   H     0.33460   0.48095   0.47560   0.00000  Uiso   1.00
H370   H     0.33572   0.54168   0.02802   0.00000  Uiso   1.00
H371   H     0.52052   0.49423   0.08409   0.00000  Uiso   1.00
H372   H     0.48457   0.53569   0.42033   0.00000  Uiso   1.00
H373   H     0.58835   0.37093   0.26309   0.00000  Uiso   1.00
H374   H     0.41156   0.62910   0.23795   0.00000  Uiso   1.00
H375   H     0.58824   0.62955   0.26336   0.00000  Uiso   1.00
H376   H     0.41157   0.37048   0.23815   0.00000  Uiso   1.00
H377   H     0.53137   0.45510   0.29980   0.00000  Uiso   1.00
H378   H     0.47025   0.54316   0.19777   0.00000  Uiso   1.00
N379   N     0.45069   0.50001   0.24999   0.00000  Uiso   1.00
N380   N     0.54931   0.49999   0.25001   0.00000  Uiso   1.00
O381   O     0.37291   0.43989   0.25000   0.00000  Uiso   1.00
O382   O     0.62709   0.56011   0.25000   0.00000  Uiso   1.00
O383   O     0.62706   0.43988   0.25001   0.00000  Uiso   1.00
O384   O     0.37294   0.56012   0.25000   0.00000  Uiso   1.00
O385   O     0.35186   0.50001   0.31492   0.00000  Uiso   1.00
O386   O     0.64814   0.49999   0.18509   0.00000  Uiso   1.00
O387   O     0.60600   0.50000   0.31492   0.00000  Uiso   1.00
O388   O     0.39400   0.50000   0.18508   0.00000  Uiso   1.00
O389   O     0.43139   0.44945   0.30670   0.00000  Uiso   1.00
C390   C     0.44665   0.42687   0.33972   0.00000  Uiso   1.00
H391   H     0.41363   0.41942   0.36689   0.00000  Uiso   1.00
H392   H     0.46942   0.44534   0.35660   0.00000  Uiso   1.00
C393   C     0.47006   0.38585   0.32047   0.00000  Uiso   1.00
H394   H     0.44175   0.36556   0.31328   0.00000  Uiso   1.00
H395   H     0.49810   0.39089   0.28835   0.00000  Uiso   1.00
C396   C     0.49347   0.36409   0.35327   0.00000  Uiso   1.00
H397   H     0.52297   0.38337   0.35976   0.00000  Uiso   1.00
H398   H     0.50935   0.33431   0.33868   0.00000  Uiso   1.00
H399   H     0.46592   0.35793   0.38546   0.00000  Uiso   1.00
O400   O     0.56762   0.54812   0.19035   0.00000  Uiso   1.00
C401   C     0.55145   0.58829   0.18347   0.00000  Uiso   1.00
H402   H     0.58071   0.61011   0.18538   0.00000  Uiso   1.00
H403   H     0.51864   0.59863   0.20973   0.00000  Uiso   1.00
C404   C     0.54375   0.59164   0.13634   0.00000  Uiso   1.00
H405   H     0.57909   0.58716   0.11093   0.00000  Uiso   1.00
H406   H     0.51868   0.56722   0.13110   0.00000  Uiso   1.00
C407   C     0.52288   0.63360   0.12900   0.00000  Uiso   1.00
H408   H     0.48681   0.63820   0.15326   0.00000  Uiso   1.00
H409   H     0.51836   0.63528   0.09443   0.00000  Uiso   1.00
H410   H     0.54778   0.65857   0.13330   0.00000  Uiso   1.00
C411   C     0.99999   0.42069   0.25018   0.00000  Uiso   1.00
C412   C     0.99995   0.57931   0.25009   0.00000  Uiso   1.00
C413   C     0.86222   0.49679   0.04810   0.00000  Uiso   1.00
C414   C     0.80834   0.52727   0.45528   0.00000  Uiso   1.00
C415   C     0.91080   0.49175   0.02561   0.00000  Uiso   1.00
C416   C     0.75992   0.53314   0.47801   0.00000  Uiso   1.00
C417   C     0.95601   0.35476   0.25746   0.00000  Uiso   1.00
C418   C     0.71053   0.64525   0.24360   0.00000  Uiso   1.00
C419   C     0.95595   0.64550   0.25751   0.00000  Uiso   1.00
C420   C     0.71055   0.35452   0.24372   0.00000  Uiso   1.00
C421   C     0.99990   0.62392   0.25036   0.00000  Uiso   1.00
C422   C     0.99998   0.37608   0.25048   0.00000  Uiso   1.00
C423   C     0.85027   0.47502   0.27849   0.00000  Uiso   1.00
C424   C     0.81659   0.52450   0.22112   0.00000  Uiso   1.00
C425   C     0.79969   0.47488   0.27915   0.00000  Uiso   1.00
C426   C     0.86658   0.52530   0.22135   0.00000  Uiso   1.00
C427   C     0.97279   0.49993   0.33614   0.00000  Uiso   1.00
C428   C     0.69388   0.50078   0.16390   0.00000  Uiso   1.00
C429   C     0.95786   0.49965   0.38541   0.00000  Uiso   1.00
C430   C     0.70910   0.50578   0.11500   0.00000  Uiso   1.00
C431   C     0.97524   0.48876   0.45696   0.00000  Uiso   1.00
C432   C     0.69422   0.52971   0.04576   0.00000  Uiso   1.00
C433   C     0.99113   0.49137   0.41039   0.00000  Uiso   1.00
C434   C     0.67710   0.52069   0.09129   0.00000  Uiso   1.00
C435   C     0.90897   0.50663   0.40748   0.00000  Uiso   1.00
C436   C     0.75796   0.49932   0.09269   0.00000  Uiso   1.00
C437   C     0.89223   0.50554   0.45454   0.00000  Uiso   1.00
C438   C     0.77660   0.50977   0.04726   0.00000  Uiso   1.00
C439   C     0.92616   0.49542   0.47915   0.00000  Uiso   1.00
C440   C     0.74352   0.52416   0.02354   0.00000  Uiso   1.00
C441   C     0.84261   0.51282   0.47762   0.00000  Uiso   1.00
C442   C     0.82693   0.50607   0.02480   0.00000  Uiso   1.00
Cu443  Cu    0.71355   0.50001   0.25000   0.00000  Uiso   1.00
Cu444  Cu    0.95311   0.49999   0.25000   0.00000  Uiso   1.00
H445   H     0.93645   0.48434   0.04481   0.00000  Uiso   1.00
H446   H     0.73503   0.54457   0.45964   0.00000  Uiso   1.00
H447   H     0.78066   0.48577   0.11171   0.00000  Uiso   1.00
H448   H     0.88435   0.51167   0.38699   0.00000  Uiso   1.00
H449   H     0.97258   0.52624   0.10809   0.00000  Uiso   1.00
H450   H     0.69576   0.48587   0.39395   0.00000  Uiso   1.00
H451   H     0.66793   0.48095   0.47560   0.00000  Uiso   1.00
H452   H     0.66905   0.54168   0.02802   0.00000  Uiso   1.00
H453   H     0.85385   0.49423   0.08409   0.00000  Uiso   1.00
H454   H     0.81790   0.53569   0.42033   0.00000  Uiso   1.00
H455   H     0.92168   0.37093   0.26309   0.00000  Uiso   1.00
H456   H     0.74489   0.62910   0.23795   0.00000  Uiso   1.00
H457   H     0.92157   0.62955   0.26336   0.00000  Uiso   1.00
H458   H     0.74491   0.37048   0.23815   0.00000  Uiso   1.00
H459   H     0.86470   0.45510   0.29980   0.00000  Uiso   1.00
H460   H     0.80359   0.54316   0.19777   0.00000  Uiso   1.00
N461   N     0.78403   0.50001   0.24999   0.00000  Uiso   1.00
N462   N     0.88264   0.49999   0.25001   0.00000  Uiso   1.00
O463   O     0.70625   0.43989   0.25000   0.00000  Uiso   1.00
O464   O     0.96042   0.56011   0.25000   0.00000  Uiso   1.00
O465   O     0.96039   0.43988   0.25001   0.00000  Uiso   1.00
O466   O     0.70628   0.56012   0.25000   0.00000  Uiso   1.00
O467   O     0.68519   0.50001   0.31492   0.00000  Uiso   1.00
O468   O     0.98148   0.49999   0.18509   0.00000  Uiso   1.00
O469   O     0.93933   0.50000   0.31492   0.00000  Uiso   1.00
O470   O     0.72733   0.50000   0.18508   0.00000  Uiso   1.00
O471   O     0.76472   0.44945   0.30670   0.00000  Uiso   1.00
C472   C     0.77998   0.42687   0.33972   0.00000  Uiso   1.00
H473   H     0.74696   0.41942   0.36689   0.00000  Uiso   1.00
H474   H     0.80275   0.44534   0.35660   0.00000  Uiso   1.00
C475   C     0.80340   0.38585   0.32047   0.00000  Uiso   1.00
H476   H     0.77509   0.36556   0.31328   0.00000  Uiso   1.00
H477   H     0.83143   0.39089   0.28835   0.00000  Uiso   1.00
C478   C     0.82680   0.36409   0.35327   0.00000  Uiso   1.00
H479   H     0.85630   0.38337   0.35976   0.00000  Uiso   1.00
H480   H     0.84268   0.33431   0.33868   0.00000  Uiso   1.00
H481   H     0.79925   0.35793   0.38546   0.00000  Uiso   1.00
O482   O     0.90096   0.54812   0.19035   0.00000  Uiso   1.00
C483   C     0.88478   0.58829   0.18347   0.00000  Uiso   1.00
H484   H     0.91404   0.61011   0.18538   0.00000  Uiso   1.00
H485   H     0.85197   0.59863   0.20973   0.00000  Uiso   1.00
C486   C     0.87708   0.59164   0.13634   0.00000  Uiso   1.00
H487   H     0.91242   0.58716   0.11093   0.00000  Uiso   1.00
H488   H     0.85202   0.56722   0.13110   0.00000  Uiso   1.00
C489   C     0.85621   0.63360   0.12900   0.00000  Uiso   1.00
H490   H     0.82015   0.63820   0.15326   0.00000  Uiso   1.00
H491   H     0.85170   0.63528   0.09443   0.00000  Uiso   1.00
H492   H     0.88112   0.65857   0.13330   0.00000  Uiso   1.00
C493   C     0.33332   0.75403   0.25018   0.00000  Uiso   1.00
C494   C     0.33328   0.91264   0.25009   0.00000  Uiso   1.00
C495   C     0.19556   0.83013   0.04810   0.00000  Uiso   1.00
C496   C     0.14167   0.86061   0.45528   0.00000  Uiso   1.00
C497   C     0.24413   0.82508   0.02561   0.00000  Uiso   1.00
C498   C     0.09325   0.86648   0.47801   0.00000  Uiso   1.00
C499   C     0.28934   0.68810   0.25746   0.00000  Uiso   1.00
C500   C     0.04386   0.97858   0.24360   0.00000  Uiso   1.00
C501   C     0.28929   0.97883   0.25751   0.00000  Uiso   1.00
C502   C     0.04389   0.68785   0.24372   0.00000  Uiso   1.00
C503   C     0.33323   0.95726   0.25036   0.00000  Uiso   1.00
C504   C     0.33331   0.70942   0.25048   0.00000  Uiso   1.00
C505   C     0.18361   0.80836   0.27849   0.00000  Uiso   1.00
C506   C     0.14993   0.85783   0.22112   0.00000  Uiso   1.00
C507   C     0.13303   0.80821   0.27915   0.00000  Uiso   1.00
C508   C     0.19991   0.85864   0.22135   0.00000  Uiso   1.00
C509   C     0.30612   0.83327   0.33614   0.00000  Uiso   1.00
C510   C     0.02721   0.83412   0.16390   0.00000  Uiso   1.00
C511   C     0.29119   0.83298   0.38541   0.00000  Uiso   1.00
C512   C     0.04243   0.83911   0.11500   0.00000  Uiso   1.00
C513   C     0.30857   0.82209   0.45696   0.00000  Uiso   1.00
C514   C     0.02756   0.86305   0.04576   0.00000  Uiso   1.00
C515   C     0.32446   0.82470   0.41039   0.00000  Uiso   1.00
C516   C     0.01043   0.85402   0.09129   0.00000  Uiso   1.00
C517   C     0.24230   0.83996   0.40748   0.00000  Uiso   1.00
C518   C     0.09130   0.83266   0.09269   0.00000  Uiso   1.00
C519   C     0.22556   0.83887   0.45454   0.00000  Uiso   1.00
C520   C     0.10993   0.84310   0.04726   0.00000  Uiso   1.00
C521   C     0.25949   0.82876   0.47915   0.00000  Uiso   1.00
C522   C     0.07685   0.85749   0.02354   0.00000  Uiso   1.00
C523   C     0.17594   0.84616   0.47762   0.00000  Uiso   1.00
C524   C     0.16027   0.83941   0.02480   0.00000  Uiso   1.00
Cu525  Cu    0.04689   0.83334   0.25000   0.00000  Uiso   1.00
Cu526  Cu    0.28645   0.83333   0.25000   0.00000  Uiso   1.00
H527   H     0.26978   0.81767   0.04481   0.00000  Uiso   1.00
H528   H     0.06836   0.87790   0.45964   0.00000  Uiso   1.00
H529   H     0.11400   0.81910   0.11171   0.00000  Uiso   1.00
H530   H     0.21768   0.84500   0.38699   0.00000  Uiso   1.00
H531   H     0.30591   0.85957   0.10809   0.00000  Uiso   1.00
H532   H     0.02909   0.81920   0.39395   0.00000  Uiso   1.00
H533   H     0.00127   0.81428   0.47560   0.00000  Uiso   1.00
H534   H     0.00239   0.87501   0.02802   0.00000  Uiso   1.00
H535   H     0.18719   0.82756   0.08409   0.00000  Uiso   1.00
H536   H     0.15124   0.86903   0.42033   0.00000  Uiso   1.00
H537   H     0.25501   0.70426   0.26309   0.00000  Uiso   1.00
H538   H     0.07822   0.96243   0.23795   0.00000  Uiso   1.00
H539   H     0.25491   0.96288   0.26336   0.00000  Uiso   1.00
H540   H     0.07824   0.70382   0.23815   0.00000  Uiso   1.00
H541   H     0.19803   0.78844   0.29980   0.00000  Uiso   1.00
H542   H     0.13692   0.87649   0.19777   0.00000  Uiso   1.00
N543   N     0.11736   0.83334   0.24999   0.00000  Uiso   1.00
N544   N     0.21597   0.83332   0.25001   0.00000  Uiso   1.00
O545   O     0.03958   0.77322   0.25000   0.00000  Uiso   1.00
O546   O     0.29375   0.89345   0.25000   0.00000  Uiso   1.00
O547   O     0.29372   0.77321   0.25001   0.00000  Uiso   1.00
O548   O     0.03961   0.89346   0.25000   0.00000  Uiso   1.00
O549   O     0.01852   0.83334   0.31492   0.00000  Uiso   1.00
O550   O     0.31481   0.83332   0.18509   0.00000  Uiso   1.00
O551   O     0.27267   0.83333   0.31492   0.00000  Uiso   1.00
O552   O     0.06067   0.83333   0.18508   0.00000  Uiso   1.00
O553   O     0.09806   0.78278   0.30670   0.00000  Uiso   1.00
C554   C     0.11331   0.76020   0.33972   0.00000  Uiso   1.00
H555   H     0.08029   0.75275   0.36689   0.00000  Uiso   1.00
H556   H     0.13609   0.77867   0.35660   0.00000  Uiso   1.00
C557   C     0.13673   0.71918   0.32047   0.00000  Uiso   1.00
H558   H     0.10842   0.69889   0.31328   0.00000  Uiso   1.00
H559   H     0.16476   0.72422   0.28835   0.00000  Uiso   1.00
C560   C     0.16014   0.69743   0.35327   0.00000  Uiso   1.00
H561   H     0.18963   0.71671   0.35976   0.00000  Uiso   1.00
H562   H     0.17601   0.66765   0.33868   0.00000  Uiso   1.00
H563   H     0.13258   0.69127   0.38546   0.00000  Uiso   1.00
O564   O     0.23429   0.88145   0.19035   0.00000  Uiso   1.00
C565   C     0.21812   0.92162   0.18347   0.00000  Uiso   1.00
H566   H     0.24738   0.94344   0.18538   0.00000  Uiso   1.00
H567   H     0.18530   0.93196   0.20973   0.00000  Uiso   1.00
C568   C     0.21041   0.92497   0.13634   0.00000  Uiso   1.00
H569   H     0.24576   0.92049   0.11093   0.00000  Uiso   1.00
H570   H     0.18535   0.90055   0.13110   0.00000  Uiso   1.00
C571   C     0.18955   0.96693   0.12900   0.00000  Uiso   1.00
H572   H     0.15348   0.97153   0.15326   0.00000  Uiso   1.00
H573   H     0.18503   0.96861   0.09443   0.00000  Uiso   1.00
H574   H     0.21445   0.99190   0.13330   0.00000  Uiso   1.00
C575   C     0.66666   0.75403   0.25018   0.00000  Uiso   1.00
C576   C     0.66661   0.91264   0.25009   0.00000  Uiso   1.00
C577   C     0.52889   0.83013   0.04810   0.00000  Uiso   1.00
C578   C     0.47500   0.86061   0.45528   0.00000  Uiso   1.00
C579   C     0.57747   0.82508   0.02561   0.00000  Uiso   1.00
C580   C     0.42659   0.86648   0.47801   0.00000  Uiso   1.00
C581   C     0.62267   0.68810   0.25746   0.00000  Uiso   1.00
C582   C     0.37719   0.97858   0.24360   0.00000  Uiso   1.00
C583   C     0.62262   0.97883   0.25751   0.00000  Uiso   1.00
C584   C     0.37722   0.68785   0.24372   0.00000  Uiso   1.00
C585   C     0.66656   0.95726   0.25036   0.00000  Uiso   1.00
C586   C     0.66664   0.70942   0.25048   0.00000  Uiso   1.00
C587   C     0.51694   0.80836   0.27849   0.00000  Uiso   1.00
C588   C     0.48326   0.85783   0.22112   0.00000  Uiso   1.00
C589   C     0.46636   0.80821   0.27915   0.00000  Uiso   1.00
C590   C     0.53325   0.85864   0.22135   0.00000  Uiso   1.00
C591   C     0.63946   0.83327   0.33614   0.00000  Uiso   1.00
C592   C     0.36055   0.83412   0.16390   0.00000  Uiso   1.00
C593   C     0.62452   0.83298   0.38541   0.00000  Uiso   1.00
C594   C     0.37576   0.83911   0.11500   0.00000  Uiso   1.00
C595   C     0.64191   0.82209   0.45696   0.00000  Uiso   1.00
C596   C     0.36089   0.86305   0.04576   0.00000  Uiso   1.00
C597   C     0.65780   0.82470   0.41039   0.00000  Uiso   1.00
C598   C     0.34377   0.85402   0.09129   0.00000  Uiso   1.00
C599   C     0.57563   0.83996   0.40748   0.00000  Uiso   1.00
C600   C     0.42463   0.83266   0.09269   0.00000  Uiso   1.00
C601   C     0.55890   0.83887   0.45454   0.00000  Uiso   1.00
C602   C     0.44326   0.84310   0.04726   0.00000  Uiso   1.00
C603   C     0.59282   0.82876   0.47915   0.00000  Uiso   1.00
C604   C     0.41018   0.85749   0.02354   0.00000  Uiso   1.00
C605   C     0.50928   0.84616   0.47762   0.00000  Uiso   1.00
C606   C     0.49360   0.83941   0.02480   0.00000  Uiso   1.00
Cu607  Cu    0.38022   0.83334   0.25000   0.00000  Uiso   1.00
Cu608  Cu    0.61978   0.83333   0.25000   0.00000  Uiso   1.00
H609   H     0.60312   0.81767   0.04481   0.00000  Uiso   1.00
H610   H     0.40169   0.87790   0.45964   0.00000  Uiso   1.00
H611   H     0.44733   0.81910   0.11171   0.00000  Uiso   1.00
H612   H     0.55101   0.84500   0.38699   0.00000  Uiso   1.00
H613   H     0.63924   0.85957   0.10809   0.00000  Uiso   1.00
H614   H     0.36243   0.81920   0.39395   0.00000  Uiso   1.00
H615   H     0.33460   0.81428   0.47560   0.00000  Uiso   1.00
H616   H     0.33572   0.87501   0.02802   0.00000  Uiso   1.00
H617   H     0.52052   0.82756   0.08409   0.00000  Uiso   1.00
H618   H     0.48457   0.86903   0.42033   0.00000  Uiso   1.00
H619   H     0.58835   0.70426   0.26309   0.00000  Uiso   1.00
H620   H     0.41156   0.96243   0.23795   0.00000  Uiso   1.00
H621   H     0.58824   0.96288   0.26336   0.00000  Uiso   1.00
H622   H     0.41157   0.70382   0.23815   0.00000  Uiso   1.00
H623   H     0.53137   0.78844   0.29980   0.00000  Uiso   1.00
H624   H     0.47025   0.87649   0.19777   0.00000  Uiso   1.00
N625   N     0.45069   0.83334   0.24999   0.00000  Uiso   1.00
N626   N     0.54931   0.83332   0.25001   0.00000  Uiso   1.00
O627   O     0.37291   0.77322   0.25000   0.00000  Uiso   1.00
O628   O     0.62709   0.89345   0.25000   0.00000  Uiso   1.00
O629   O     0.62706   0.77321   0.25001   0.00000  Uiso   1.00
O630   O     0.37294   0.89346   0.25000   0.00000  Uiso   1.00
O631   O     0.35186   0.83334   0.31492   0.00000  Uiso   1.00
O632   O     0.64814   0.83332   0.18509   0.00000  Uiso   1.00
O633   O     0.60600   0.83333   0.31492   0.00000  Uiso   1.00
O634   O     0.39400   0.83333   0.18508   0.00000  Uiso   1.00
O635   O     0.43139   0.78278   0.30670   0.00000  Uiso   1.00
C636   C     0.44665   0.76020   0.33972   0.00000  Uiso   1.00
H637   H     0.41363   0.75275   0.36689   0.00000  Uiso   1.00
H638   H     0.46942   0.77867   0.35660   0.00000  Uiso   1.00
C639   C     0.47006   0.71918   0.32047   0.00000  Uiso   1.00
H640   H     0.44175   0.69889   0.31328   0.00000  Uiso   1.00
H641   H     0.49810   0.72422   0.28835   0.00000  Uiso   1.00
C642   C     0.49347   0.69743   0.35327   0.00000  Uiso   1.00
H643   H     0.52297   0.71671   0.35976   0.00000  Uiso   1.00
H644   H     0.50935   0.66765   0.33868   0.00000  Uiso   1.00
H645   H     0.46592   0.69127   0.38546   0.00000  Uiso   1.00
O646   O     0.56762   0.88145   0.19035   0.00000  Uiso   1.00
C647   C     0.55145   0.92162   0.18347   0.00000  Uiso   1.00
H648   H     0.58071   0.94344   0.18538   0.00000  Uiso   1.00
H649   H     0.51864   0.93196   0.20973   0.00000  Uiso   1.00
C650   C     0.54375   0.92497   0.13634   0.00000  Uiso   1.00
H651   H     0.57909   0.92049   0.11093   0.00000  Uiso   1.00
H652   H     0.51868   0.90055   0.13110   0.00000  Uiso   1.00
C653   C     0.52288   0.96693   0.12900   0.00000  Uiso   1.00
H654   H     0.48681   0.97153   0.15326   0.00000  Uiso   1.00
H655   H     0.51836   0.96861   0.09443   0.00000  Uiso   1.00
H656   H     0.54778   0.99190   0.13330   0.00000  Uiso   1.00
C657   C     0.99999   0.75403   0.25018   0.00000  Uiso   1.00
C658   C     0.99995   0.91264   0.25009   0.00000  Uiso   1.00
C659   C     0.86222   0.83013   0.04810   0.00000  Uiso   1.00
C660   C     0.80834   0.86061   0.45528   0.00000  Uiso   1.00
C661   C     0.91080   0.82508   0.02561   0.00000  Uiso   1.00
C662   C     0.75992   0.86648   0.47801   0.00000  Uiso   1.00
C663   C     0.95601   0.68810   0.25746   0.00000  Uiso   1.00
C664   C     0.71053   0.97858   0.24360   0.00000  Uiso   1.00
C665   C     0.95595   0.97883   0.25751   0.00000  Uiso   1.00
C666   C     0.71055   0.68785   0.24372   0.00000  Uiso   1.00
C667   C     0.99990   0.95726   0.25036   0.00000  Uiso   1.00
C668   C     0.99998   0.70942   0.25048   0.00000  Uiso   1.00
C669   C     0.85027   0.80836   0.27849   0.00000  Uiso   1.00
C670   C     0.81659   0.85783   0.22112   0.00000  Uiso   1.00
C671   C     0.79969   0.80821   0.27915   0.00000  Uiso   1.00
C672   C     0.86658   0.85864   0.22135   0.00000  Uiso   1.00
C673   C     0.97279   0.83327   0.33614   0.00000  Uiso   1.00
C674   C     0.69388   0.83412   0.16390   0.00000  Uiso   1.00
C675   C     0.95786   0.83298   0.38541   0.00000  Uiso   1.00
C676   C     0.70910   0.83911   0.11500   0.00000  Uiso   1.00
C677   C     0.97524   0.82209   0.45696   0.00000  Uiso   1.00
C678   C     0.69422   0.86305   0.04576   0.00000  Uiso   1.00
C679   C     0.99113   0.82470   0.41039   0.00000  Uiso   1.00
C680   C     0.67710   0.85402   0.09129   0.00000  Uiso   1.00
C681   C     0.90897   0.83996   0.40748   0.00000  Uiso   1.00
C682   C     0.75796   0.83266   0.09269   0.00000  Uiso   1.00
C683   C     0.89223   0.83887   0.45454   0.00000  Uiso   1.00
C684   C     0.77660   0.84310   0.04726   0.00000  Uiso   1.00
C685   C     0.92616   0.82876   0.47915   0.00000  Uiso   1.00
C686   C     0.74352   0.85749   0.02354   0.00000  Uiso   1.00
C687   C     0.84261   0.84616   0.47762   0.00000  Uiso   1.00
C688   C     0.82693   0.83941   0.02480   0.00000  Uiso   1.00
Cu689  Cu    0.71355   0.83334   0.25000   0.00000  Uiso   1.00
Cu690  Cu    0.95311   0.83333   0.25000   0.00000  Uiso   1.00
H691   H     0.93645   0.81767   0.04481   0.00000  Uiso   1.00
H692   H     0.73503   0.87790   0.45964   0.00000  Uiso   1.00
H693   H     0.78066   0.81910   0.11171   0.00000  Uiso   1.00
H694   H     0.88435   0.84500   0.38699   0.00000  Uiso   1.00
H695   H     0.97258   0.85957   0.10809   0.00000  Uiso   1.00
H696   H     0.69576   0.81920   0.39395   0.00000  Uiso   1.00
H697   H     0.66793   0.81428   0.47560   0.00000  Uiso   1.00
H698   H     0.66905   0.87501   0.02802   0.00000  Uiso   1.00
H699   H     0.85385   0.82756   0.08409   0.00000  Uiso   1.00
H700   H     0.81790   0.86903   0.42033   0.00000  Uiso   1.00
H701   H     0.92168   0.70426   0.26309   0.00000  Uiso   1.00
H702   H     0.74489   0.96243   0.23795   0.00000  Uiso   1.00
H703   H     0.92157   0.96288   0.26336   0.00000  Uiso   1.00
H704   H     0.74491   0.70382   0.23815   0.00000  Uiso   1.00
H705   H     0.86470   0.78844   0.29980   0.00000  Uiso   1.00
H706   H     0.80359   0.87649   0.19777   0.00000  Uiso   1.00
N707   N     0.78403   0.83334   0.24999   0.00000  Uiso   1.00
N708   N     0.88264   0.83332   0.25001   0.00000  Uiso   1.00
O709   O     0.70625   0.77322   0.25000   0.00000  Uiso   1.00
O710   O     0.96042   0.89345   0.25000   0.00000  Uiso   1.00
O711   O     0.96039   0.77321   0.25001   0.00000  Uiso   1.00
O712   O     0.70628   0.89346   0.25000   0.00000  Uiso   1.00
O713   O     0.68519   0.83334   0.31492   0.00000  Uiso   1.00
O714   O     0.98148   0.83332   0.18509   0.00000  Uiso   1.00
O715   O     0.93933   0.83333   0.31492   0.00000  Uiso   1.00
O716   O     0.72733   0.83333   0.18508   0.00000  Uiso   1.00
O717   O     0.76472   0.78278   0.30670   0.00000  Uiso   1.00
C718   C     0.77998   0.76020   0.33972   0.00000  Uiso   1.00
H719   H     0.74696   0.75275   0.36689   0.00000  Uiso   1.00
H720   H     0.80275   0.77867   0.35660   0.00000  Uiso   1.00
C721   C     0.80340   0.71918   0.32047   0.00000  Uiso   1.00
H722   H     0.77509   0.69889   0.31328   0.00000  Uiso   1.00
H723   H     0.83143   0.72422   0.28835   0.00000  Uiso   1.00
C724   C     0.82680   0.69743   0.35327   0.00000  Uiso   1.00
H725   H     0.85630   0.71671   0.35976   0.00000  Uiso   1.00
H726   H     0.84268   0.66765   0.33868   0.00000  Uiso   1.00
H727   H     0.79925   0.69127   0.38546   0.00000  Uiso   1.00
O728   O     0.90096   0.88145   0.19035   0.00000  Uiso   1.00
C729   C     0.88478   0.92162   0.18347   0.00000  Uiso   1.00
H730   H     0.91404   0.94344   0.18538   0.00000  Uiso   1.00
H731   H     0.85197   0.93196   0.20973   0.00000  Uiso   1.00
C732   C     0.87708   0.92497   0.13634   0.00000  Uiso   1.00
H733   H     0.91242   0.92049   0.11093   0.00000  Uiso   1.00
H734   H     0.85202   0.90055   0.13110   0.00000  Uiso   1.00
C735   C     0.85621   0.96693   0.12900   0.00000  Uiso   1.00
H736   H     0.82015   0.97153   0.15326   0.00000  Uiso   1.00
H737   H     0.85170   0.96861   0.09443   0.00000  Uiso   1.00
H738   H     0.88112   0.99190   0.13330   0.00000  Uiso   1.00
C739   C     0.33332   0.08736   0.75018   0.00000  Uiso   1.00
C740   C     0.33328   0.24598   0.75009   0.00000  Uiso   1.00
C741   C     0.19556   0.16346   0.54810   0.00000  Uiso   1.00
C742   C     0.14167   0.19394   0.95528   0.00000  Uiso   1.00
C743   C     0.24413   0.15842   0.52561   0.00000  Uiso   1.00
C744   C     0.09325   0.19981   0.97801   0.00000  Uiso   1.00
C745   C     0.28934   0.02143   0.75746   0.00000  Uiso   1.00
C746   C     0.04386   0.31191   0.74360   0.00000  Uiso   1.00
C747   C     0.28929   0.31216   0.75751   0.00000  Uiso   1.00
C748   C     0.04389   0.02118   0.74372   0.00000  Uiso   1.00
C749   C     0.33323   0.29059   0.75036   0.00000  Uiso   1.00
C750   C     0.33331   0.04275   0.75048   0.00000  Uiso   1.00
C751   C     0.18361   0.14169   0.77849   0.00000  Uiso   1.00
C752   C     0.14993   0.19117   0.72112   0.00000  Uiso   1.00
C753   C     0.13303   0.14154   0.77915   0.00000  Uiso   1.00
C754   C     0.19991   0.19197   0.72135   0.00000  Uiso   1.00
C755   C     0.30612   0.16660   0.83614   0.00000  Uiso   1.00
C756   C     0.02721   0.16745   0.66390   0.00000  Uiso   1.00
C757   C     0.29119   0.16632   0.88541   0.00000  Uiso   1.00
C758   C     0.04243   0.17245   0.61500   0.00000  Uiso   1.00
C759   C     0.30857   0.15542   0.95696   0.00000  Uiso   1.00
C760   C     0.02756   0.19638   0.54576   0.00000  Uiso   1.00
C761   C     0.32446   0.15803   0.91039   0.00000  Uiso   1.00
C762   C     0.01043   0.18736   0.59129   0.00000  Uiso   1.00
C763   C     0.24230   0.17330   0.90748   0.00000  Uiso   1.00
C764   C     0.09130   0.16599   0.59269   0.00000  Uiso   1.00
C765   C     0.22556   0.17220   0.95454   0.00000  Uiso   1.00
C766   C     0.10993   0.17644   0.54726   0.00000  Uiso   1.00
C767   C     0.25949   0.16209   0.97915   0.00000  Uiso   1.00
C768   C     0.07685   0.19083   0.52354   0.00000  Uiso   1.00
C769   C     0.17594   0.17949   0.97762   0.00000  Uiso   1.00
C770   C     0.16027   0.17274   0.52480   0.00000  Uiso   1.00
Cu771  Cu    0.04689   0.16667   0.75000   0.00000  Uiso   1.00
Cu772  Cu    0.28645   0.16666   0.75000   0.00000  Uiso   1.00
H773   H     0.26978   0.15100   0.54481   0.00000  Uiso   1.00
H774   H     0.06836   0.21124   0.95964   0.00000  Uiso   1.00
H775   H     0.11400   0.15244   0.61171   0.00000  Uiso   1.00
H776   H     0.21768   0.17834   0.88699   0.00000  Uiso   1.00
H777   H     0.30591   0.19290   0.60809   0.00000  Uiso   1.00
H778   H     0.02909   0.15253   0.89395   0.00000  Uiso   1.00
H779   H     0.00127   0.14762   0.97560   0.00000  Uiso   1.00
H780   H     0.00239   0.20834   0.52802   0.00000  Uiso   1.00
H781   H     0.18719   0.16090   0.58409   0.00000  Uiso   1.00
H782   H     0.15124   0.20236   0.92033   0.00000  Uiso   1.00
H783   H     0.25501   0.03759   0.76309   0.00000  Uiso   1.00
H784   H     0.07822   0.29576   0.73795   0.00000  Uiso   1.00
H785   H     0.25491   0.29621   0.76336   0.00000  Uiso   1.00
H786   H     0.07824   0.03715   0.73815   0.00000  Uiso   1.00
H787   H     0.19803   0.12177   0.79980   0.00000  Uiso   1.00
H788   H     0.13692   0.20982   0.69777   0.00000  Uiso   1.00
N789   N     0.11736   0.16668   0.74999   0.00000  Uiso   1.00
N790   N     0.21597   0.16666   0.75001   0.00000  Uiso   1.00
O791   O     0.03958   0.10655   0.75000   0.00000  Uiso   1.00
O792   O     0.29375   0.22678   0.75000   0.00000  Uiso   1.00
O793   O     0.29372   0.10654   0.75001   0.00000  Uiso   1.00
O794   O     0.03961   0.22679   0.75000   0.00000  Uiso   1.00
O795   O     0.01852   0.16668   0.81492   0.00000  Uiso   1.00
O796   O     0.31481   0.16666   0.68509   0.00000  Uiso   1.00
O797   O     0.27267   0.16667   0.81492   0.00000  Uiso   1.00
O798   O     0.06067   0.16667   0.68508   0.00000  Uiso   1.00
O799   O     0.09806   0.11611   0.80670   0.00000  Uiso   1.00
C800   C     0.11331   0.09353   0.83972   0.00000  Uiso   1.00
H801   H     0.08029   0.08608   0.86689   0.00000  Uiso   1.00
H802   H     0.13609   0.11201   0.85660   0.00000  Uiso   1.00
C803   C     0.13673   0.05252   0.82047   0.00000  Uiso   1.00
H804   H     0.10842   0.03222   0.81328   0.00000  Uiso   1.00
H805   H     0.16476   0.05755   0.78835   0.00000  Uiso   1.00
C806   C     0.16014   0.03076   0.85327   0.00000  Uiso   1.00
H807   H     0.18963   0.05004   0.85976   0.00000  Uiso   1.00
H808   H     0.17601   0.00098   0.83868   0.00000  Uiso   1.00
H809   H     0.13258   0.02460   0.88546   0.00000  Uiso   1.00
O810   O     0.23429   0.21479   0.69035   0.00000  Uiso   1.00
C811   C     0.21812   0.25496   0.68347   0.00000  Uiso   1.00
H812   H     0.24738   0.27677   0.68538   0.00000  Uiso   1.00
H813   H     0.18530   0.26530   0.70973   0.00000  Uiso   1.00
C814   C     0.21041   0.25830   0.63634   0.00000  Uiso   1.00
H815   H     0.24576   0.25382   0.61093   0.00000  Uiso   1.00
H816   H     0.18535   0.23389   0.63110   0.00000  Uiso   1.00
C817   C     0.18955   0.30026   0.62900   0.00000  Uiso   1.00
H818   H     0.15348   0.30487   0.65326   0.00000  Uiso   1.00
H819   H     0.18503   0.30195   0.59443   0.00000  Uiso   1.00
H820   H     0.21445   0.32523   0.63330   0.00000  Uiso   1.00
C821   C     0.66666   0.08736   0.75018   0.00000  Uiso   1.00
C822   C     0.66661   0.24598   0.75009   0.00000  Uiso   1.00
C823   C     0.52889   0.16346   0.54810   0.00000  Uiso   1.00
C824   C     0.47500   0.19394   0.95528   0.00000  Uiso   1.00
C825   C     0.57747   0.15842   0.52561   0.00000  Uiso   1.00
C826   C     0.42659   0.19981   0.97801   0.00000  Uiso   1.00
C827   C     0.62267   0.02143   0.75746   0.00000  Uiso   1.00
C828   C     0.37719   0.31191   0.74360   0.00000  Uiso   1.00
C829   C     0.62262   0.31216   0.75751   0.00000  Uiso   1.00
C830   C     0.37722   0.02118   0.74372   0.00000  Uiso   1.00
C831   C     0.66656   0.29059   0.75036   0.00000  Uiso   1.00
C832   C     0.66664   0.04275   0.75048   0.00000  Uiso   1.00
C833   C     0.51694   0.14169   0.77849   0.00000  Uiso   1.00
C834   C     0.48326   0.19117   0.72112   0.00000  Uiso   1.00
C835   C     0.46636   0.14154   0.77915   0.00000  Uiso   1.00
C836   C     0.53325   0.19197   0.72135   0.00000  Uiso   1.00
C837   C     0.63946   0.16660   0.83614   0.00000  Uiso   1.00
C838   C     0.36055   0.16745   0.66390   0.00000  Uiso   1.00
C839   C     0.62452   0.16632   0.88541   0.00000  Uiso   1.00
C840   C     0.37576   0.17245   0.61500   0.00000  Uiso   1.00
C841   C     0.64191   0.15542   0.95696   0.00000  Uiso   1.00
C842   C     0.36089   0.19638   0.54576   0.00000  Uiso   1.00
C843   C     0.65780   0.15803   0.91039   0.00000  Uiso   1.00
C844   C     0.34377   0.18736   0.59129   0.00000  Uiso   1.00
C845   C     0.57563   0.17330   0.90748   0.00000  Uiso   1.00
C846   C     0.42463   0.16599   0.59269   0.00000  Uiso   1.00
C847   C     0.55890   0.17220   0.95454   0.00000  Uiso   1.00
C848   C     0.44326   0.17644   0.54726   0.00000  Uiso   1.00
C849   C     0.59282   0.16209   0.97915   0.00000  Uiso   1.00
C850   C     0.41018   0.19083   0.52354   0.00000  Uiso   1.00
C851   C     0.50928   0.17949   0.97762   0.00000  Uiso   1.00
C852   C     0.49360   0.17274   0.52480   0.00000  Uiso   1.00
Cu853  Cu    0.38022   0.16667   0.75000   0.00000  Uiso   1.00
Cu854  Cu    0.61978   0.16666   0.75000   0.00000  Uiso   1.00
H855   H     0.60312   0.15100   0.54481   0.00000  Uiso   1.00
H856   H     0.40169   0.21124   0.95964   0.00000  Uiso   1.00
H857   H     0.44733   0.15244   0.61171   0.00000  Uiso   1.00
H858   H     0.55101   0.17834   0.88699   0.00000  Uiso   1.00
H859   H     0.63924   0.19290   0.60809   0.00000  Uiso   1.00
H860   H     0.36243   0.15253   0.89395   0.00000  Uiso   1.00
H861   H     0.33460   0.14762   0.97560   0.00000  Uiso   1.00
H862   H     0.33572   0.20834   0.52802   0.00000  Uiso   1.00
H863   H     0.52052   0.16090   0.58409   0.00000  Uiso   1.00
H864   H     0.48457   0.20236   0.92033   0.00000  Uiso   1.00
H865   H     0.58835   0.03759   0.76309   0.00000  Uiso   1.00
H866   H     0.41156   0.29576   0.73795   0.00000  Uiso   1.00
H867   H     0.58824   0.29621   0.76336   0.00000  Uiso   1.00
H868   H     0.41157   0.03715   0.73815   0.00000  Uiso   1.00
H869   H     0.53137   0.12177   0.79980   0.00000  Uiso   1.00
H870   H     0.47025   0.20982   0.69777   0.00000  Uiso   1.00
N871   N     0.45069   0.16668   0.74999   0.00000  Uiso   1.00
N872   N     0.54931   0.16666   0.75001   0.00000  Uiso   1.00
O873   O     0.37291   0.10655   0.75000   0.00000  Uiso   1.00
O874   O     0.62709   0.22678   0.75000   0.00000  Uiso   1.00
O875   O     0.62706   0.10654   0.75001   0.00000  Uiso   1.00
O876   O     0.37294   0.22679   0.75000   0.00000  Uiso   1.00
O877   O     0.35186   0.16668   0.81492   0.00000  Uiso   1.00
O878   O     0.64814   0.16666   0.68509   0.00000  Uiso   1.00
O879   O     0.60600   0.16667   0.81492   0.00000  Uiso   1.00
O880   O     0.39400   0.16667   0.68508   0.00000  Uiso   1.00
O881   O     0.43139   0.11611   0.80670   0.00000  Uiso   1.00
C882   C     0.44665   0.09353   0.83972   0.00000  Uiso   1.00
H883   H     0.41363   0.08608   0.86689   0.00000  Uiso   1.00
H884   H     0.46942   0.11201   0.85660   0.00000  Uiso   1.00
C885   C     0.47006   0.05252   0.82047   0.00000  Uiso   1.00
H886   H     0.44175   0.03222   0.81328   0.00000  Uiso   1.00
H887   H     0.49810   0.05755   0.78835   0.00000  Uiso   1.00
C888   C     0.49347   0.03076   0.85327   0.00000  Uiso   1.00
H889   H     0.52297   0.05004   0.85976   0.00000  Uiso   1.00
H890   H     0.50935   0.00098   0.83868   0.00000  Uiso   1.00
H891   H     0.46592   0.02460   0.88546   0.00000  Uiso   1.00
O892   O     0.56762   0.21479   0.69035   0.00000  Uiso   1.00
C893   C     0.55145   0.25496   0.68347   0.00000  Uiso   1.00
H894   H     0.58071   0.27677   0.68538   0.00000  Uiso   1.00
H895   H     0.51864   0.26530   0.70973   0.00000  Uiso   1.00
C896   C     0.54375   0.25830   0.63634   0.00000  Uiso   1.00
H897   H     0.57909   0.25382   0.61093   0.00000  Uiso   1.00
H898   H     0.51868   0.23389   0.63110   0.00000  Uiso   1.00
C899   C     0.52288   0.30026   0.62900   0.00000  Uiso   1.00
H900   H     0.48681   0.30487   0.65326   0.00000  Uiso   1.00
H901   H     0.51836   0.30195   0.59443   0.00000  Uiso   1.00
H902   H     0.54778   0.32523   0.63330   0.00000  Uiso   1.00
C903   C     0.99999   0.08736   0.75018   0.00000  Uiso   1.00
C904   C     0.99995   0.24598   0.75009   0.00000  Uiso   1.00
C905   C     0.86222   0.16346   0.54810   0.00000  Uiso   1.00
C906   C     0.80834   0.19394   0.95528   0.00000  Uiso   1.00
C907   C     0.91080   0.15842   0.52561   0.00000  Uiso   1.00
C908   C     0.75992   0.19981   0.97801   0.00000  Uiso   1.00
C909   C     0.95601   0.02143   0.75746   0.00000  Uiso   1.00
C910   C     0.71053   0.31191   0.74360   0.00000  Uiso   1.00
C911   C     0.95595   0.31216   0.75751   0.00000  Uiso   1.00
C912   C     0.71055   0.02118   0.74372   0.00000  Uiso   1.00
C913   C     0.99990   0.29059   0.75036   0.00000  Uiso   1.00
C914   C     0.99998   0.04275   0.75048   0.00000  Uiso   1.00
C915   C     0.85027   0.14169   0.77849   0.00000  Uiso   1.00
C916   C     0.81659   0.19117   0.72112   0.00000  Uiso   1.00
C917   C     0.79969   0.14154   0.77915   0.00000  Uiso   1.00
C918   C     0.86658   0.19197   0.72135   0.00000  Uiso   1.00
C919   C     0.97279   0.16660   0.83614   0.00000  Uiso   1.00
C920   C     0.69388   0.16745   0.66390   0.00000  Uiso   1.00
C921   C     0.95786   0.16632   0.88541   0.00000  Uiso   1.00
C922   C     0.70910   0.17245   0.61500   0.00000  Uiso   1.00
C923   C     0.97524   0.15542   0.95696   0.00000  Uiso   1.00
C924   C     0.69422   0.19638   0.54576   0.00000  Uiso   1.00
C925   C     0.99113   0.15803   0.91039   0.00000  Uiso   1.00
C926   C     0.67710   0.18736   0.59129   0.00000  Uiso   1.00
C927   C     0.90897   0.17330   0.90748   0.00000  Uiso   1.00
C928   C     0.75796   0.16599   0.59269   0.00000  Uiso   1.00
C929   C     0.89223   0.17220   0.95454   0.00000  Uiso   1.00
C930   C     0.77660   0.17644   0.54726   0.00000  Uiso   1.00
C931   C     0.92616   0.16209   0.97915   0.00000  Uiso   1.00
C932   C     0.74352   0.19083   0.52354   0.00000  Uiso   1.00
C933   C     0.84261   0.17949   0.97762   0.00000  Uiso   1.00
C934   C     0.82693   0.17274   0.52480   0.00000  Uiso   1.00
Cu935  Cu    0.71355   0.16667   0.75000   0.00000  Uiso   1.00
Cu936  Cu    0.95311   0.16666   0.75000   0.00000  Uiso   1.00
H937   H     0.93645   0.15100   0.54481   0.00000  Uiso   1.00
H938   H     0.73503   0.21124   0.95964   0.00000  Uiso   1.00
H939   H     0.78066   0.15244   0.61171   0.00000  Uiso   1.00
H940   H     0.88435   0.17834   0.88699   0.00000  Uiso   1.00
H941   H     0.97258   0.19290   0.60809   0.00000  Uiso   1.00
H942   H     0.69576   0.15253   0.89395   0.00000  Uiso   1.00
H943   H     0.66793   0.14762   0.97560   0.00000  Uiso   1.00
H944   H     0.66905   0.20834   0.52802   0.00000  Uiso   1.00
H945   H     0.85385   0.16090   0.58409   0.00000  Uiso   1.00
H946   H     0.81790   0.20236   0.92033   0.00000  Uiso   1.00
H947   H     0.92168   0.03759   0.76309   0.00000  Uiso   1.00
H948   H     0.74489   0.29576   0.73795   0.00000  Uiso   1.00
H949   H     0.92157   0.29621   0.76336   0.00000  Uiso   1.00
H950   H     0.74491   0.03715   0.73815   0.00000  Uiso   1.00
H951   H     0.86470   0.12177   0.79980   0.00000  Uiso   1.00
H952   H     0.80359   0.20982   0.69777   0.00000  Uiso   1.00
N953   N     0.78403   0.16668   0.74999   0.00000  Uiso   1.00
N954   N     0.88264   0.16666   0.75001   0.00000  Uiso   1.00
O955   O     0.70625   0.10655   0.75000   0.00000  Uiso   1.00
O956   O     0.96042   0.22678   0.75000   0.00000  Uiso   1.00
O957   O     0.96039   0.10654   0.75001   0.00000  Uiso   1.00
O958   O     0.70628   0.22679   0.75000   0.00000  Uiso   1.00
O959   O     0.68519   0.16668   0.81492   0.00000  Uiso   1.00
O960   O     0.98148   0.16666   0.68509   0.00000  Uiso   1.00
O961   O     0.93933   0.16667   0.81492   0.00000  Uiso   1.00
O962   O     0.72733   0.16667   0.68508   0.00000  Uiso   1.00
O963   O     0.76472   0.11611   0.80670   0.00000  Uiso   1.00
C964   C     0.77998   0.09353   0.83972   0.00000  Uiso   1.00
H965   H     0.74696   0.08608   0.86689   0.00000  Uiso   1.00
H966   H     0.80275   0.11201   0.85660   0.00000  Uiso   1.00
C967   C     0.80340   0.05252   0.82047   0.00000  Uiso   1.00
H968   H     0.77509   0.03222   0.81328   0.00000  Uiso   1.00
H969   H     0.83143   0.05755   0.78835   0.00000  Uiso   1.00
C970   C     0.82680   0.03076   0.85327   0.00000  Uiso   1.00
H971   H     0.85630   0.05004   0.85976   0.00000  Uiso   1.00
H972   H     0.84268   0.00098   0.83868   0.00000  Uiso   1.00
H973   H     0.79925   0.02460   0.88546   0.00000  Uiso   1.00
O974   O     0.90096   0.21479   0.69035   0.00000  Uiso   1.00
C975   C     0.88478   0.25496   0.68347   0.00000  Uiso   1.00
H976   H     0.91404   0.27677   0.68538   0.00000  Uiso   1.00
H977   H     0.85197   0.26530   0.70973   0.00000  Uiso   1.00
C978   C     0.87708   0.25830   0.63634   0.00000  Uiso   1.00
H979   H     0.91242   0.25382   0.61093   0.00000  Uiso   1.00
H980   H     0.85202   0.23389   0.63110   0.00000  Uiso   1.00
C981   C     0.85621   0.30026   0.62900   0.00000  Uiso   1.00
H982   H     0.82015   0.30487   0.65326   0.00000  Uiso   1.00
H983   H     0.85170   0.30195   0.59443   0.00000  Uiso   1.00
H984   H     0.88112   0.32523   0.63330   0.00000  Uiso   1.00
C985   C     0.33332   0.42069   0.75018   0.00000  Uiso   1.00
C986   C     0.33328   0.57931   0.75009   0.00000  Uiso   1.00
C987   C     0.19556   0.49679   0.54810   0.00000  Uiso   1.00
C988   C     0.14167   0.52727   0.95528   0.00000  Uiso   1.00
C989   C     0.24413   0.49175   0.52561   0.00000  Uiso   1.00
C990   C     0.09325   0.53314   0.97801   0.00000  Uiso   1.00
C991   C     0.28934   0.35476   0.75746   0.00000  Uiso   1.00
C992   C     0.04386   0.64525   0.74360   0.00000  Uiso   1.00
C993   C     0.28929   0.64550   0.75751   0.00000  Uiso   1.00
C994   C     0.04389   0.35452   0.74372   0.00000  Uiso   1.00
C995   C     0.33323   0.62392   0.75036   0.00000  Uiso   1.00
C996   C     0.33331   0.37608   0.75048   0.00000  Uiso   1.00
C997   C     0.18361   0.47502   0.77849   0.00000  Uiso   1.00
C998   C     0.14993   0.52450   0.72112   0.00000  Uiso   1.00
C999   C     0.13303   0.47488   0.77915   0.00000  Uiso   1.00
C1000  C     0.19991   0.52530   0.72135   0.00000  Uiso   1.00
C1001  C     0.30612   0.49993   0.83614   0.00000  Uiso   1.00
C1002  C     0.02721   0.50078   0.66390   0.00000  Uiso   1.00
C1003  C     0.29119   0.49965   0.88541   0.00000  Uiso   1.00
C1004  C     0.04243   0.50578   0.61500   0.00000  Uiso   1.00
C1005  C     0.30857   0.48876   0.95696   0.00000  Uiso   1.00
C1006  C     0.02756   0.52971   0.54576   0.00000  Uiso   1.00
C1007  C     0.32446   0.49137   0.91039   0.00000  Uiso   1.00
C1008  C     0.01043   0.52069   0.59129   0.00000  Uiso   1.00
C1009  C     0.24230   0.50663   0.90748   0.00000  Uiso   1.00
C1010  C     0.09130   0.49932   0.59269   0.00000  Uiso   1.00
C1011  C     0.22556   0.50554   0.95454   0.00000  Uiso   1.00
C1012  C     0.10993   0.50977   0.54726   0.00000  Uiso   1.00
C1013  C     0.25949   0.49542   0.97915   0.00000  Uiso   1.00
C1014  C     0.07685   0.52416   0.52354   0.00000  Uiso   1.00
C1015  C     0.17594   0.51282   0.97762   0.00000  Uiso   1.00
C1016  C     0.16027   0.50607   0.52480   0.00000  Uiso   1.00
Cu1017 Cu    0.04689   0.50001   0.75000   0.00000  Uiso   1.00
Cu1018 Cu    0.28645   0.49999   0.75000   0.00000  Uiso   1.00
H1019  H     0.26978   0.48434   0.54481   0.00000  Uiso   1.00
H1020  H     0.06836   0.54457   0.95964   0.00000  Uiso   1.00
H1021  H     0.11400   0.48577   0.61171   0.00000  Uiso   1.00
H1022  H     0.21768   0.51167   0.88699   0.00000  Uiso   1.00
H1023  H     0.30591   0.52624   0.60809   0.00000  Uiso   1.00
H1024  H     0.02909   0.48587   0.89395   0.00000  Uiso   1.00
H1025  H     0.00127   0.48095   0.97560   0.00000  Uiso   1.00
H1026  H     0.00239   0.54168   0.52802   0.00000  Uiso   1.00
H1027  H     0.18719   0.49423   0.58409   0.00000  Uiso   1.00
H1028  H     0.15124   0.53569   0.92033   0.00000  Uiso   1.00
H1029  H     0.25501   0.37093   0.76309   0.00000  Uiso   1.00
H1030  H     0.07822   0.62910   0.73795   0.00000  Uiso   1.00
H1031  H     0.25491   0.62955   0.76336   0.00000  Uiso   1.00
H1032  H     0.07824   0.37048   0.73815   0.00000  Uiso   1.00
H1033  H     0.19803   0.45510   0.79980   0.00000  Uiso   1.00
H1034  H     0.13692   0.54316   0.69777   0.00000  Uiso   1.00
N1035  N     0.11736   0.50001   0.74999   0.00000  Uiso   1.00
N1036  N     0.21597   0.49999   0.75001   0.00000  Uiso   1.00
O1037  O     0.03958   0.43989   0.75000   0.00000  Uiso   1.00
O1038  O     0.29375   0.56011   0.75000   0.00000  Uiso   1.00
O1039  O     0.29372   0.43988   0.75001   0.00000  Uiso   1.00
O1040  O     0.03961   0.56012   0.75000   0.00000  Uiso   1.00
O1041  O     0.01852   0.50001   0.81492   0.00000  Uiso   1.00
O1042  O     0.31481   0.49999   0.68509   0.00000  Uiso   1.00
O1043  O     0.27267   0.50000   0.81492   0.00000  Uiso   1.00
O1044  O     0.06067   0.50000   0.68508   0.00000  Uiso   1.00
O1045  O     0.09806   0.44945   0.80670   0.00000  Uiso   1.00
C1046  C     0.11331   0.42687   0.83972   0.00000  Uiso   1.00
H1047  H     0.08029   0.41942   0.86689   0.00000  Uiso   1.00
H1048  H     0.13609   0.44534   0.85660   0.00000  Uiso   1.00
C1049  C     0.13673   0.38585   0.82047   0.00000  Uiso   1.00
H1050  H     0.10842   0.36556   0.81328   0.00000  Uiso   1.00
H1051  H     0.16476   0.39089   0.78835   0.00000  Uiso   1.00
C1052  C     0.16014   0.36409   0.85327   0.00000  Uiso   1.00
H1053  H     0.18963   0.38337   0.85976   0.00000  Uiso   1.00
H1054  H     0.17601   0.33431   0.83868   0.00000  Uiso   1.00
H1055  H     0.13258   0.35793   0.88546   0.00000  Uiso   1.00
O1056  O     0.23429   0.54812   0.69035   0.00000  Uiso   1.00
C1057  C     0.21812   0.58829   0.68347   0.00000  Uiso   1.00
H1058  H     0.24738   0.61011   0.68538   0.00000  Uiso   1.00
H1059  H     0.18530   0.59863   0.70973   0.00000  Uiso   1.00
C1060  C     0.21041   0.59164   0.63634   0.00000  Uiso   1.00
H1061  H     0.24576   0.58716   0.61093   0.00000  Uiso   1.00
H1062  H     0.18535   0.56722   0.63110   0.00000  Uiso   1.00
C1063  C     0.18955   0.63360   0.62900   0.00000  Uiso   1.00
H1064  H     0.15348   0.63820   0.65326   0.00000  Uiso   1.00
H1065  H     0.18503   0.63528   0.59443   0.00000  Uiso   1.00
H1066  H     0.21445   0.65857   0.63330   0.00000  Uiso   1.00
C1067  C     0.66666   0.42069   0.75018   0.00000  Uiso   1.00
C1068  C     0.66661   0.57931   0.75009   0.00000  Uiso   1.00
C1069  C     0.52889   0.49679   0.54810   0.00000  Uiso   1.00
C1070  C     0.47500   0.52727   0.95528   0.00000  Uiso   1.00
C1071  C     0.57747   0.49175   0.52561   0.00000  Uiso   1.00
C1072  C     0.42659   0.53314   0.97801   0.00000  Uiso   1.00
C1073  C     0.62267   0.35476   0.75746   0.00000  Uiso   1.00
C1074  C     0.37719   0.64525   0.74360   0.00000  Uiso   1.00
C1075  C     0.62262   0.64550   0.75751   0.00000  Uiso   1.00
C1076  C     0.37722   0.35452   0.74372   0.00000  Uiso   1.00
C1077  C     0.66656   0.62392   0.75036   0.00000  Uiso   1.00
C1078  C     0.66664   0.37608   0.75048   0.00000  Uiso   1.00
C1079  C     0.51694   0.47502   0.77849   0.00000  Uiso   1.00
C1080  C     0.48326   0.52450   0.72112   0.00000  Uiso   1.00
C1081  C     0.46636   0.47488   0.77915   0.00000  Uiso   1.00
C1082  C     0.53325   0.52530   0.72135   0.00000  Uiso   1.00
C1083  C     0.63946   0.49993   0.83614   0.00000  Uiso   1.00
C1084  C     0.36055   0.50078   0.66390   0.00000  Uiso   1.00
C1085  C     0.62452   0.49965   0.88541   0.00000  Uiso   1.00
C1086  C     0.37576   0.50578   0.61500   0.00000  Uiso   1.00
C1087  C     0.64191   0.48876   0.95696   0.00000  Uiso   1.00
C1088  C     0.36089   0.52971   0.54576   0.00000  Uiso   1.00
C1089  C     0.65780   0.49137   0.91039   0.00000  Uiso   1.00
C1090  C     0.34377   0.52069   0.59129   0.00000  Uiso   1.00
C1091  C     0.57563   0.50663   0.90748   0.00000  Uiso   1.00
C1092  C     0.42463   0.49932   0.59269   0.00000  Uiso   1.00
C1093  C     0.55890   0.50554   0.95454   0.00000  Uiso   1.00
C1094  C     0.44326   0.50977   0.54726   0.00000  Uiso   1.00
C1095  C     0.59282   0.49542   0.97915   0.00000  Uiso   1.00
C1096  C     0.41018   0.52416   0.52354   0.00000  Uiso   1.00
C1097  C     0.50928   0.51282   0.97762   0.00000  Uiso   1.00
C1098  C     0.49360   0.50607   0.52480   0.00000  Uiso   1.00
Cu1099 Cu    0.38022   0.50001   0.75000   0.00000  Uiso   1.00
Cu1100 Cu    0.61978   0.49999   0.75000   0.00000  Uiso   1.00
H1101  H     0.60312   0.48434   0.54481   0.00000  Uiso   1.00
H1102  H     0.40169   0.54457   0.95964   0.00000  Uiso   1.00
H1103  H     0.44733   0.48577   0.61171   0.00000  Uiso   1.00
H1104  H     0.55101   0.51167   0.88699   0.00000  Uiso   1.00
H1105  H     0.63924   0.52624   0.60809   0.00000  Uiso   1.00
H1106  H     0.36243   0.48587   0.89395   0.00000  Uiso   1.00
H1107  H     0.33460   0.48095   0.97560   0.00000  Uiso   1.00
H1108  H     0.33572   0.54168   0.52802   0.00000  Uiso   1.00
H1109  H     0.52052   0.49423   0.58409   0.00000  Uiso   1.00
H1110  H     0.48457   0.53569   0.92033   0.00000  Uiso   1.00
H1111  H     0.58835   0.37093   0.76309   0.00000  Uiso   1.00
H1112  H     0.41156   0.62910   0.73795   0.00000  Uiso   1.00
H1113  H     0.58824   0.62955   0.76336   0.00000  Uiso   1.00
H1114  H     0.41157   0.37048   0.73815   0.00000  Uiso   1.00
H1115  H     0.53137   0.45510   0.79980   0.00000  Uiso   1.00
H1116  H     0.47025   0.54316   0.69777   0.00000  Uiso   1.00
N1117  N     0.45069   0.50001   0.74999   0.00000  Uiso   1.00
N1118  N     0.54931   0.49999   0.75001   0.00000  Uiso   1.00
O1119  O     0.37291   0.43989   0.75000   0.00000  Uiso   1.00
O1120  O     0.62709   0.56011   0.75000   0.00000  Uiso   1.00
O1121  O     0.62706   0.43988   0.75001   0.00000  Uiso   1.00
O1122  O     0.37294   0.56012   0.75000   0.00000  Uiso   1.00
O1123  O     0.35186   0.50001   0.81492   0.00000  Uiso   1.00
O1124  O     0.64814   0.49999   0.68509   0.00000  Uiso   1.00
O1125  O     0.60600   0.50000   0.81492   0.00000  Uiso   1.00
O1126  O     0.39400   0.50000   0.68508   0.00000  Uiso   1.00
O1127  O     0.43139   0.44945   0.80670   0.00000  Uiso   1.00
C1128  C     0.44665   0.42687   0.83972   0.00000  Uiso   1.00
H1129  H     0.41363   0.41942   0.86689   0.00000  Uiso   1.00
H1130  H     0.46942   0.44534   0.85660   0.00000  Uiso   1.00
C1131  C     0.47006   0.38585   0.82047   0.00000  Uiso   1.00
H1132  H     0.44175   0.36556   0.81328   0.00000  Uiso   1.00
H1133  H     0.49810   0.39089   0.78835   0.00000  Uiso   1.00
C1134  C     0.49347   0.36409   0.85327   0.00000  Uiso   1.00
H1135  H     0.52297   0.38337   0.85976   0.00000  Uiso   1.00
H1136  H     0.50935   0.33431   0.83868   0.00000  Uiso   1.00
H1137  H     0.46592   0.35793   0.88546   0.00000  Uiso   1.00
O1138  O     0.56762   0.54812   0.69035   0.00000  Uiso   1.00
C1139  C     0.55145   0.58829   0.68347   0.00000  Uiso   1.00
H1140  H     0.58071   0.61011   0.68538   0.00000  Uiso   1.00
H1141  H     0.51864   0.59863   0.70973   0.00000  Uiso   1.00
C1142  C     0.54375   0.59164   0.63634   0.00000  Uiso   1.00
H1143  H     0.57909   0.58716   0.61093   0.00000  Uiso   1.00
H1144  H     0.51868   0.56722   0.63110   0.00000  Uiso   1.00
C1145  C     0.52288   0.63360   0.62900   0.00000  Uiso   1.00
H1146  H     0.48681   0.63820   0.65326   0.00000  Uiso   1.00
H1147  H     0.51836   0.63528   0.59443   0.00000  Uiso   1.00
H1148  H     0.54778   0.65857   0.63330   0.00000  Uiso   1.00
C1149  C     0.99999   0.42069   0.75018   0.00000  Uiso   1.00
C1150  C     0.99995   0.57931   0.75009   0.00000  Uiso   1.00
C1151  C     0.86222   0.49679   0.54810   0.00000  Uiso   1.00
C1152  C     0.80834   0.52727   0.95528   0.00000  Uiso   1.00
C1153  C     0.91080   0.49175   0.52561   0.00000  Uiso   1.00
C1154  C     0.75992   0.53314   0.97801   0.00000  Uiso   1.00
C1155  C     0.95601   0.35476   0.75746   0.00000  Uiso   1.00
C1156  C     0.71053   0.64525   0.74360   0.00000  Uiso   1.00
C1157  C     0.95595   0.64550   0.75751   0.00000  Uiso   1.00
C1158  C     0.71055   0.35452   0.74372   0.00000  Uiso   1.00
C1159  C     0.99990   0.62392   0.75036   0.00000  Uiso   1.00
C1160  C     0.99998   0.37608   0.75048   0.00000  Uiso   1.00
C1161  C     0.85027   0.47502   0.77849   0.00000  Uiso   1.00
C1162  C     0.81659   0.52450   0.72112   0.00000  Uiso   1.00
C1163  C     0.79969   0.47488   0.77915   0.00000  Uiso   1.00
C1164  C     0.86658   0.52530   0.72135   0.00000  Uiso   1.00
C1165  C     0.97279   0.49993   0.83614   0.00000  Uiso   1.00
C1166  C     0.69388   0.50078   0.66390   0.00000  Uiso   1.00
C1167  C     0.95786   0.49965   0.88541   0.00000  Uiso   1.00
C1168  C     0.70910   0.50578   0.61500   0.00000  Uiso   1.00
C1169  C     0.97524   0.48876   0.95696   0.00000  Uiso   1.00
C1170  C     0.69422   0.52971   0.54576   0.00000  Uiso   1.00
C1171  C     0.99113   0.49137   0.91039   0.00000  Uiso   1.00
C1172  C     0.67710   0.52069   0.59129   0.00000  Uiso   1.00
C1173  C     0.90897   0.50663   0.90748   0.00000  Uiso   1.00
C1174  C     0.75796   0.49932   0.59269   0.00000  Uiso   1.00
C1175  C     0.89223   0.50554   0.95454   0.00000  Uiso   1.00
C1176  C     0.77660   0.50977   0.54726   0.00000  Uiso   1.00
C1177  C     0.92616   0.49542   0.97915   0.00000  Uiso   1.00
C1178  C     0.74352   0.52416   0.52354   0.00000  Uiso   1.00
C1179  C     0.84261   0.51282   0.97762   0.00000  Uiso   1.00
C1180  C     0.82693   0.50607   0.52480   0.00000  Uiso   1.00
Cu1181 Cu    0.71355   0.50001   0.75000   0.00000  Uiso   1.00
Cu1182 Cu    0.95311   0.49999   0.75000   0.00000  Uiso   1.00
H1183  H     0.93645   0.48434   0.54481   0.00000  Uiso   1.00
H1184  H     0.73503   0.54457   0.95964   0.00000  Uiso   1.00
H1185  H     0.78066   0.48577   0.61171   0.00000  Uiso   1.00
H1186  H     0.88435   0.51167   0.88699   0.00000  Uiso   1.00
H1187  H     0.97258   0.52624   0.60809   0.00000  Uiso   1.00
H1188  H     0.69576   0.48587   0.89395   0.00000  Uiso   1.00
H1189  H     0.66793   0.48095   0.97560   0.00000  Uiso   1.00
H1190  H     0.66905   0.54168   0.52802   0.00000  Uiso   1.00
H1191  H     0.85385   0.49423   0.58409   0.00000  Uiso   1.00
H1192  H     0.81790   0.53569   0.92033   0.00000  Uiso   1.00
H1193  H     0.92168   0.37093   0.76309   0.00000  Uiso   1.00
H1194  H     0.74489   0.62910   0.73795   0.00000  Uiso   1.00
H1195  H     0.92157   0.62955   0.76336   0.00000  Uiso   1.00
H1196  H     0.74491   0.37048   0.73815   0.00000  Uiso   1.00
H1197  H     0.86470   0.45510   0.79980   0.00000  Uiso   1.00
H1198  H     0.80359   0.54316   0.69777   0.00000  Uiso   1.00
N1199  N     0.78403   0.50001   0.74999   0.00000  Uiso   1.00
N1200  N     0.88264   0.49999   0.75001   0.00000  Uiso   1.00
O1201  O     0.70625   0.43989   0.75000   0.00000  Uiso   1.00
O1202  O     0.96042   0.56011   0.75000   0.00000  Uiso   1.00
O1203  O     0.96039   0.43988   0.75001   0.00000  Uiso   1.00
O1204  O     0.70628   0.56012   0.75000   0.00000  Uiso   1.00
O1205  O     0.68519   0.50001   0.81492   0.00000  Uiso   1.00
O1206  O     0.98148   0.49999   0.68509   0.00000  Uiso   1.00
O1207  O     0.93933   0.50000   0.81492   0.00000  Uiso   1.00
O1208  O     0.72733   0.50000   0.68508   0.00000  Uiso   1.00
O1209  O     0.76472   0.44945   0.80670   0.00000  Uiso   1.00
C1210  C     0.77998   0.42687   0.83972   0.00000  Uiso   1.00
H1211  H     0.74696   0.41942   0.86689   0.00000  Uiso   1.00
H1212  H     0.80275   0.44534   0.85660   0.00000  Uiso   1.00
C1213  C     0.80340   0.38585   0.82047   0.00000  Uiso   1.00
H1214  H     0.77509   0.36556   0.81328   0.00000  Uiso   1.00
H1215  H     0.83143   0.39089   0.78835   0.00000  Uiso   1.00
C1216  C     0.82680   0.36409   0.85327   0.00000  Uiso   1.00
H1217  H     0.85630   0.38337   0.85976   0.00000  Uiso   1.00
H1218  H     0.84268   0.33431   0.83868   0.00000  Uiso   1.00
H1219  H     0.79925   0.35793   0.88546   0.00000  Uiso   1.00
O1220  O     0.90096   0.54812   0.69035   0.00000  Uiso   1.00
C1221  C     0.88478   0.58829   0.68347   0.00000  Uiso   1.00
H1222  H     0.91404   0.61011   0.68538   0.00000  Uiso   1.00
H1223  H     0.85197   0.59863   0.70973   0.00000  Uiso   1.00
C1224  C     0.87708   0.59164   0.63634   0.00000  Uiso   1.00
H1225  H     0.91242   0.58716   0.61093   0.00000  Uiso   1.00
H1226  H     0.85202   0.56722   0.63110   0.00000  Uiso   1.00
C1227  C     0.85621   0.63360   0.62900   0.00000  Uiso   1.00
H1228  H     0.82015   0.63820   0.65326   0.00000  Uiso   1.00
H1229  H     0.85170   0.63528   0.59443   0.00000  Uiso   1.00
H1230  H     0.88112   0.65857   0.63330   0.00000  Uiso   1.00
C1231  C     0.33332   0.75403   0.75018   0.00000  Uiso   1.00
C1232  C     0.33328   0.91264   0.75009   0.00000  Uiso   1.00
C1233  C     0.19556   0.83013   0.54810   0.00000  Uiso   1.00
C1234  C     0.14167   0.86061   0.95528   0.00000  Uiso   1.00
C1235  C     0.24413   0.82508   0.52561   0.00000  Uiso   1.00
C1236  C     0.09325   0.86648   0.97801   0.00000  Uiso   1.00
C1237  C     0.28934   0.68810   0.75746   0.00000  Uiso   1.00
C1238  C     0.04386   0.97858   0.74360   0.00000  Uiso   1.00
C1239  C     0.28929   0.97883   0.75751   0.00000  Uiso   1.00
C1240  C     0.04389   0.68785   0.74372   0.00000  Uiso   1.00
C1241  C     0.33323   0.95726   0.75036   0.00000  Uiso   1.00
C1242  C     0.33331   0.70942   0.75048   0.00000  Uiso   1.00
C1243  C     0.18361   0.80836   0.77849   0.00000  Uiso   1.00
C1244  C     0.14993   0.85783   0.72112   0.00000  Uiso   1.00
C1245  C     0.13303   0.80821   0.77915   0.00000  Uiso   1.00
C1246  C     0.19991   0.85864   0.72135   0.00000  Uiso   1.00
C1247  C     0.30612   0.83327   0.83614   0.00000  Uiso   1.00
C1248  C     0.02721   0.83412   0.66390   0.00000  Uiso   1.00
C1249  C     0.29119   0.83298   0.88541   0.00000  Uiso   1.00
C1250  C     0.04243   0.83911   0.61500   0.00000  Uiso   1.00
C1251  C     0.30857   0.82209   0.95696   0.00000  Uiso   1.00
C1252  C     0.02756   0.86305   0.54576   0.00000  Uiso   1.00
C1253  C     0.32446   0.82470   0.91039   0.00000  Uiso   1.00
C1254  C     0.01043   0.85402   0.59129   0.00000  Uiso   1.00
C1255  C     0.24230   0.83996   0.90748   0.00000  Uiso   1.00
C1256  C     0.09130   0.83266   0.59269   0.00000  Uiso   1.00
C1257  C     0.22556   0.83887   0.95454   0.00000  Uiso   1.00
C1258  C     0.10993   0.84310   0.54726   0.00000  Uiso   1.00
C1259  C     0.25949   0.82876   0.97915   0.00000  Uiso   1.00
C1260  C     0.07685   0.85749   0.52354   0.00000  Uiso   1.00
C1261  C     0.17594   0.84616   0.97762   0.00000  Uiso   1.00
C1262  C     0.16027   0.83941   0.52480   0.00000  Uiso   1.00
Cu1263 Cu    0.04689   0.83334   0.75000   0.00000  Uiso   1.00
Cu1264 Cu    0.28645   0.83333   0.75000   0.00000  Uiso   1.00
H1265  H     0.26978   0.81767   0.54481   0.00000  Uiso   1.00
H1266  H     0.06836   0.87790   0.95964   0.00000  Uiso   1.00
H1267  H     0.11400   0.81910   0.61171   0.00000  Uiso   1.00
H1268  H     0.21768   0.84500   0.88699   0.00000  Uiso   1.00
H1269  H     0.30591   0.85957   0.60809   0.00000  Uiso   1.00
H1270  H     0.02909   0.81920   0.89395   0.00000  Uiso   1.00
H1271  H     0.00127   0.81428   0.97560   0.00000  Uiso   1.00
H1272  H     0.00239   0.87501   0.52802   0.00000  Uiso   1.00
H1273  H     0.18719   0.82756   0.58409   0.00000  Uiso   1.00
H1274  H     0.15124   0.86903   0.92033   0.00000  Uiso   1.00
H1275  H     0.25501   0.70426   0.76309   0.00000  Uiso   1.00
H1276  H     0.07822   0.96243   0.73795   0.00000  Uiso   1.00
H1277  H     0.25491   0.96288   0.76336   0.00000  Uiso   1.00
H1278  H     0.07824   0.70382   0.73815   0.00000  Uiso   1.00
H1279  H     0.19803   0.78844   0.79980   0.00000  Uiso   1.00
H1280  H     0.13692   0.87649   0.69777   0.00000  Uiso   1.00
N1281  N     0.11736   0.83334   0.74999   0.00000  Uiso   1.00
N1282  N     0.21597   0.83332   0.75001   0.00000  Uiso   1.00
O1283  O     0.03958   0.77322   0.75000   0.00000  Uiso   1.00
O1284  O     0.29375   0.89345   0.75000   0.00000  Uiso   1.00
O1285  O     0.29372   0.77321   0.75001   0.00000  Uiso   1.00
O1286  O     0.03961   0.89346   0.75000   0.00000  Uiso   1.00
O1287  O     0.01852   0.83334   0.81492   0.00000  Uiso   1.00
O1288  O     0.31481   0.83332   0.68509   0.00000  Uiso   1.00
O1289  O     0.27267   0.83333   0.81492   0.00000  Uiso   1.00
O1290  O     0.06067   0.83333   0.68508   0.00000  Uiso   1.00
O1291  O     0.09806   0.78278   0.80670   0.00000  Uiso   1.00
C1292  C     0.11331   0.76020   0.83972   0.00000  Uiso   1.00
H1293  H     0.08029   0.75275   0.86689   0.00000  Uiso   1.00
H1294  H     0.13609   0.77867   0.85660   0.00000  Uiso   1.00
C1295  C     0.13673   0.71918   0.82047   0.00000  Uiso   1.00
H1296  H     0.10842   0.69889   0.81328   0.00000  Uiso   1.00
H1297  H     0.16476   0.72422   0.78835   0.00000  Uiso   1.00
C1298  C     0.16014   0.69743   0.85327   0.00000  Uiso   1.00
H1299  H     0.18963   0.71671   0.85976   0.00000  Uiso   1.00
H1300  H     0.17601   0.66765   0.83868   0.00000  Uiso   1.00
H1301  H     0.13258   0.69127   0.88546   0.00000  Uiso   1.00
O1302  O     0.23429   0.88145   0.69035   0.00000  Uiso   1.00
C1303  C     0.21812   0.92162   0.68347   0.00000  Uiso   1.00
H1304  H     0.24738   0.94344   0.68538   0.00000  Uiso   1.00
H1305  H     0.18530   0.93196   0.70973   0.00000  Uiso   1.00
C1306  C     0.21041   0.92497   0.63634   0.00000  Uiso   1.00
H1307  H     0.24576   0.92049   0.61093   0.00000  Uiso   1.00
H1308  H     0.18535   0.90055   0.63110   0.00000  Uiso   1.00
C1309  C     0.18955   0.96693   0.62900   0.00000  Uiso   1.00
H1310  H     0.15348   0.97153   0.65326   0.00000  Uiso   1.00
H1311  H     0.18503   0.96861   0.59443   0.00000  Uiso   1.00
H1312  H     0.21445   0.99190   0.63330   0.00000  Uiso   1.00
C1313  C     0.66666   0.75403   0.75018   0.00000  Uiso   1.00
C1314  C     0.66661   0.91264   0.75009   0.00000  Uiso   1.00
C1315  C     0.52889   0.83013   0.54810   0.00000  Uiso   1.00
C1316  C     0.47500   0.86061   0.95528   0.00000  Uiso   1.00
C1317  C     0.57747   0.82508   0.52561   0.00000  Uiso   1.00
C1318  C     0.42659   0.86648   0.97801   0.00000  Uiso   1.00
C1319  C     0.62267   0.68810   0.75746   0.00000  Uiso   1.00
C1320  C     0.37719   0.97858   0.74360   0.00000  Uiso   1.00
C1321  C     0.62262   0.97883   0.75751   0.00000  Uiso   1.00
C1322  C     0.37722   0.68785   0.74372   0.00000  Uiso   1.00
C1323  C     0.66656   0.95726   0.75036   0.00000  Uiso   1.00
C1324  C     0.66664   0.70942   0.75048   0.00000  Uiso   1.00
C1325  C     0.51694   0.80836   0.77849   0.00000  Uiso   1.00
C1326  C     0.48326   0.85783   0.72112   0.00000  Uiso   1.00
C1327  C     0.46636   0.80821   0.77915   0.00000  Uiso   1.00
C1328  C     0.53325   0.85864   0.72135   0.00000  Uiso   1.00
C1329  C     0.63946   0.83327   0.83614   0.00000  Uiso   1.00
C1330  C     0.36055   0.83412   0.66390   0.00000  Uiso   1.00
C1331  C     0.62452   0.83298   0.88541   0.00000  Uiso   1.00
C1332  C     0.37576   0.83911   0.61500   0.00000  Uiso   1.00
C1333  C     0.64191   0.82209   0.95696   0.00000  Uiso   1.00
C1334  C     0.36089   0.86305   0.54576   0.00000  Uiso   1.00
C1335  C     0.65780   0.82470   0.91039   0.00000  Uiso   1.00
C1336  C     0.34377   0.85402   0.59129   0.00000  Uiso   1.00
C1337  C     0.57563   0.83996   0.90748   0.00000  Uiso   1.00
C1338  C     0.42463   0.83266   0.59269   0.00000  Uiso   1.00
C1339  C     0.55890   0.83887   0.95454   0.00000  Uiso   1.00
C1340  C     0.44326   0.84310   0.54726   0.00000  Uiso   1.00
C1341  C     0.59282   0.82876   0.97915   0.00000  Uiso   1.00
C1342  C     0.41018   0.85749   0.52354   0.00000  Uiso   1.00
C1343  C     0.50928   0.84616   0.97762   0.00000  Uiso   1.00
C1344  C     0.49360   0.83941   0.52480   0.00000  Uiso   1.00
Cu1345 Cu    0.38022   0.83334   0.75000   0.00000  Uiso   1.00
Cu1346 Cu    0.61978   0.83333   0.75000   0.00000  Uiso   1.00
H1347  H     0.60312   0.81767   0.54481   0.00000  Uiso   1.00
H1348  H     0.40169   0.87790   0.95964   0.00000  Uiso   1.00
H1349  H     0.44733   0.81910   0.61171   0.00000  Uiso   1.00
H1350  H     0.55101   0.84500   0.88699   0.00000  Uiso   1.00
H1351  H     0.63924   0.85957   0.60809   0.00000  Uiso   1.00
H1352  H     0.36243   0.81920   0.89395   0.00000  Uiso   1.00
H1353  H     0.33460   0.81428   0.97560   0.00000  Uiso   1.00
H1354  H     0.33572   0.87501   0.52802   0.00000  Uiso   1.00
H1355  H     0.52052   0.82756   0.58409   0.00000  Uiso   1.00
H1356  H     0.48457   0.86903   0.92033   0.00000  Uiso   1.00
H1357  H     0.58835   0.70426   0.76309   0.00000  Uiso   1.00
H1358  H     0.41156   0.96243   0.73795   0.00000  Uiso   1.00
H1359  H     0.58824   0.96288   0.76336   0.00000  Uiso   1.00
H1360  H     0.41157   0.70382   0.73815   0.00000  Uiso   1.00
H1361  H     0.53137   0.78844   0.79980   0.00000  Uiso   1.00
H1362  H     0.47025   0.87649   0.69777   0.00000  Uiso   1.00
N1363  N     0.45069   0.83334   0.74999   0.00000  Uiso   1.00
N1364  N     0.54931   0.83332   0.75001   0.00000  Uiso   1.00
O1365  O     0.37291   0.77322   0.75000   0.00000  Uiso   1.00
O1366  O     0.62709   0.89345   0.75000   0.00000  Uiso   1.00
O1367  O     0.62706   0.77321   0.75001   0.00000  Uiso   1.00
O1368  O     0.37294   0.89346   0.75000   0.00000  Uiso   1.00
O1369  O     0.35186   0.83334   0.81492   0.00000  Uiso   1.00
O1370  O     0.64814   0.83332   0.68509   0.00000  Uiso   1.00
O1371  O     0.60600   0.83333   0.81492   0.00000  Uiso   1.00
O1372  O     0.39400   0.83333   0.68508   0.00000  Uiso   1.00
O1373  O     0.43139   0.78278   0.80670   0.00000  Uiso   1.00
C1374  C     0.44665   0.76020   0.83972   0.00000  Uiso   1.00
H1375  H     0.41363   0.75275   0.86689   0.00000  Uiso   1.00
H1376  H     0.46942   0.77867   0.85660   0.00000  Uiso   1.00
C1377  C     0.47006   0.71918   0.82047   0.00000  Uiso   1.00
H1378  H     0.44175   0.69889   0.81328   0.00000  Uiso   1.00
H1379  H     0.49810   0.72422   0.78835   0.00000  Uiso   1.00
C1380  C     0.49347   0.69743   0.85327   0.00000  Uiso   1.00
H1381  H     0.52297   0.71671   0.85976   0.00000  Uiso   1.00
H1382  H     0.50935   0.66765   0.83868   0.00000  Uiso   1.00
H1383  H     0.46592   0.69127   0.88546   0.00000  Uiso   1.00
O1384  O     0.56762   0.88145   0.69035   0.00000  Uiso   1.00
C1385  C     0.55145   0.92162   0.68347   0.00000  Uiso   1.00
H1386  H     0.58071   0.94344   0.68538   0.00000  Uiso   1.00
H1387  H     0.51864   0.93196   0.70973   0.00000  Uiso   1.00
C1388  C     0.54375   0.92497   0.63634   0.00000  Uiso   1.00
H1389  H     0.57909   0.92049   0.61093   0.00000  Uiso   1.00
H1390  H     0.51868   0.90055   0.63110   0.00000  Uiso   1.00
C1391  C     0.52288   0.96693   0.62900   0.00000  Uiso   1.00
H1392  H     0.48681   0.97153   0.65326   0.00000  Uiso   1.00
H1393  H     0.51836   0.96861   0.59443   0.00000  Uiso   1.00
H1394  H     0.54778   0.99190   0.63330   0.00000  Uiso   1.00
C1395  C     0.99999   0.75403   0.75018   0.00000  Uiso   1.00
C1396  C     0.99995   0.91264   0.75009   0.00000  Uiso   1.00
C1397  C     0.86222   0.83013   0.54810   0.00000  Uiso   1.00
C1398  C     0.80834   0.86061   0.95528   0.00000  Uiso   1.00
C1399  C     0.91080   0.82508   0.52561   0.00000  Uiso   1.00
C1400  C     0.75992   0.86648   0.97801   0.00000  Uiso   1.00
C1401  C     0.95601   0.68810   0.75746   0.00000  Uiso   1.00
C1402  C     0.71053   0.97858   0.74360   0.00000  Uiso   1.00
C1403  C     0.95595   0.97883   0.75751   0.00000  Uiso   1.00
C1404  C     0.71055   0.68785   0.74372   0.00000  Uiso   1.00
C1405  C     0.99990   0.95726   0.75036   0.00000  Uiso   1.00
C1406  C     0.99998   0.70942   0.75048   0.00000  Uiso   1.00
C1407  C     0.85027   0.80836   0.77849   0.00000  Uiso   1.00
C1408  C     0.81659   0.85783   0.72112   0.00000  Uiso   1.00
C1409  C     0.79969   0.80821   0.77915   0.00000  Uiso   1.00
C1410  C     0.86658   0.85864   0.72135   0.00000  Uiso   1.00
C1411  C     0.97279   0.83327   0.83614   0.00000  Uiso   1.00
C1412  C     0.69388   0.83412   0.66390   0.00000  Uiso   1.00
C1413  C     0.95786   0.83298   0.88541   0.00000  Uiso   1.00
C1414  C     0.70910   0.83911   0.61500   0.00000  Uiso   1.00
C1415  C     0.97524   0.82209   0.95696   0.00000  Uiso   1.00
C1416  C     0.69422   0.86305   0.54576   0.00000  Uiso   1.00
C1417  C     0.99113   0.82470   0.91039   0.00000  Uiso   1.00
C1418  C     0.67710   0.85402   0.59129   0.00000  Uiso   1.00
C1419  C     0.90897   0.83996   0.90748   0.00000  Uiso   1.00
C1420  C     0.75796   0.83266   0.59269   0.00000  Uiso   1.00
C1421  C     0.89223   0.83887   0.95454   0.00000  Uiso   1.00
C1422  C     0.77660   0.84310   0.54726   0.00000  Uiso   1.00
C1423  C     0.92616   0.82876   0.97915   0.00000  Uiso   1.00
C1424  C     0.74352   0.85749   0.52354   0.00000  Uiso   1.00
C1425  C     0.84261   0.84616   0.97762   0.00000  Uiso   1.00
C1426  C     0.82693   0.83941   0.52480   0.00000  Uiso   1.00
Cu1427 Cu    0.71355   0.83334   0.75000   0.00000  Uiso   1.00
Cu1428 Cu    0.95311   0.83333   0.75000   0.00000  Uiso   1.00
H1429  H     0.93645   0.81767   0.54481   0.00000  Uiso   1.00
H1430  H     0.73503   0.87790   0.95964   0.00000  Uiso   1.00
H1431  H     0.78066   0.81910   0.61171   0.00000  Uiso   1.00
H1432  H     0.88435   0.84500   0.88699   0.00000  Uiso   1.00
H1433  H     0.97258   0.85957   0.60809   0.00000  Uiso   1.00
H1434  H     0.69576   0.81920   0.89395   0.00000  Uiso   1.00
H1435  H     0.66793   0.81428   0.97560   0.00000  Uiso   1.00
H1436  H     0.66905   0.87501   0.52802   0.00000  Uiso   1.00
H1437  H     0.85385   0.82756   0.58409   0.00000  Uiso   1.00
H1438  H     0.81790   0.86903   0.92033   0.00000  Uiso   1.00
H1439  H     0.92168   0.70426   0.76309   0.00000  Uiso   1.00
H1440  H     0.74489   0.96243   0.73795   0.00000  Uiso   1.00
H1441  H     0.92157   0.96288   0.76336   0.00000  Uiso   1.00
H1442  H     0.74491   0.70382   0.73815   0.00000  Uiso   1.00
H1443  H     0.86470   0.78844   0.79980   0.00000  Uiso   1.00
H1444  H     0.80359   0.87649   0.69777   0.00000  Uiso   1.00
N1445  N     0.78403   0.83334   0.74999   0.00000  Uiso   1.00
N1446  N     0.88264   0.83332   0.75001   0.00000  Uiso   1.00
O1447  O     0.70625   0.77322   0.75000   0.00000  Uiso   1.00
O1448  O     0.96042   0.89345   0.75000   0.00000  Uiso   1.00
O1449  O     0.96039   0.77321   0.75001   0.00000  Uiso   1.00
O1450  O     0.70628   0.89346   0.75000   0.00000  Uiso   1.00
O1451  O     0.68519   0.83334   0.81492   0.00000  Uiso   1.00
O1452  O     0.98148   0.83332   0.68509   0.00000  Uiso   1.00
O1453  O     0.93933   0.83333   0.81492   0.00000  Uiso   1.00
O1454  O     0.72733   0.83333   0.68508   0.00000  Uiso   1.00
O1455  O     0.76472   0.78278   0.80670   0.00000  Uiso   1.00
C1456  C     0.77998   0.76020   0.83972   0.00000  Uiso   1.00
H1457  H     0.74696   0.75275   0.86689   0.00000  Uiso   1.00
H1458  H     0.80275   0.77867   0.85660   0.00000  Uiso   1.00
C1459  C     0.80340   0.71918   0.82047   0.00000  Uiso   1.00
H1460  H     0.77509   0.69889   0.81328   0.00000  Uiso   1.00
H1461  H     0.83143   0.72422   0.78835   0.00000  Uiso   1.00
C1462  C     0.82680   0.69743   0.85327   0.00000  Uiso   1.00
H1463  H     0.85630   0.71671   0.85976   0.00000  Uiso   1.00
H1464  H     0.84268   0.66765   0.83868   0.00000  Uiso   1.00
H1465  H     0.79925   0.69127   0.88546   0.00000  Uiso   1.00
O1466  O     0.90096   0.88145   0.69035   0.00000  Uiso   1.00
C1467  C     0.88478   0.92162   0.68347   0.00000  Uiso   1.00
H1468  H     0.91404   0.94344   0.68538   0.00000  Uiso   1.00
H1469  H     0.85197   0.93196   0.70973   0.00000  Uiso   1.00
C1470  C     0.87708   0.92497   0.63634   0.00000  Uiso   1.00
H1471  H     0.91242   0.92049   0.61093   0.00000  Uiso   1.00
H1472  H     0.85202   0.90055   0.63110   0.00000  Uiso   1.00
C1473  C     0.85621   0.96693   0.62900   0.00000  Uiso   1.00
H1474  H     0.82015   0.97153   0.65326   0.00000  Uiso   1.00
H1475  H     0.85170   0.96861   0.59443   0.00000  Uiso   1.00
H1476  H     0.88112   0.99190   0.63330   0.00000  Uiso   1.00
loop_
_geom_bond_atom_site_label_1
_geom_bond_atom_site_label_2
_geom_bond_distance
_geom_bond_site_symmetry_2
_ccdc_geom_bond_type
C1     C12     1.448   .     S
C1     O55     1.290   .     A
C1     O135    1.291   .     S
C2     O54     1.292   .     A
C2     C11     1.448   .     S
C2     O138    1.290   .     S
C3     H43     1.077   .     S
C3     C32     1.416   .     A
C3     C5      1.386   .     A
C4     C6      1.387   .     A
C4     H44     1.077   .     S
C4     C31     1.417   .     A
C5     H35     1.084   .     S
C5     C767    1.391   1_554 S
C6     H36     1.084   .     S
C6     C768    1.391   .     S
C7     H45     1.083   .     S
C7     C12     1.401   .     A
C7     C501    1.383   1_545 S
C8     H46     1.084   .     S
C8     C256    1.383   .     S
C8     C175    1.402   1_455 S
C9     C11     1.401   .     A
C9     H47     1.083   .     S
C9     C253    1.383   .     S
C10    H48     1.083   .     S
C10    C500    1.383   1_545 S
C10    C176    1.401   1_455 S
C11    C90     1.402   .     S
C12    C92     1.401   .     S
C13    N52     1.363   .     A
C13    H49     1.078   .     S
C13    C15     1.439   .     A
C14    H50     1.079   .     S
C14    N51     1.362   .     A
C14    C16     1.429   .     A
C15    N51     1.373   .     A
C15    O61     1.399   .     S
C16    O72     1.391   .     S
C16    N52     1.371   .     A
C17    O59     1.294   .     A
C17    C19     1.468   .     S
C17    O139    1.297   .     S
C18    C20     1.466   .     S
C18    O60     1.293   .     A
C18    O222    1.297   1_455 S
C19    C23     1.399   .     A
C19    C25     1.400   .     A
C20    C24     1.398   .     A
C20    C26     1.398   .     A
C21    C29     1.404   .     A
C21    C23     1.392   .     A
C21    H123    1.083   .     S
C22    C30     1.404   .     A
C22    H42     1.083   .     S
C22    C24     1.393   .     A
C23    H122    1.083   .     S
C24    H203    1.083   1_455 S
C25    H38     1.075   .     S
C25    C27     1.405   .     A
C26    H37     1.076   .     S
C26    C28     1.405   .     A
C27    C29     1.418   .     A
C27    C31     1.427   .     A
C28    C32     1.426   .     A
C28    C30     1.418   .     A
C29    C743    1.391   .     S
C30    C744    1.391   1_554 S
C31    C770    1.424   .     S
C32    C769    1.424   1_554 S
Cu33   O56     1.962   .     S
Cu33   O53     1.964   .     S
Cu33   O60     1.939   .     S
Cu33   O57     1.954   .     S
Cu33   N51     2.012   .     S
Cu33   Cu198   2.677   1_455 S
Cu34   O55     1.962   .     S
Cu34   O54     1.964   .     S
Cu34   O59     1.939   .     S
Cu34   N52     2.012   .     S
Cu34   O58     1.954   .     S
Cu34   Cu115   2.677   .     S
H39    C106    1.083   .     S
H40    C187    1.083   1_455 S
H41    C185    1.083   1_455 S
O53    C165    1.291   1_455 S
O56    C166    1.290   1_455 S
O57    C181    1.297   1_455 S
O58    C100    1.297   .     S
O61    C62     1.414   .     S
C62    H64     1.112   .     S
C62    H63     1.111   .     S
C62    C65     1.536   .     S
C65    H67     1.110   .     S
C65    C68     1.525   .     S
C65    H66     1.112   .     S
C68    H69     1.111   .     S
C68    H71     1.111   .     S
C68    H70     1.111   .     S
O72    C73     1.417   .     S
C73    H74     1.111   .     S
C73    H75     1.116   .     S
C73    C76     1.533   .     S
C76    C79     1.526   .     S
C76    H78     1.110   .     S
C76    H77     1.112   .     S
C79    H81     1.110   .     S
C79    H82     1.111   .     S
C79    H80     1.111   .     S
C83    C94     1.448   .     S
C83    O137    1.290   .     A
C83    O217    1.291   .     S
C84    O136    1.292   .     A
C84    C93     1.448   .     S
C84    O220    1.290   .     S
C85    H125    1.077   .     S
C85    C114    1.416   .     A
C85    C87     1.386   .     A
C86    C88     1.387   .     A
C86    H126    1.077   .     S
C86    C113    1.417   .     A
C87    H117    1.084   .     S
C87    C849    1.391   1_554 S
C88    H118    1.084   .     S
C88    C850    1.391   .     S
C89    H127    1.083   .     S
C89    C94     1.401   .     A
C89    C583    1.383   1_545 S
C90    H128    1.084   .     S
C90    C338    1.383   .     S
C91    C93     1.401   .     A
C91    H129    1.083   .     S
C91    C335    1.383   .     S
C92    H130    1.083   .     S
C92    C582    1.383   1_545 S
C93    C172    1.402   .     S
C94    C174    1.401   .     S
C95    N134    1.363   .     A
C95    H131    1.078   .     S
C95    C97     1.439   .     A
C96    H132    1.079   .     S
C96    N133    1.362   .     A
C96    C98     1.429   .     A
C97    N133    1.373   .     A
C97    O143    1.399   .     S
C98    O154    1.391   .     S
C98    N134    1.371   .     A
C99    O141    1.294   .     A
C99    C101    1.468   .     S
C99    O221    1.297   .     S
C100   C102    1.466   .     S
C100   O142    1.293   .     A
C101   C105    1.399   .     A
C101   C107    1.400   .     A
C102   C106    1.398   .     A
C102   C108    1.398   .     A
C103   C111    1.404   .     A
C103   C105    1.392   .     A
C103   H205    1.083   .     S
C104   C112    1.404   .     A
C104   H124    1.083   .     S
C104   C106    1.393   .     A
C105   H204    1.083   .     S
C107   H120    1.075   .     S
C107   C109    1.405   .     A
C108   H119    1.076   .     S
C108   C110    1.405   .     A
C109   C111    1.418   .     A
C109   C113    1.427   .     A
C110   C114    1.426   .     A
C110   C112    1.418   .     A
C111   C825    1.391   .     S
C112   C826    1.391   1_554 S
C113   C852    1.424   .     S
C114   C851    1.424   1_554 S
Cu115  O138    1.962   .     S
Cu115  O135    1.964   .     S
Cu115  O142    1.939   .     S
Cu115  O139    1.954   .     S
Cu115  N133    2.012   .     S
Cu116  O137    1.962   .     S
Cu116  O136    1.964   .     S
Cu116  O141    1.939   .     S
Cu116  N134    2.012   .     S
Cu116  O140    1.954   .     S
Cu116  Cu197   2.677   .     S
H121   C188    1.083   .     S
O140   C182    1.297   .     S
O143   C144    1.414   .     S
C144   H146    1.112   .     S
C144   H145    1.111   .     S
C144   C147    1.536   .     S
C147   H149    1.110   .     S
C147   C150    1.525   .     S
C147   H148    1.112   .     S
C150   H151    1.111   .     S
C150   H153    1.111   .     S
C150   H152    1.111   .     S
O154   C155    1.417   .     S
C155   H156    1.111   .     S
C155   H157    1.116   .     S
C155   C158    1.533   .     S
C158   C161    1.526   .     S
C158   H160    1.110   .     S
C158   H159    1.112   .     S
C161   H163    1.110   .     S
C161   H164    1.111   .     S
C161   H162    1.111   .     S
C165   C176    1.448   .     S
C165   O219    1.290   .     A
C165   O53     1.291   1_655 S
C166   O218    1.292   .     A
C166   C175    1.448   .     S
C166   O56     1.290   1_655 S
C167   H207    1.077   .     S
C167   C196    1.416   .     A
C167   C169    1.386   .     A
C168   C170    1.387   .     A
C168   H208    1.077   .     S
C168   C195    1.417   .     A
C169   H199    1.084   .     S
C169   C931    1.391   1_554 S
C170   H200    1.084   .     S
C170   C932    1.391   .     S
C171   H209    1.083   .     S
C171   C176    1.401   .     A
C171   C665    1.383   1_545 S
C172   H210    1.084   .     S
C172   C420    1.383   .     S
C173   C175    1.401   .     A
C173   H211    1.083   .     S
C173   C417    1.383   .     S
C174   H212    1.083   .     S
C174   C664    1.383   1_545 S
C175   C8      1.402   1_655 S
C176   C10     1.401   1_655 S
C177   N216    1.363   .     A
C177   H213    1.078   .     S
C177   C179    1.439   .     A
C178   H214    1.079   .     S
C178   N215    1.362   .     A
C178   C180    1.429   .     A
C179   N215    1.373   .     A
C179   O225    1.399   .     S
C180   O236    1.391   .     S
C180   N216    1.371   .     A
C181   O223    1.294   .     A
C181   C183    1.468   .     S
C181   O57     1.297   1_655 S
C182   C184    1.466   .     S
C182   O224    1.293   .     A
C183   C187    1.399   .     A
C183   C189    1.400   .     A
C184   C188    1.398   .     A
C184   C190    1.398   .     A
C185   C193    1.404   .     A
C185   C187    1.392   .     A
C185   H41     1.083   1_655 S
C186   C194    1.404   .     A
C186   H206    1.083   .     S
C186   C188    1.393   .     A
C187   H40     1.083   1_655 S
C189   H202    1.075   .     S
C189   C191    1.405   .     A
C190   H201    1.076   .     S
C190   C192    1.405   .     A
C191   C193    1.418   .     A
C191   C195    1.427   .     A
C192   C196    1.426   .     A
C192   C194    1.418   .     A
C193   C907    1.391   .     S
C194   C908    1.391   1_554 S
C195   C934    1.424   .     S
C196   C933    1.424   1_554 S
Cu197  O220    1.962   .     S
Cu197  O217    1.964   .     S
Cu197  O224    1.939   .     S
Cu197  O221    1.954   .     S
Cu197  N215    2.012   .     S
Cu198  O219    1.962   .     S
Cu198  O218    1.964   .     S
Cu198  O223    1.939   .     S
Cu198  N216    2.012   .     S
Cu198  O222    1.954   .     S
Cu198  Cu33    2.677   1_655 S
H203   C24     1.083   1_655 S
O222   C18     1.297   1_655 S
O225   C226    1.414   .     S
C226   H228    1.112   .     S
C226   H227    1.111   .     S
C226   C229    1.536   .     S
C229   H231    1.110   .     S
C229   C232    1.525   .     S
C229   H230    1.112   .     S
C232   H233    1.111   .     S
C232   H235    1.111   .     S
C232   H234    1.111   .     S
O236   C237    1.417   .     S
C237   H238    1.111   .     S
C237   H239    1.116   .     S
C237   C240    1.533   .     S
C240   C243    1.526   .     S
C240   H242    1.110   .     S
C240   H241    1.112   .     S
C243   H245    1.110   .     S
C243   H246    1.111   .     S
C243   H244    1.111   .     S
C247   C258    1.448   .     S
C247   O301    1.290   .     A
C247   O381    1.291   .     S
C248   O300    1.292   .     A
C248   C257    1.448   .     S
C248   O384    1.290   .     S
C249   H289    1.077   .     S
C249   C278    1.416   .     A
C249   C251    1.386   .     A
C250   C252    1.387   .     A
C250   H290    1.077   .     S
C250   C277    1.417   .     A
C251   H281    1.084   .     S
C251   C1013   1.391   1_554 S
C252   H282    1.084   .     S
C252   C1014   1.391   .     S
C253   H291    1.083   .     S
C253   C258    1.401   .     A
C254   H292    1.084   .     S
C254   C502    1.383   .     S
C254   C421    1.402   1_455 S
C255   C257    1.401   .     A
C255   H293    1.083   .     S
C255   C499    1.383   .     S
C256   H294    1.083   .     S
C256   C422    1.401   1_455 S
C257   C336    1.402   .     S
C258   C338    1.401   .     S
C259   N298    1.363   .     A
C259   H295    1.078   .     S
C259   C261    1.439   .     A
C260   H296    1.079   .     S
C260   N297    1.362   .     A
C260   C262    1.429   .     A
C261   N297    1.373   .     A
C261   O307    1.399   .     S
C262   O318    1.391   .     S
C262   N298    1.371   .     A
C263   O305    1.294   .     A
C263   C265    1.468   .     S
C263   O385    1.297   .     S
C264   C266    1.466   .     S
C264   O306    1.293   .     A
C264   O468    1.297   1_455 S
C265   C269    1.399   .     A
C265   C271    1.400   .     A
C266   C270    1.398   .     A
C266   C272    1.398   .     A
C267   C275    1.404   .     A
C267   C269    1.392   .     A
C267   H369    1.083   .     S
C268   C276    1.404   .     A
C268   H288    1.083   .     S
C268   C270    1.393   .     A
C269   H368    1.083   .     S
C270   H449    1.083   1_455 S
C271   H284    1.075   .     S
C271   C273    1.405   .     A
C272   H283    1.076   .     S
C272   C274    1.405   .     A
C273   C275    1.418   .     A
C273   C277    1.427   .     A
C274   C278    1.426   .     A
C274   C276    1.418   .     A
C275   C989    1.391   .     S
C276   C990    1.391   1_554 S
C277   C1016   1.424   .     S
C278   C1015   1.424   1_554 S
Cu279  O302    1.962   .     S
Cu279  O299    1.964   .     S
Cu279  O306    1.939   .     S
Cu279  O303    1.954   .     S
Cu279  N297    2.012   .     S
Cu279  Cu444   2.677   1_455 S
Cu280  O301    1.962   .     S
Cu280  O300    1.964   .     S
Cu280  O305    1.939   .     S
Cu280  N298    2.012   .     S
Cu280  O304    1.954   .     S
Cu280  Cu361   2.677   .     S
H285   C352    1.083   .     S
H286   C433    1.083   1_455 S
H287   C431    1.083   1_455 S
O299   C411    1.291   1_455 S
O302   C412    1.290   1_455 S
O303   C427    1.297   1_455 S
O304   C346    1.297   .     S
O307   C308    1.414   .     S
C308   H310    1.112   .     S
C308   H309    1.111   .     S
C308   C311    1.536   .     S
C311   H313    1.110   .     S
C311   C314    1.525   .     S
C311   H312    1.112   .     S
C314   H315    1.111   .     S
C314   H317    1.111   .     S
C314   H316    1.111   .     S
O318   C319    1.417   .     S
C319   H320    1.111   .     S
C319   H321    1.116   .     S
C319   C322    1.533   .     S
C322   C325    1.526   .     S
C322   H324    1.110   .     S
C322   H323    1.112   .     S
C325   H327    1.110   .     S
C325   H328    1.111   .     S
C325   H326    1.111   .     S
C329   C340    1.448   .     S
C329   O383    1.290   .     A
C329   O463    1.291   .     S
C330   O382    1.292   .     A
C330   C339    1.448   .     S
C330   O466    1.290   .     S
C331   H371    1.077   .     S
C331   C360    1.416   .     A
C331   C333    1.386   .     A
C332   C334    1.387   .     A
C332   H372    1.077   .     S
C332   C359    1.417   .     A
C333   H363    1.084   .     S
C333   C1095   1.391   1_554 S
C334   H364    1.084   .     S
C334   C1096   1.391   .     S
C335   H373    1.083   .     S
C335   C340    1.401   .     A
C336   H374    1.084   .     S
C336   C584    1.383   .     S
C337   C339    1.401   .     A
C337   H375    1.083   .     S
C337   C581    1.383   .     S
C338   H376    1.083   .     S
C339   C418    1.402   .     S
C340   C420    1.401   .     S
C341   N380    1.363   .     A
C341   H377    1.078   .     S
C341   C343    1.439   .     A
C342   H378    1.079   .     S
C342   N379    1.362   .     A
C342   C344    1.429   .     A
C343   N379    1.373   .     A
C343   O389    1.399   .     S
C344   O400    1.391   .     S
C344   N380    1.371   .     A
C345   O387    1.294   .     A
C345   C347    1.468   .     S
C345   O467    1.297   .     S
C346   C348    1.466   .     S
C346   O388    1.293   .     A
C347   C351    1.399   .     A
C347   C353    1.400   .     A
C348   C352    1.398   .     A
C348   C354    1.398   .     A
C349   C357    1.404   .     A
C349   C351    1.392   .     A
C349   H451    1.083   .     S
C350   C358    1.404   .     A
C350   H370    1.083   .     S
C350   C352    1.393   .     A
C351   H450    1.083   .     S
C353   H366    1.075   .     S
C353   C355    1.405   .     A
C354   H365    1.076   .     S
C354   C356    1.405   .     A
C355   C357    1.418   .     A
C355   C359    1.427   .     A
C356   C360    1.426   .     A
C356   C358    1.418   .     A
C357   C1071   1.391   .     S
C358   C1072   1.391   1_554 S
C359   C1098   1.424   .     S
C360   C1097   1.424   1_554 S
Cu361  O384    1.962   .     S
Cu361  O381    1.964   .     S
Cu361  O388    1.939   .     S
Cu361  O385    1.954   .     S
Cu361  N379    2.012   .     S
Cu362  O383    1.962   .     S
Cu362  O382    1.964   .     S
Cu362  O387    1.939   .     S
Cu362  N380    2.012   .     S
Cu362  O386    1.954   .     S
Cu362  Cu443   2.677   .     S
H367   C434    1.083   .     S
O386   C428    1.297   .     S
O389   C390    1.414   .     S
C390   H392    1.112   .     S
C390   H391    1.111   .     S
C390   C393    1.536   .     S
C393   H395    1.110   .     S
C393   C396    1.525   .     S
C393   H394    1.112   .     S
C396   H397    1.111   .     S
C396   H399    1.111   .     S
C396   H398    1.111   .     S
O400   C401    1.417   .     S
C401   H402    1.111   .     S
C401   H403    1.116   .     S
C401   C404    1.533   .     S
C404   C407    1.526   .     S
C404   H406    1.110   .     S
C404   H405    1.112   .     S
C407   H409    1.110   .     S
C407   H410    1.111   .     S
C407   H408    1.111   .     S
C411   C422    1.448   .     S
C411   O465    1.290   .     A
C411   O299    1.291   1_655 S
C412   O464    1.292   .     A
C412   C421    1.448   .     S
C412   O302    1.290   1_655 S
C413   H453    1.077   .     S
C413   C442    1.416   .     A
C413   C415    1.386   .     A
C414   C416    1.387   .     A
C414   H454    1.077   .     S
C414   C441    1.417   .     A
C415   H445    1.084   .     S
C415   C1177   1.391   1_554 S
C416   H446    1.084   .     S
C416   C1178   1.391   .     S
C417   H455    1.083   .     S
C417   C422    1.401   .     A
C418   H456    1.084   .     S
C418   C666    1.383   .     S
C419   C421    1.401   .     A
C419   H457    1.083   .     S
C419   C663    1.383   .     S
C420   H458    1.083   .     S
C421   C254    1.402   1_655 S
C422   C256    1.401   1_655 S
C423   N462    1.363   .     A
C423   H459    1.078   .     S
C423   C425    1.439   .     A
C424   H460    1.079   .     S
C424   N461    1.362   .     A
C424   C426    1.429   .     A
C425   N461    1.373   .     A
C425   O471    1.399   .     S
C426   O482    1.391   .     S
C426   N462    1.371   .     A
C427   O469    1.294   .     A
C427   C429    1.468   .     S
C427   O303    1.297   1_655 S
C428   C430    1.466   .     S
C428   O470    1.293   .     A
C429   C433    1.399   .     A
C429   C435    1.400   .     A
C430   C434    1.398   .     A
C430   C436    1.398   .     A
C431   C439    1.404   .     A
C431   C433    1.392   .     A
C431   H287    1.083   1_655 S
C432   C440    1.404   .     A
C432   H452    1.083   .     S
C432   C434    1.393   .     A
C433   H286    1.083   1_655 S
C435   H448    1.075   .     S
C435   C437    1.405   .     A
C436   H447    1.076   .     S
C436   C438    1.405   .     A
C437   C439    1.418   .     A
C437   C441    1.427   .     A
C438   C442    1.426   .     A
C438   C440    1.418   .     A
C439   C1153   1.391   .     S
C440   C1154   1.391   1_554 S
C441   C1180   1.424   .     S
C442   C1179   1.424   1_554 S
Cu443  O466    1.962   .     S
Cu443  O463    1.964   .     S
Cu443  O470    1.939   .     S
Cu443  O467    1.954   .     S
Cu443  N461    2.012   .     S
Cu444  O465    1.962   .     S
Cu444  O464    1.964   .     S
Cu444  O469    1.939   .     S
Cu444  N462    2.012   .     S
Cu444  O468    1.954   .     S
Cu444  Cu279   2.677   1_655 S
H449   C270    1.083   1_655 S
O468   C264    1.297   1_655 S
O471   C472    1.414   .     S
C472   H474    1.112   .     S
C472   H473    1.111   .     S
C472   C475    1.536   .     S
C475   H477    1.110   .     S
C475   C478    1.525   .     S
C475   H476    1.112   .     S
C478   H479    1.111   .     S
C478   H481    1.111   .     S
C478   H480    1.111   .     S
O482   C483    1.417   .     S
C483   H484    1.111   .     S
C483   H485    1.116   .     S
C483   C486    1.533   .     S
C486   C489    1.526   .     S
C486   H488    1.110   .     S
C486   H487    1.112   .     S
C489   H491    1.110   .     S
C489   H492    1.111   .     S
C489   H490    1.111   .     S
C493   C504    1.448   .     S
C493   O547    1.290   .     A
C493   O627    1.291   .     S
C494   O546    1.292   .     A
C494   C503    1.448   .     S
C494   O630    1.290   .     S
C495   H535    1.077   .     S
C495   C524    1.416   .     A
C495   C497    1.386   .     A
C496   C498    1.387   .     A
C496   H536    1.077   .     S
C496   C523    1.417   .     A
C497   H527    1.084   .     S
C497   C1259   1.391   1_554 S
C498   H528    1.084   .     S
C498   C1260   1.391   .     S
C499   H537    1.083   .     S
C499   C504    1.401   .     A
C500   H538    1.084   .     S
C500   C10     1.383   1_565 S
C500   C667    1.402   1_455 S
C501   C503    1.401   .     A
C501   H539    1.083   .     S
C501   C7      1.383   1_565 S
C502   H540    1.083   .     S
C502   C668    1.401   1_455 S
C503   C582    1.402   .     S
C504   C584    1.401   .     S
C505   N544    1.363   .     A
C505   H541    1.078   .     S
C505   C507    1.439   .     A
C506   H542    1.079   .     S
C506   N543    1.362   .     A
C506   C508    1.429   .     A
C507   N543    1.373   .     A
C507   O553    1.399   .     S
C508   O564    1.391   .     S
C508   N544    1.371   .     A
C509   O551    1.294   .     A
C509   C511    1.468   .     S
C509   O631    1.297   .     S
C510   C512    1.466   .     S
C510   O552    1.293   .     A
C510   O714    1.297   1_455 S
C511   C515    1.399   .     A
C511   C517    1.400   .     A
C512   C516    1.398   .     A
C512   C518    1.398   .     A
C513   C521    1.404   .     A
C513   C515    1.392   .     A
C513   H615    1.083   .     S
C514   C522    1.404   .     A
C514   H534    1.083   .     S
C514   C516    1.393   .     A
C515   H614    1.083   .     S
C516   H695    1.083   1_455 S
C517   H530    1.075   .     S
C517   C519    1.405   .     A
C518   H529    1.076   .     S
C518   C520    1.405   .     A
C519   C521    1.418   .     A
C519   C523    1.427   .     A
C520   C524    1.426   .     A
C520   C522    1.418   .     A
C521   C1235   1.391   .     S
C522   C1236   1.391   1_554 S
C523   C1262   1.424   .     S
C524   C1261   1.424   1_554 S
Cu525  O548    1.962   .     S
Cu525  O545    1.964   .     S
Cu525  O552    1.939   .     S
Cu525  O549    1.954   .     S
Cu525  N543    2.012   .     S
Cu525  Cu690   2.677   1_455 S
Cu526  O547    1.962   .     S
Cu526  O546    1.964   .     S
Cu526  O551    1.939   .     S
Cu526  N544    2.012   .     S
Cu526  O550    1.954   .     S
Cu526  Cu607   2.677   .     S
H531   C598    1.083   .     S
H532   C679    1.083   1_455 S
H533   C677    1.083   1_455 S
O545   C657    1.291   1_455 S
O548   C658    1.290   1_455 S
O549   C673    1.297   1_455 S
O550   C592    1.297   .     S
O553   C554    1.414   .     S
C554   H556    1.112   .     S
C554   H555    1.111   .     S
C554   C557    1.536   .     S
C557   H559    1.110   .     S
C557   C560    1.525   .     S
C557   H558    1.112   .     S
C560   H561    1.111   .     S
C560   H563    1.111   .     S
C560   H562    1.111   .     S
O564   C565    1.417   .     S
C565   H566    1.111   .     S
C565   H567    1.116   .     S
C565   C568    1.533   .     S
C568   C571    1.526   .     S
C568   H570    1.110   .     S
C568   H569    1.112   .     S
C571   H573    1.110   .     S
C571   H574    1.111   .     S
C571   H572    1.111   .     S
C575   C586    1.448   .     S
C575   O629    1.290   .     A
C575   O709    1.291   .     S
C576   O628    1.292   .     A
C576   C585    1.448   .     S
C576   O712    1.290   .     S
C577   H617    1.077   .     S
C577   C606    1.416   .     A
C577   C579    1.386   .     A
C578   C580    1.387   .     A
C578   H618    1.077   .     S
C578   C605    1.417   .     A
C579   H609    1.084   .     S
C579   C1341   1.391   1_554 S
C580   H610    1.084   .     S
C580   C1342   1.391   .     S
C581   H619    1.083   .     S
C581   C586    1.401   .     A
C582   H620    1.084   .     S
C582   C92     1.383   1_565 S
C583   C585    1.401   .     A
C583   H621    1.083   .     S
C583   C89     1.383   1_565 S
C584   H622    1.083   .     S
C585   C664    1.402   .     S
C586   C666    1.401   .     S
C587   N626    1.363   .     A
C587   H623    1.078   .     S
C587   C589    1.439   .     A
C588   H624    1.079   .     S
C588   N625    1.362   .     A
C588   C590    1.429   .     A
C589   N625    1.373   .     A
C589   O635    1.399   .     S
C590   O646    1.391   .     S
C590   N626    1.371   .     A
C591   O633    1.294   .     A
C591   C593    1.468   .     S
C591   O713    1.297   .     S
C592   C594    1.466   .     S
C592   O634    1.293   .     A
C593   C597    1.399   .     A
C593   C599    1.400   .     A
C594   C598    1.398   .     A
C594   C600    1.398   .     A
C595   C603    1.404   .     A
C595   C597    1.392   .     A
C595   H697    1.083   .     S
C596   C604    1.404   .     A
C596   H616    1.083   .     S
C596   C598    1.393   .     A
C597   H696    1.083   .     S
C599   H612    1.075   .     S
C599   C601    1.405   .     A
C600   H611    1.076   .     S
C600   C602    1.405   .     A
C601   C603    1.418   .     A
C601   C605    1.427   .     A
C602   C606    1.426   .     A
C602   C604    1.418   .     A
C603   C1317   1.391   .     S
C604   C1318   1.391   1_554 S
C605   C1344   1.424   .     S
C606   C1343   1.424   1_554 S
Cu607  O630    1.962   .     S
Cu607  O627    1.964   .     S
Cu607  O634    1.939   .     S
Cu607  O631    1.954   .     S
Cu607  N625    2.012   .     S
Cu608  O629    1.962   .     S
Cu608  O628    1.964   .     S
Cu608  O633    1.939   .     S
Cu608  N626    2.012   .     S
Cu608  O632    1.954   .     S
Cu608  Cu689   2.677   .     S
H613   C680    1.083   .     S
O632   C674    1.297   .     S
O635   C636    1.414   .     S
C636   H638    1.112   .     S
C636   H637    1.111   .     S
C636   C639    1.536   .     S
C639   H641    1.110   .     S
C639   C642    1.525   .     S
C639   H640    1.112   .     S
C642   H643    1.111   .     S
C642   H645    1.111   .     S
C642   H644    1.111   .     S
O646   C647    1.417   .     S
C647   H648    1.111   .     S
C647   H649    1.116   .     S
C647   C650    1.533   .     S
C650   C653    1.526   .     S
C650   H652    1.110   .     S
C650   H651    1.112   .     S
C653   H655    1.110   .     S
C653   H656    1.111   .     S
C653   H654    1.111   .     S
C657   C668    1.448   .     S
C657   O711    1.290   .     A
C657   O545    1.291   1_655 S
C658   O710    1.292   .     A
C658   C667    1.448   .     S
C658   O548    1.290   1_655 S
C659   H699    1.077   .     S
C659   C688    1.416   .     A
C659   C661    1.386   .     A
C660   C662    1.387   .     A
C660   H700    1.077   .     S
C660   C687    1.417   .     A
C661   H691    1.084   .     S
C661   C1423   1.391   1_554 S
C662   H692    1.084   .     S
C662   C1424   1.391   .     S
C663   H701    1.083   .     S
C663   C668    1.401   .     A
C664   H702    1.084   .     S
C664   C174    1.383   1_565 S
C665   C667    1.401   .     A
C665   H703    1.083   .     S
C665   C171    1.383   1_565 S
C666   H704    1.083   .     S
C667   C500    1.402   1_655 S
C668   C502    1.401   1_655 S
C669   N708    1.363   .     A
C669   H705    1.078   .     S
C669   C671    1.439   .     A
C670   H706    1.079   .     S
C670   N707    1.362   .     A
C670   C672    1.429   .     A
C671   N707    1.373   .     A
C671   O717    1.399   .     S
C672   O728    1.391   .     S
C672   N708    1.371   .     A
C673   O715    1.294   .     A
C673   C675    1.468   .     S
C673   O549    1.297   1_655 S
C674   C676    1.466   .     S
C674   O716    1.293   .     A
C675   C679    1.399   .     A
C675   C681    1.400   .     A
C676   C680    1.398   .     A
C676   C682    1.398   .     A
C677   C685    1.404   .     A
C677   C679    1.392   .     A
C677   H533    1.083   1_655 S
C678   C686    1.404   .     A
C678   H698    1.083   .     S
C678   C680    1.393   .     A
C679   H532    1.083   1_655 S
C681   H694    1.075   .     S
C681   C683    1.405   .     A
C682   H693    1.076   .     S
C682   C684    1.405   .     A
C683   C685    1.418   .     A
C683   C687    1.427   .     A
C684   C688    1.426   .     A
C684   C686    1.418   .     A
C685   C1399   1.391   .     S
C686   C1400   1.391   1_554 S
C687   C1426   1.424   .     S
C688   C1425   1.424   1_554 S
Cu689  O712    1.962   .     S
Cu689  O709    1.964   .     S
Cu689  O716    1.939   .     S
Cu689  O713    1.954   .     S
Cu689  N707    2.012   .     S
Cu690  O711    1.962   .     S
Cu690  O710    1.964   .     S
Cu690  O715    1.939   .     S
Cu690  N708    2.012   .     S
Cu690  O714    1.954   .     S
Cu690  Cu525   2.677   1_655 S
H695   C516    1.083   1_655 S
O714   C510    1.297   1_655 S
O717   C718    1.414   .     S
C718   H720    1.112   .     S
C718   H719    1.111   .     S
C718   C721    1.536   .     S
C721   H723    1.110   .     S
C721   C724    1.525   .     S
C721   H722    1.112   .     S
C724   H725    1.111   .     S
C724   H727    1.111   .     S
C724   H726    1.111   .     S
O728   C729    1.417   .     S
C729   H730    1.111   .     S
C729   H731    1.116   .     S
C729   C732    1.533   .     S
C732   C735    1.526   .     S
C732   H734    1.110   .     S
C732   H733    1.112   .     S
C735   H737    1.110   .     S
C735   H738    1.111   .     S
C735   H736    1.111   .     S
C739   C750    1.448   .     S
C739   O793    1.290   .     A
C739   O873    1.291   .     S
C740   O792    1.292   .     A
C740   C749    1.448   .     S
C740   O876    1.290   .     S
C741   H781    1.077   .     S
C741   C770    1.416   .     A
C741   C743    1.386   .     A
C742   C744    1.387   .     A
C742   H782    1.077   .     S
C742   C769    1.417   .     A
C743   H773    1.084   .     S
C744   H774    1.084   .     S
C744   C30     1.391   1_556 S
C745   H783    1.083   .     S
C745   C750    1.401   .     A
C745   C1239   1.383   1_545 S
C746   H784    1.084   .     S
C746   C994    1.383   .     S
C746   C913    1.402   1_455 S
C747   C749    1.401   .     A
C747   H785    1.083   .     S
C747   C991    1.383   .     S
C748   H786    1.083   .     S
C748   C1238   1.383   1_545 S
C748   C914    1.401   1_455 S
C749   C828    1.402   .     S
C750   C830    1.401   .     S
C751   N790    1.363   .     A
C751   H787    1.078   .     S
C751   C753    1.439   .     A
C752   H788    1.079   .     S
C752   N789    1.362   .     A
C752   C754    1.429   .     A
C753   N789    1.373   .     A
C753   O799    1.399   .     S
C754   O810    1.391   .     S
C754   N790    1.371   .     A
C755   O797    1.294   .     A
C755   C757    1.468   .     S
C755   O877    1.297   .     S
C756   C758    1.466   .     S
C756   O798    1.293   .     A
C756   O960    1.297   1_455 S
C757   C761    1.399   .     A
C757   C763    1.400   .     A
C758   C762    1.398   .     A
C758   C764    1.398   .     A
C759   C767    1.404   .     A
C759   C761    1.392   .     A
C759   H861    1.083   .     S
C760   C768    1.404   .     A
C760   H780    1.083   .     S
C760   C762    1.393   .     A
C761   H860    1.083   .     S
C762   H941    1.083   1_455 S
C763   H776    1.075   .     S
C763   C765    1.405   .     A
C764   H775    1.076   .     S
C764   C766    1.405   .     A
C765   C767    1.418   .     A
C765   C769    1.427   .     A
C766   C770    1.426   .     A
C766   C768    1.418   .     A
C767   C5      1.391   1_556 S
C769   C32     1.424   1_556 S
Cu771  O794    1.962   .     S
Cu771  O791    1.964   .     S
Cu771  O798    1.939   .     S
Cu771  O795    1.954   .     S
Cu771  N789    2.012   .     S
Cu771  Cu936   2.677   1_455 S
Cu772  O793    1.962   .     S
Cu772  O792    1.964   .     S
Cu772  O797    1.939   .     S
Cu772  N790    2.012   .     S
Cu772  O796    1.954   .     S
Cu772  Cu853   2.677   .     S
H777   C844    1.083   .     S
H778   C925    1.083   1_455 S
H779   C923    1.083   1_455 S
O791   C903    1.291   1_455 S
O794   C904    1.290   1_455 S
O795   C919    1.297   1_455 S
O796   C838    1.297   .     S
O799   C800    1.414   .     S
C800   H802    1.112   .     S
C800   H801    1.111   .     S
C800   C803    1.536   .     S
C803   H805    1.110   .     S
C803   C806    1.525   .     S
C803   H804    1.112   .     S
C806   H807    1.111   .     S
C806   H809    1.111   .     S
C806   H808    1.111   .     S
O810   C811    1.417   .     S
C811   H812    1.111   .     S
C811   H813    1.116   .     S
C811   C814    1.533   .     S
C814   C817    1.526   .     S
C814   H816    1.110   .     S
C814   H815    1.112   .     S
C817   H819    1.110   .     S
C817   H820    1.111   .     S
C817   H818    1.111   .     S
C821   C832    1.448   .     S
C821   O875    1.290   .     A
C821   O955    1.291   .     S
C822   O874    1.292   .     A
C822   C831    1.448   .     S
C822   O958    1.290   .     S
C823   H863    1.077   .     S
C823   C852    1.416   .     A
C823   C825    1.386   .     A
C824   C826    1.387   .     A
C824   H864    1.077   .     S
C824   C851    1.417   .     A
C825   H855    1.084   .     S
C826   H856    1.084   .     S
C826   C112    1.391   1_556 S
C827   H865    1.083   .     S
C827   C832    1.401   .     A
C827   C1321   1.383   1_545 S
C828   H866    1.084   .     S
C828   C1076   1.383   .     S
C829   C831    1.401   .     A
C829   H867    1.083   .     S
C829   C1073   1.383   .     S
C830   H868    1.083   .     S
C830   C1320   1.383   1_545 S
C831   C910    1.402   .     S
C832   C912    1.401   .     S
C833   N872    1.363   .     A
C833   H869    1.078   .     S
C833   C835    1.439   .     A
C834   H870    1.079   .     S
C834   N871    1.362   .     A
C834   C836    1.429   .     A
C835   N871    1.373   .     A
C835   O881    1.399   .     S
C836   O892    1.391   .     S
C836   N872    1.371   .     A
C837   O879    1.294   .     A
C837   C839    1.468   .     S
C837   O959    1.297   .     S
C838   C840    1.466   .     S
C838   O880    1.293   .     A
C839   C843    1.399   .     A
C839   C845    1.400   .     A
C840   C844    1.398   .     A
C840   C846    1.398   .     A
C841   C849    1.404   .     A
C841   C843    1.392   .     A
C841   H943    1.083   .     S
C842   C850    1.404   .     A
C842   H862    1.083   .     S
C842   C844    1.393   .     A
C843   H942    1.083   .     S
C845   H858    1.075   .     S
C845   C847    1.405   .     A
C846   H857    1.076   .     S
C846   C848    1.405   .     A
C847   C849    1.418   .     A
C847   C851    1.427   .     A
C848   C852    1.426   .     A
C848   C850    1.418   .     A
C849   C87     1.391   1_556 S
C851   C114    1.424   1_556 S
Cu853  O876    1.962   .     S
Cu853  O873    1.964   .     S
Cu853  O880    1.939   .     S
Cu853  O877    1.954   .     S
Cu853  N871    2.012   .     S
Cu854  O875    1.962   .     S
Cu854  O874    1.964   .     S
Cu854  O879    1.939   .     S
Cu854  N872    2.012   .     S
Cu854  O878    1.954   .     S
Cu854  Cu935   2.677   .     S
H859   C926    1.083   .     S
O878   C920    1.297   .     S
O881   C882    1.414   .     S
C882   H884    1.112   .     S
C882   H883    1.111   .     S
C882   C885    1.536   .     S
C885   H887    1.110   .     S
C885   C888    1.525   .     S
C885   H886    1.112   .     S
C888   H889    1.111   .     S
C888   H891    1.111   .     S
C888   H890    1.111   .     S
O892   C893    1.417   .     S
C893   H894    1.111   .     S
C893   H895    1.116   .     S
C893   C896    1.533   .     S
C896   C899    1.526   .     S
C896   H898    1.110   .     S
C896   H897    1.112   .     S
C899   H901    1.110   .     S
C899   H902    1.111   .     S
C899   H900    1.111   .     S
C903   C914    1.448   .     S
C903   O957    1.290   .     A
C903   O791    1.291   1_655 S
C904   O956    1.292   .     A
C904   C913    1.448   .     S
C904   O794    1.290   1_655 S
C905   H945    1.077   .     S
C905   C934    1.416   .     A
C905   C907    1.386   .     A
C906   C908    1.387   .     A
C906   H946    1.077   .     S
C906   C933    1.417   .     A
C907   H937    1.084   .     S
C908   H938    1.084   .     S
C908   C194    1.391   1_556 S
C909   H947    1.083   .     S
C909   C914    1.401   .     A
C909   C1403   1.383   1_545 S
C910   H948    1.084   .     S
C910   C1158   1.383   .     S
C911   C913    1.401   .     A
C911   H949    1.083   .     S
C911   C1155   1.383   .     S
C912   H950    1.083   .     S
C912   C1402   1.383   1_545 S
C913   C746    1.402   1_655 S
C914   C748    1.401   1_655 S
C915   N954    1.363   .     A
C915   H951    1.078   .     S
C915   C917    1.439   .     A
C916   H952    1.079   .     S
C916   N953    1.362   .     A
C916   C918    1.429   .     A
C917   N953    1.373   .     A
C917   O963    1.399   .     S
C918   O974    1.391   .     S
C918   N954    1.371   .     A
C919   O961    1.294   .     A
C919   C921    1.468   .     S
C919   O795    1.297   1_655 S
C920   C922    1.466   .     S
C920   O962    1.293   .     A
C921   C925    1.399   .     A
C921   C927    1.400   .     A
C922   C926    1.398   .     A
C922   C928    1.398   .     A
C923   C931    1.404   .     A
C923   C925    1.392   .     A
C923   H779    1.083   1_655 S
C924   C932    1.404   .     A
C924   H944    1.083   .     S
C924   C926    1.393   .     A
C925   H778    1.083   1_655 S
C927   H940    1.075   .     S
C927   C929    1.405   .     A
C928   H939    1.076   .     S
C928   C930    1.405   .     A
C929   C931    1.418   .     A
C929   C933    1.427   .     A
C930   C934    1.426   .     A
C930   C932    1.418   .     A
C931   C169    1.391   1_556 S
C933   C196    1.424   1_556 S
Cu935  O958    1.962   .     S
Cu935  O955    1.964   .     S
Cu935  O962    1.939   .     S
Cu935  O959    1.954   .     S
Cu935  N953    2.012   .     S
Cu936  O957    1.962   .     S
Cu936  O956    1.964   .     S
Cu936  O961    1.939   .     S
Cu936  N954    2.012   .     S
Cu936  O960    1.954   .     S
Cu936  Cu771   2.677   1_655 S
H941   C762    1.083   1_655 S
O960   C756    1.297   1_655 S
O963   C964    1.414   .     S
C964   H966    1.112   .     S
C964   H965    1.111   .     S
C964   C967    1.536   .     S
C967   H969    1.110   .     S
C967   C970    1.525   .     S
C967   H968    1.112   .     S
C970   H971    1.111   .     S
C970   H973    1.111   .     S
C970   H972    1.111   .     S
O974   C975    1.417   .     S
C975   H976    1.111   .     S
C975   H977    1.116   .     S
C975   C978    1.533   .     S
C978   C981    1.526   .     S
C978   H980    1.110   .     S
C978   H979    1.112   .     S
C981   H983    1.110   .     S
C981   H984    1.111   .     S
C981   H982    1.111   .     S
C985   C996    1.448   .     S
C985   O1039   1.290   .     A
C985   O1119   1.291   .     S
C986   O1038   1.292   .     A
C986   C995    1.448   .     S
C986   O1122   1.290   .     S
C987   H1027   1.077   .     S
C987   C1016   1.416   .     A
C987   C989    1.386   .     A
C988   C990    1.387   .     A
C988   H1028   1.077   .     S
C988   C1015   1.417   .     A
C989   H1019   1.084   .     S
C990   H1020   1.084   .     S
C990   C276    1.391   1_556 S
C991   H1029   1.083   .     S
C991   C996    1.401   .     A
C992   H1030   1.084   .     S
C992   C1240   1.383   .     S
C992   C1159   1.402   1_455 S
C993   C995    1.401   .     A
C993   H1031   1.083   .     S
C993   C1237   1.383   .     S
C994   H1032   1.083   .     S
C994   C1160   1.401   1_455 S
C995   C1074   1.402   .     S
C996   C1076   1.401   .     S
C997   N1036   1.363   .     A
C997   H1033   1.078   .     S
C997   C999    1.439   .     A
C998   H1034   1.079   .     S
C998   N1035   1.362   .     A
C998   C1000   1.429   .     A
C999   N1035   1.373   .     A
C999   O1045   1.399   .     S
C1000  O1056   1.391   .     S
C1000  N1036   1.371   .     A
C1001  O1043   1.294   .     A
C1001  C1003   1.468   .     S
C1001  O1123   1.297   .     S
C1002  C1004   1.466   .     S
C1002  O1044   1.293   .     A
C1002  O1206   1.297   1_455 S
C1003  C1007   1.399   .     A
C1003  C1009   1.400   .     A
C1004  C1008   1.398   .     A
C1004  C1010   1.398   .     A
C1005  C1013   1.404   .     A
C1005  C1007   1.392   .     A
C1005  H1107   1.083   .     S
C1006  C1014   1.404   .     A
C1006  H1026   1.083   .     S
C1006  C1008   1.393   .     A
C1007  H1106   1.083   .     S
C1008  H1187   1.083   1_455 S
C1009  H1022   1.075   .     S
C1009  C1011   1.405   .     A
C1010  H1021   1.076   .     S
C1010  C1012   1.405   .     A
C1011  C1013   1.418   .     A
C1011  C1015   1.427   .     A
C1012  C1016   1.426   .     A
C1012  C1014   1.418   .     A
C1013  C251    1.391   1_556 S
C1015  C278    1.424   1_556 S
Cu1017 O1040   1.962   .     S
Cu1017 O1037   1.964   .     S
Cu1017 O1044   1.939   .     S
Cu1017 O1041   1.954   .     S
Cu1017 N1035   2.012   .     S
Cu1017 Cu1182  2.677   1_455 S
Cu1018 O1039   1.962   .     S
Cu1018 O1038   1.964   .     S
Cu1018 O1043   1.939   .     S
Cu1018 N1036   2.012   .     S
Cu1018 O1042   1.954   .     S
Cu1018 Cu1099  2.677   .     S
H1023  C1090   1.083   .     S
H1024  C1171   1.083   1_455 S
H1025  C1169   1.083   1_455 S
O1037  C1149   1.291   1_455 S
O1040  C1150   1.290   1_455 S
O1041  C1165   1.297   1_455 S
O1042  C1084   1.297   .     S
O1045  C1046   1.414   .     S
C1046  H1048   1.112   .     S
C1046  H1047   1.111   .     S
C1046  C1049   1.536   .     S
C1049  H1051   1.110   .     S
C1049  C1052   1.525   .     S
C1049  H1050   1.112   .     S
C1052  H1053   1.111   .     S
C1052  H1055   1.111   .     S
C1052  H1054   1.111   .     S
O1056  C1057   1.417   .     S
C1057  H1058   1.111   .     S
C1057  H1059   1.116   .     S
C1057  C1060   1.533   .     S
C1060  C1063   1.526   .     S
C1060  H1062   1.110   .     S
C1060  H1061   1.112   .     S
C1063  H1065   1.110   .     S
C1063  H1066   1.111   .     S
C1063  H1064   1.111   .     S
C1067  C1078   1.448   .     S
C1067  O1121   1.290   .     A
C1067  O1201   1.291   .     S
C1068  O1120   1.292   .     A
C1068  C1077   1.448   .     S
C1068  O1204   1.290   .     S
C1069  H1109   1.077   .     S
C1069  C1098   1.416   .     A
C1069  C1071   1.386   .     A
C1070  C1072   1.387   .     A
C1070  H1110   1.077   .     S
C1070  C1097   1.417   .     A
C1071  H1101   1.084   .     S
C1072  H1102   1.084   .     S
C1072  C358    1.391   1_556 S
C1073  H1111   1.083   .     S
C1073  C1078   1.401   .     A
C1074  H1112   1.084   .     S
C1074  C1322   1.383   .     S
C1075  C1077   1.401   .     A
C1075  H1113   1.083   .     S
C1075  C1319   1.383   .     S
C1076  H1114   1.083   .     S
C1077  C1156   1.402   .     S
C1078  C1158   1.401   .     S
C1079  N1118   1.363   .     A
C1079  H1115   1.078   .     S
C1079  C1081   1.439   .     A
C1080  H1116   1.079   .     S
C1080  N1117   1.362   .     A
C1080  C1082   1.429   .     A
C1081  N1117   1.373   .     A
C1081  O1127   1.399   .     S
C1082  O1138   1.391   .     S
C1082  N1118   1.371   .     A
C1083  O1125   1.294   .     A
C1083  C1085   1.468   .     S
C1083  O1205   1.297   .     S
C1084  C1086   1.466   .     S
C1084  O1126   1.293   .     A
C1085  C1089   1.399   .     A
C1085  C1091   1.400   .     A
C1086  C1090   1.398   .     A
C1086  C1092   1.398   .     A
C1087  C1095   1.404   .     A
C1087  C1089   1.392   .     A
C1087  H1189   1.083   .     S
C1088  C1096   1.404   .     A
C1088  H1108   1.083   .     S
C1088  C1090   1.393   .     A
C1089  H1188   1.083   .     S
C1091  H1104   1.075   .     S
C1091  C1093   1.405   .     A
C1092  H1103   1.076   .     S
C1092  C1094   1.405   .     A
C1093  C1095   1.418   .     A
C1093  C1097   1.427   .     A
C1094  C1098   1.426   .     A
C1094  C1096   1.418   .     A
C1095  C333    1.391   1_556 S
C1097  C360    1.424   1_556 S
Cu1099 O1122   1.962   .     S
Cu1099 O1119   1.964   .     S
Cu1099 O1126   1.939   .     S
Cu1099 O1123   1.954   .     S
Cu1099 N1117   2.012   .     S
Cu1100 O1121   1.962   .     S
Cu1100 O1120   1.964   .     S
Cu1100 O1125   1.939   .     S
Cu1100 N1118   2.012   .     S
Cu1100 O1124   1.954   .     S
Cu1100 Cu1181  2.677   .     S
H1105  C1172   1.083   .     S
O1124  C1166   1.297   .     S
O1127  C1128   1.414   .     S
C1128  H1130   1.112   .     S
C1128  H1129   1.111   .     S
C1128  C1131   1.536   .     S
C1131  H1133   1.110   .     S
C1131  C1134   1.525   .     S
C1131  H1132   1.112   .     S
C1134  H1135   1.111   .     S
C1134  H1137   1.111   .     S
C1134  H1136   1.111   .     S
O1138  C1139   1.417   .     S
C1139  H1140   1.111   .     S
C1139  H1141   1.116   .     S
C1139  C1142   1.533   .     S
C1142  C1145   1.526   .     S
C1142  H1144   1.110   .     S
C1142  H1143   1.112   .     S
C1145  H1147   1.110   .     S
C1145  H1148   1.111   .     S
C1145  H1146   1.111   .     S
C1149  C1160   1.448   .     S
C1149  O1203   1.290   .     A
C1149  O1037   1.291   1_655 S
C1150  O1202   1.292   .     A
C1150  C1159   1.448   .     S
C1150  O1040   1.290   1_655 S
C1151  H1191   1.077   .     S
C1151  C1180   1.416   .     A
C1151  C1153   1.386   .     A
C1152  C1154   1.387   .     A
C1152  H1192   1.077   .     S
C1152  C1179   1.417   .     A
C1153  H1183   1.084   .     S
C1154  H1184   1.084   .     S
C1154  C440    1.391   1_556 S
C1155  H1193   1.083   .     S
C1155  C1160   1.401   .     A
C1156  H1194   1.084   .     S
C1156  C1404   1.383   .     S
C1157  C1159   1.401   .     A
C1157  H1195   1.083   .     S
C1157  C1401   1.383   .     S
C1158  H1196   1.083   .     S
C1159  C992    1.402   1_655 S
C1160  C994    1.401   1_655 S
C1161  N1200   1.363   .     A
C1161  H1197   1.078   .     S
C1161  C1163   1.439   .     A
C1162  H1198   1.079   .     S
C1162  N1199   1.362   .     A
C1162  C1164   1.429   .     A
C1163  N1199   1.373   .     A
C1163  O1209   1.399   .     S
C1164  O1220   1.391   .     S
C1164  N1200   1.371   .     A
C1165  O1207   1.294   .     A
C1165  C1167   1.468   .     S
C1165  O1041   1.297   1_655 S
C1166  C1168   1.466   .     S
C1166  O1208   1.293   .     A
C1167  C1171   1.399   .     A
C1167  C1173   1.400   .     A
C1168  C1172   1.398   .     A
C1168  C1174   1.398   .     A
C1169  C1177   1.404   .     A
C1169  C1171   1.392   .     A
C1169  H1025   1.083   1_655 S
C1170  C1178   1.404   .     A
C1170  H1190   1.083   .     S
C1170  C1172   1.393   .     A
C1171  H1024   1.083   1_655 S
C1173  H1186   1.075   .     S
C1173  C1175   1.405   .     A
C1174  H1185   1.076   .     S
C1174  C1176   1.405   .     A
C1175  C1177   1.418   .     A
C1175  C1179   1.427   .     A
C1176  C1180   1.426   .     A
C1176  C1178   1.418   .     A
C1177  C415    1.391   1_556 S
C1179  C442    1.424   1_556 S
Cu1181 O1204   1.962   .     S
Cu1181 O1201   1.964   .     S
Cu1181 O1208   1.939   .     S
Cu1181 O1205   1.954   .     S
Cu1181 N1199   2.012   .     S
Cu1182 O1203   1.962   .     S
Cu1182 O1202   1.964   .     S
Cu1182 O1207   1.939   .     S
Cu1182 N1200   2.012   .     S
Cu1182 O1206   1.954   .     S
Cu1182 Cu1017  2.677   1_655 S
H1187  C1008   1.083   1_655 S
O1206  C1002   1.297   1_655 S
O1209  C1210   1.414   .     S
C1210  H1212   1.112   .     S
C1210  H1211   1.111   .     S
C1210  C1213   1.536   .     S
C1213  H1215   1.110   .     S
C1213  C1216   1.525   .     S
C1213  H1214   1.112   .     S
C1216  H1217   1.111   .     S
C1216  H1219   1.111   .     S
C1216  H1218   1.111   .     S
O1220  C1221   1.417   .     S
C1221  H1222   1.111   .     S
C1221  H1223   1.116   .     S
C1221  C1224   1.533   .     S
C1224  C1227   1.526   .     S
C1224  H1226   1.110   .     S
C1224  H1225   1.112   .     S
C1227  H1229   1.110   .     S
C1227  H1230   1.111   .     S
C1227  H1228   1.111   .     S
C1231  C1242   1.448   .     S
C1231  O1285   1.290   .     A
C1231  O1365   1.291   .     S
C1232  O1284   1.292   .     A
C1232  C1241   1.448   .     S
C1232  O1368   1.290   .     S
C1233  H1273   1.077   .     S
C1233  C1262   1.416   .     A
C1233  C1235   1.386   .     A
C1234  C1236   1.387   .     A
C1234  H1274   1.077   .     S
C1234  C1261   1.417   .     A
C1235  H1265   1.084   .     S
C1236  H1266   1.084   .     S
C1236  C522    1.391   1_556 S
C1237  H1275   1.083   .     S
C1237  C1242   1.401   .     A
C1238  H1276   1.084   .     S
C1238  C748    1.383   1_565 S
C1238  C1405   1.402   1_455 S
C1239  C1241   1.401   .     A
C1239  H1277   1.083   .     S
C1239  C745    1.383   1_565 S
C1240  H1278   1.083   .     S
C1240  C1406   1.401   1_455 S
C1241  C1320   1.402   .     S
C1242  C1322   1.401   .     S
C1243  N1282   1.363   .     A
C1243  H1279   1.078   .     S
C1243  C1245   1.439   .     A
C1244  H1280   1.079   .     S
C1244  N1281   1.362   .     A
C1244  C1246   1.429   .     A
C1245  N1281   1.373   .     A
C1245  O1291   1.399   .     S
C1246  O1302   1.391   .     S
C1246  N1282   1.371   .     A
C1247  O1289   1.294   .     A
C1247  C1249   1.468   .     S
C1247  O1369   1.297   .     S
C1248  C1250   1.466   .     S
C1248  O1290   1.293   .     A
C1248  O1452   1.297   1_455 S
C1249  C1253   1.399   .     A
C1249  C1255   1.400   .     A
C1250  C1254   1.398   .     A
C1250  C1256   1.398   .     A
C1251  C1259   1.404   .     A
C1251  C1253   1.392   .     A
C1251  H1353   1.083   .     S
C1252  C1260   1.404   .     A
C1252  H1272   1.083   .     S
C1252  C1254   1.393   .     A
C1253  H1352   1.083   .     S
C1254  H1433   1.083   1_455 S
C1255  H1268   1.075   .     S
C1255  C1257   1.405   .     A
C1256  H1267   1.076   .     S
C1256  C1258   1.405   .     A
C1257  C1259   1.418   .     A
C1257  C1261   1.427   .     A
C1258  C1262   1.426   .     A
C1258  C1260   1.418   .     A
C1259  C497    1.391   1_556 S
C1261  C524    1.424   1_556 S
Cu1263 O1286   1.962   .     S
Cu1263 O1283   1.964   .     S
Cu1263 O1290   1.939   .     S
Cu1263 O1287   1.954   .     S
Cu1263 N1281   2.012   .     S
Cu1263 Cu1428  2.677   1_455 S
Cu1264 O1285   1.962   .     S
Cu1264 O1284   1.964   .     S
Cu1264 O1289   1.939   .     S
Cu1264 N1282   2.012   .     S
Cu1264 O1288   1.954   .     S
Cu1264 Cu1345  2.677   .     S
H1269  C1336   1.083   .     S
H1270  C1417   1.083   1_455 S
H1271  C1415   1.083   1_455 S
O1283  C1395   1.291   1_455 S
O1286  C1396   1.290   1_455 S
O1287  C1411   1.297   1_455 S
O1288  C1330   1.297   .     S
O1291  C1292   1.414   .     S
C1292  H1294   1.112   .     S
C1292  H1293   1.111   .     S
C1292  C1295   1.536   .     S
C1295  H1297   1.110   .     S
C1295  C1298   1.525   .     S
C1295  H1296   1.112   .     S
C1298  H1299   1.111   .     S
C1298  H1301   1.111   .     S
C1298  H1300   1.111   .     S
O1302  C1303   1.417   .     S
C1303  H1304   1.111   .     S
C1303  H1305   1.116   .     S
C1303  C1306   1.533   .     S
C1306  C1309   1.526   .     S
C1306  H1308   1.110   .     S
C1306  H1307   1.112   .     S
C1309  H1311   1.110   .     S
C1309  H1312   1.111   .     S
C1309  H1310   1.111   .     S
C1313  C1324   1.448   .     S
C1313  O1367   1.290   .     A
C1313  O1447   1.291   .     S
C1314  O1366   1.292   .     A
C1314  C1323   1.448   .     S
C1314  O1450   1.290   .     S
C1315  H1355   1.077   .     S
C1315  C1344   1.416   .     A
C1315  C1317   1.386   .     A
C1316  C1318   1.387   .     A
C1316  H1356   1.077   .     S
C1316  C1343   1.417   .     A
C1317  H1347   1.084   .     S
C1318  H1348   1.084   .     S
C1318  C604    1.391   1_556 S
C1319  H1357   1.083   .     S
C1319  C1324   1.401   .     A
C1320  H1358   1.084   .     S
C1320  C830    1.383   1_565 S
C1321  C1323   1.401   .     A
C1321  H1359   1.083   .     S
C1321  C827    1.383   1_565 S
C1322  H1360   1.083   .     S
C1323  C1402   1.402   .     S
C1324  C1404   1.401   .     S
C1325  N1364   1.363   .     A
C1325  H1361   1.078   .     S
C1325  C1327   1.439   .     A
C1326  H1362   1.079   .     S
C1326  N1363   1.362   .     A
C1326  C1328   1.429   .     A
C1327  N1363   1.373   .     A
C1327  O1373   1.399   .     S
C1328  O1384   1.391   .     S
C1328  N1364   1.371   .     A
C1329  O1371   1.294   .     A
C1329  C1331   1.468   .     S
C1329  O1451   1.297   .     S
C1330  C1332   1.466   .     S
C1330  O1372   1.293   .     A
C1331  C1335   1.399   .     A
C1331  C1337   1.400   .     A
C1332  C1336   1.398   .     A
C1332  C1338   1.398   .     A
C1333  C1341   1.404   .     A
C1333  C1335   1.392   .     A
C1333  H1435   1.083   .     S
C1334  C1342   1.404   .     A
C1334  H1354   1.083   .     S
C1334  C1336   1.393   .     A
C1335  H1434   1.083   .     S
C1337  H1350   1.075   .     S
C1337  C1339   1.405   .     A
C1338  H1349   1.076   .     S
C1338  C1340   1.405   .     A
C1339  C1341   1.418   .     A
C1339  C1343   1.427   .     A
C1340  C1344   1.426   .     A
C1340  C1342   1.418   .     A
C1341  C579    1.391   1_556 S
C1343  C606    1.424   1_556 S
Cu1345 O1368   1.962   .     S
Cu1345 O1365   1.964   .     S
Cu1345 O1372   1.939   .     S
Cu1345 O1369   1.954   .     S
Cu1345 N1363   2.012   .     S
Cu1346 O1367   1.962   .     S
Cu1346 O1366   1.964   .     S
Cu1346 O1371   1.939   .     S
Cu1346 N1364   2.012   .     S
Cu1346 O1370   1.954   .     S
Cu1346 Cu1427  2.677   .     S
H1351  C1418   1.083   .     S
O1370  C1412   1.297   .     S
O1373  C1374   1.414   .     S
C1374  H1376   1.112   .     S
C1374  H1375   1.111   .     S
C1374  C1377   1.536   .     S
C1377  H1379   1.110   .     S
C1377  C1380   1.525   .     S
C1377  H1378   1.112   .     S
C1380  H1381   1.111   .     S
C1380  H1383   1.111   .     S
C1380  H1382   1.111   .     S
O1384  C1385   1.417   .     S
C1385  H1386   1.111   .     S
C1385  H1387   1.116   .     S
C1385  C1388   1.533   .     S
C1388  C1391   1.526   .     S
C1388  H1390   1.110   .     S
C1388  H1389   1.112   .     S
C1391  H1393   1.110   .     S
C1391  H1394   1.111   .     S
C1391  H1392   1.111   .     S
C1395  C1406   1.448   .     S
C1395  O1449   1.290   .     A
C1395  O1283   1.291   1_655 S
C1396  O1448   1.292   .     A
C1396  C1405   1.448   .     S
C1396  O1286   1.290   1_655 S
C1397  H1437   1.077   .     S
C1397  C1426   1.416   .     A
C1397  C1399   1.386   .     A
C1398  C1400   1.387   .     A
C1398  H1438   1.077   .     S
C1398  C1425   1.417   .     A
C1399  H1429   1.084   .     S
C1400  H1430   1.084   .     S
C1400  C686    1.391   1_556 S
C1401  H1439   1.083   .     S
C1401  C1406   1.401   .     A
C1402  H1440   1.084   .     S
C1402  C912    1.383   1_565 S
C1403  C1405   1.401   .     A
C1403  H1441   1.083   .     S
C1403  C909    1.383   1_565 S
C1404  H1442   1.083   .     S
C1405  C1238   1.402   1_655 S
C1406  C1240   1.401   1_655 S
C1407  N1446   1.363   .     A
C1407  H1443   1.078   .     S
C1407  C1409   1.439   .     A
C1408  H1444   1.079   .     S
C1408  N1445   1.362   .     A
C1408  C1410   1.429   .     A
C1409  N1445   1.373   .     A
C1409  O1455   1.399   .     S
C1410  O1466   1.391   .     S
C1410  N1446   1.371   .     A
C1411  O1453   1.294   .     A
C1411  C1413   1.468   .     S
C1411  O1287   1.297   1_655 S
C1412  C1414   1.466   .     S
C1412  O1454   1.293   .     A
C1413  C1417   1.399   .     A
C1413  C1419   1.400   .     A
C1414  C1418   1.398   .     A
C1414  C1420   1.398   .     A
C1415  C1423   1.404   .     A
C1415  C1417   1.392   .     A
C1415  H1271   1.083   1_655 S
C1416  C1424   1.404   .     A
C1416  H1436   1.083   .     S
C1416  C1418   1.393   .     A
C1417  H1270   1.083   1_655 S
C1419  H1432   1.075   .     S
C1419  C1421   1.405   .     A
C1420  H1431   1.076   .     S
C1420  C1422   1.405   .     A
C1421  C1423   1.418   .     A
C1421  C1425   1.427   .     A
C1422  C1426   1.426   .     A
C1422  C1424   1.418   .     A
C1423  C661    1.391   1_556 S
C1425  C688    1.424   1_556 S
Cu1427 O1450   1.962   .     S
Cu1427 O1447   1.964   .     S
Cu1427 O1454   1.939   .     S
Cu1427 O1451   1.954   .     S
Cu1427 N1445   2.012   .     S
Cu1428 O1449   1.962   .     S
Cu1428 O1448   1.964   .     S
Cu1428 O1453   1.939   .     S
Cu1428 N1446   2.012   .     S
Cu1428 O1452   1.954   .     S
Cu1428 Cu1263  2.677   1_655 S
H1433  C1254   1.083   1_655 S
O1452  C1248   1.297   1_655 S
O1455  C1456   1.414   .     S
C1456  H1458   1.112   .     S
C1456  H1457   1.111   .     S
C1456  C1459   1.536   .     S
C1459  H1461   1.110   .     S
C1459  C1462   1.525   .     S
C1459  H1460   1.112   .     S
C1462  H1463   1.111   .     S
C1462  H1465   1.111   .     S
C1462  H1464   1.111   .     S
O1466  C1467   1.417   .     S
C1467  H1468   1.111   .     S
C1467  H1469   1.116   .     S
C1467  C1470   1.533   .     S
C1470  C1473   1.526   .     S
C1470  H1472   1.110   .     S
C1470  H1471   1.112   .     S
C1473  H1475   1.110   .     S
C1473  H1476   1.111   .     S
C1473  H1474   1.111   .     S
