data_str_m2_o1_o10_pcu_sym.214
_audit_creation_date              2020-01-03
_audit_creation_method            'Materials Studio'
_symmetry_space_group_name_H-M    'P1'
_symmetry_Int_Tables_number       1
_symmetry_cell_setting            triclinic
loop_
_symmetry_equiv_pos_as_xyz
  x,y,z
_cell_length_a                    26.1232
_cell_length_b                    32.3101
_cell_length_c                    28.7756
_cell_angle_alpha                 89.0732
_cell_angle_beta                  97.3164
_cell_angle_gamma                 91.9118
loop_
_atom_site_label
_atom_site_type_symbol
_atom_site_fract_x
_atom_site_fract_y
_atom_site_fract_z
_atom_site_U_iso_or_equiv
_atom_site_adp_type
_atom_site_occupancy
O1     O     0.16666   0.10655   0.20625   0.00000  Uiso   1.00
O2     O     0.16667   0.22678   0.12709   0.00000  Uiso   1.00
O3     O     0.16666   0.10654   0.12706   0.00000  Uiso   1.00
O4     O     0.16667   0.22679   0.20628   0.00000  Uiso   1.00
C5     C     0.16605   0.08756   0.16690   0.00000  Uiso   1.00
C6     C     0.16728   0.24577   0.16644   0.00000  Uiso   1.00
O7     O     0.09161   0.16667   0.19712   0.00000  Uiso   1.00
O8     O     0.24172   0.16666   0.13621   0.00000  Uiso   1.00
O9     O     0.09161   0.16666   0.11793   0.00000  Uiso   1.00
O10    O     0.24172   0.16667   0.21540   0.00000  Uiso   1.00
C11    C     0.06805   0.16644   0.15474   0.00000  Uiso   1.00
C12    C     0.26528   0.16689   0.17859   0.00000  Uiso   1.00
Cu13   Cu    0.16667   0.16667   0.21355   0.00000  Uiso   1.00
Cu14   Cu    0.16667   0.16666   0.11978   0.00000  Uiso   1.00
N15    N     0.16668   0.16668   0.28403   0.00000  Uiso   1.00
N16    N     0.16665   0.16666   0.04931   0.00000  Uiso   1.00
C17    C     0.01282   0.16605   0.14815   0.00000  Uiso   1.00
C18    C     0.32052   0.16728   0.18518   0.00000  Uiso   1.00
H19    H     0.32651   0.16486   0.11253   0.00000  Uiso   1.00
H20    H     0.00682   0.16848   0.22081   0.00000  Uiso   1.00
C21    C     0.12402   0.02058   0.14162   0.00000  Uiso   1.00
C22    C     0.20930   0.31276   0.19172   0.00000  Uiso   1.00
C23    C     0.12565   0.31044   0.14100   0.00000  Uiso   1.00
C24    C     0.20767   0.02290   0.19234   0.00000  Uiso   1.00
C25    C     0.16796   0.29055   0.16592   0.00000  Uiso   1.00
C26    C     0.16536   0.04278   0.16742   0.00000  Uiso   1.00
C27    C     0.13115   0.14352   0.02172   0.00000  Uiso   1.00
C28    C     0.20218   0.18982   0.31162   0.00000  Uiso   1.00
H29    H     0.10336   0.12482   0.03838   0.00000  Uiso   1.00
H30    H     0.22997   0.20851   0.29495   0.00000  Uiso   1.00
C31    C     0.13068   0.14311   0.30558   0.00000  Uiso   1.00
C32    C     0.20266   0.19022   0.02775   0.00000  Uiso   1.00
C33    C     0.07859   0.04337   0.11844   0.00000  Uiso   1.00
H34    H     0.06928   0.07298   0.13195   0.00000  Uiso   1.00
O35    O     0.05178   0.03023   0.08366   0.00000  Uiso   1.00
C36    C     0.25474   0.28997   0.21491   0.00000  Uiso   1.00
H37    H     0.26407   0.26038   0.20137   0.00000  Uiso   1.00
O38    O     0.28150   0.30308   0.24972   0.00000  Uiso   1.00
N39    N     0.08437   0.28572   0.11736   0.00000  Uiso   1.00
H40    H     0.07389   0.29297   0.08256   0.00000  Uiso   1.00
C41    C     0.04157   0.27692   0.14369   0.00000  Uiso   1.00
H42    H     0.02178   0.30580   0.14982   0.00000  Uiso   1.00
H43    H     0.05538   0.26208   0.17789   0.00000  Uiso   1.00
H44    H     0.01334   0.25535   0.12368   0.00000  Uiso   1.00
N45    N     0.24896   0.04761   0.21597   0.00000  Uiso   1.00
H46    H     0.25944   0.04036   0.25078   0.00000  Uiso   1.00
C47    C     0.29176   0.05640   0.18964   0.00000  Uiso   1.00
H48    H     0.31155   0.02752   0.18353   0.00000  Uiso   1.00
H49    H     0.31999   0.07797   0.20964   0.00000  Uiso   1.00
H50    H     0.27795   0.07124   0.15543   0.00000  Uiso   1.00
C51    C     0.09061   0.11614   0.27882   0.00000  Uiso   1.00
H52    H     0.09396   0.10592   0.24408   0.00000  Uiso   1.00
O53    O     0.05230   0.10414   0.29608   0.00000  Uiso   1.00
C54    C     0.24272   0.21720   0.05452   0.00000  Uiso   1.00
H55    H     0.23937   0.22741   0.08926   0.00000  Uiso   1.00
O56    O     0.28103   0.22919   0.03726   0.00000  Uiso   1.00
O57    O     0.50000   0.10655   0.20625   0.00000  Uiso   1.00
O58    O     0.50000   0.22678   0.12709   0.00000  Uiso   1.00
O59    O     0.50000   0.10654   0.12706   0.00000  Uiso   1.00
O60    O     0.50000   0.22679   0.20628   0.00000  Uiso   1.00
C61    C     0.49938   0.08756   0.16690   0.00000  Uiso   1.00
C62    C     0.50062   0.24577   0.16644   0.00000  Uiso   1.00
O63    O     0.42495   0.16667   0.19712   0.00000  Uiso   1.00
O64    O     0.57505   0.16666   0.13621   0.00000  Uiso   1.00
O65    O     0.42494   0.16666   0.11793   0.00000  Uiso   1.00
O66    O     0.57506   0.16667   0.21540   0.00000  Uiso   1.00
C67    C     0.40138   0.16644   0.15474   0.00000  Uiso   1.00
C68    C     0.59862   0.16689   0.17859   0.00000  Uiso   1.00
Cu69   Cu    0.50000   0.16667   0.21355   0.00000  Uiso   1.00
Cu70   Cu    0.50000   0.16666   0.11978   0.00000  Uiso   1.00
N71    N     0.50001   0.16668   0.28403   0.00000  Uiso   1.00
N72    N     0.49999   0.16666   0.04931   0.00000  Uiso   1.00
C73    C     0.34615   0.16605   0.14815   0.00000  Uiso   1.00
C74    C     0.65385   0.16728   0.18518   0.00000  Uiso   1.00
H75    H     0.65984   0.16486   0.11253   0.00000  Uiso   1.00
H76    H     0.34016   0.16848   0.22081   0.00000  Uiso   1.00
C77    C     0.45735   0.02058   0.14162   0.00000  Uiso   1.00
C78    C     0.54264   0.31276   0.19172   0.00000  Uiso   1.00
C79    C     0.45899   0.31044   0.14100   0.00000  Uiso   1.00
C80    C     0.54101   0.02290   0.19234   0.00000  Uiso   1.00
C81    C     0.50130   0.29055   0.16592   0.00000  Uiso   1.00
C82    C     0.49870   0.04278   0.16742   0.00000  Uiso   1.00
C83    C     0.46449   0.14352   0.02172   0.00000  Uiso   1.00
C84    C     0.53551   0.18982   0.31162   0.00000  Uiso   1.00
H85    H     0.43669   0.12482   0.03838   0.00000  Uiso   1.00
H86    H     0.56331   0.20851   0.29495   0.00000  Uiso   1.00
C87    C     0.46401   0.14311   0.30558   0.00000  Uiso   1.00
C88    C     0.53599   0.19022   0.02775   0.00000  Uiso   1.00
C89    C     0.41192   0.04337   0.11844   0.00000  Uiso   1.00
H90    H     0.40261   0.07298   0.13195   0.00000  Uiso   1.00
O91    O     0.38511   0.03023   0.08366   0.00000  Uiso   1.00
C92    C     0.58807   0.28997   0.21491   0.00000  Uiso   1.00
H93    H     0.59740   0.26038   0.20137   0.00000  Uiso   1.00
O94    O     0.61484   0.30308   0.24972   0.00000  Uiso   1.00
N95    N     0.41770   0.28572   0.11736   0.00000  Uiso   1.00
H96    H     0.40722   0.29297   0.08256   0.00000  Uiso   1.00
C97    C     0.37490   0.27692   0.14369   0.00000  Uiso   1.00
H98    H     0.35511   0.30580   0.14982   0.00000  Uiso   1.00
H99    H     0.38872   0.26208   0.17789   0.00000  Uiso   1.00
H100   H     0.34668   0.25535   0.12368   0.00000  Uiso   1.00
N101   N     0.58229   0.04761   0.21597   0.00000  Uiso   1.00
H102   H     0.59278   0.04036   0.25078   0.00000  Uiso   1.00
C103   C     0.62510   0.05640   0.18964   0.00000  Uiso   1.00
H104   H     0.64489   0.02752   0.18353   0.00000  Uiso   1.00
H105   H     0.65332   0.07797   0.20964   0.00000  Uiso   1.00
H106   H     0.61129   0.07124   0.15543   0.00000  Uiso   1.00
C107   C     0.42394   0.11614   0.27882   0.00000  Uiso   1.00
H108   H     0.42729   0.10592   0.24408   0.00000  Uiso   1.00
O109   O     0.38564   0.10414   0.29608   0.00000  Uiso   1.00
C110   C     0.57606   0.21720   0.05452   0.00000  Uiso   1.00
H111   H     0.57271   0.22741   0.08926   0.00000  Uiso   1.00
O112   O     0.61436   0.22919   0.03726   0.00000  Uiso   1.00
O113   O     0.83333   0.10655   0.20625   0.00000  Uiso   1.00
O114   O     0.83334   0.22678   0.12709   0.00000  Uiso   1.00
O115   O     0.83333   0.10654   0.12706   0.00000  Uiso   1.00
O116   O     0.83334   0.22679   0.20628   0.00000  Uiso   1.00
C117   C     0.83271   0.08756   0.16690   0.00000  Uiso   1.00
C118   C     0.83395   0.24577   0.16644   0.00000  Uiso   1.00
O119   O     0.75828   0.16667   0.19712   0.00000  Uiso   1.00
O120   O     0.90839   0.16666   0.13621   0.00000  Uiso   1.00
O121   O     0.75828   0.16666   0.11793   0.00000  Uiso   1.00
O122   O     0.90839   0.16667   0.21540   0.00000  Uiso   1.00
C123   C     0.73472   0.16644   0.15474   0.00000  Uiso   1.00
C124   C     0.93195   0.16689   0.17859   0.00000  Uiso   1.00
Cu125  Cu    0.83333   0.16667   0.21355   0.00000  Uiso   1.00
Cu126  Cu    0.83333   0.16666   0.11978   0.00000  Uiso   1.00
N127   N     0.83335   0.16668   0.28403   0.00000  Uiso   1.00
N128   N     0.83332   0.16666   0.04931   0.00000  Uiso   1.00
C129   C     0.67949   0.16605   0.14815   0.00000  Uiso   1.00
C130   C     0.98718   0.16728   0.18518   0.00000  Uiso   1.00
H131   H     0.99318   0.16486   0.11253   0.00000  Uiso   1.00
H132   H     0.67349   0.16848   0.22081   0.00000  Uiso   1.00
C133   C     0.79069   0.02058   0.14162   0.00000  Uiso   1.00
C134   C     0.87597   0.31276   0.19172   0.00000  Uiso   1.00
C135   C     0.79232   0.31044   0.14100   0.00000  Uiso   1.00
C136   C     0.87434   0.02290   0.19234   0.00000  Uiso   1.00
C137   C     0.83463   0.29055   0.16592   0.00000  Uiso   1.00
C138   C     0.83203   0.04278   0.16742   0.00000  Uiso   1.00
C139   C     0.79782   0.14352   0.02172   0.00000  Uiso   1.00
C140   C     0.86885   0.18982   0.31162   0.00000  Uiso   1.00
H141   H     0.77003   0.12482   0.03838   0.00000  Uiso   1.00
H142   H     0.89664   0.20851   0.29495   0.00000  Uiso   1.00
C143   C     0.79734   0.14311   0.30558   0.00000  Uiso   1.00
C144   C     0.86932   0.19022   0.02775   0.00000  Uiso   1.00
C145   C     0.74525   0.04337   0.11844   0.00000  Uiso   1.00
H146   H     0.73595   0.07298   0.13195   0.00000  Uiso   1.00
O147   O     0.71844   0.03023   0.08366   0.00000  Uiso   1.00
C148   C     0.92140   0.28997   0.21491   0.00000  Uiso   1.00
H149   H     0.93074   0.26038   0.20137   0.00000  Uiso   1.00
O150   O     0.94817   0.30308   0.24972   0.00000  Uiso   1.00
N151   N     0.75104   0.28572   0.11736   0.00000  Uiso   1.00
H152   H     0.74055   0.29297   0.08256   0.00000  Uiso   1.00
C153   C     0.70824   0.27692   0.14369   0.00000  Uiso   1.00
H154   H     0.68845   0.30580   0.14982   0.00000  Uiso   1.00
H155   H     0.72205   0.26208   0.17789   0.00000  Uiso   1.00
H156   H     0.68001   0.25535   0.12368   0.00000  Uiso   1.00
N157   N     0.91563   0.04761   0.21597   0.00000  Uiso   1.00
H158   H     0.92611   0.04036   0.25078   0.00000  Uiso   1.00
C159   C     0.95843   0.05640   0.18964   0.00000  Uiso   1.00
H160   H     0.97822   0.02752   0.18353   0.00000  Uiso   1.00
H161   H     0.98666   0.07797   0.20964   0.00000  Uiso   1.00
H162   H     0.94462   0.07124   0.15543   0.00000  Uiso   1.00
C163   C     0.75728   0.11614   0.27882   0.00000  Uiso   1.00
H164   H     0.76063   0.10592   0.24408   0.00000  Uiso   1.00
O165   O     0.71897   0.10414   0.29608   0.00000  Uiso   1.00
C166   C     0.90939   0.21720   0.05452   0.00000  Uiso   1.00
H167   H     0.90604   0.22741   0.08926   0.00000  Uiso   1.00
O168   O     0.94770   0.22919   0.03726   0.00000  Uiso   1.00
O169   O     0.16666   0.43989   0.20625   0.00000  Uiso   1.00
O170   O     0.16667   0.56011   0.12709   0.00000  Uiso   1.00
O171   O     0.16666   0.43988   0.12706   0.00000  Uiso   1.00
O172   O     0.16667   0.56012   0.20628   0.00000  Uiso   1.00
C173   C     0.16605   0.42090   0.16690   0.00000  Uiso   1.00
C174   C     0.16728   0.57910   0.16644   0.00000  Uiso   1.00
O175   O     0.09161   0.50000   0.19712   0.00000  Uiso   1.00
O176   O     0.24172   0.50000   0.13621   0.00000  Uiso   1.00
O177   O     0.09161   0.49999   0.11793   0.00000  Uiso   1.00
O178   O     0.24172   0.50001   0.21540   0.00000  Uiso   1.00
C179   C     0.06805   0.49977   0.15474   0.00000  Uiso   1.00
C180   C     0.26528   0.50023   0.17859   0.00000  Uiso   1.00
Cu181  Cu    0.16667   0.50001   0.21355   0.00000  Uiso   1.00
Cu182  Cu    0.16667   0.49999   0.11978   0.00000  Uiso   1.00
N183   N     0.16668   0.50001   0.28403   0.00000  Uiso   1.00
N184   N     0.16665   0.49999   0.04931   0.00000  Uiso   1.00
C185   C     0.01282   0.49938   0.14815   0.00000  Uiso   1.00
C186   C     0.32052   0.50062   0.18518   0.00000  Uiso   1.00
H187   H     0.32651   0.49819   0.11253   0.00000  Uiso   1.00
H188   H     0.00682   0.50181   0.22081   0.00000  Uiso   1.00
C189   C     0.12402   0.35391   0.14162   0.00000  Uiso   1.00
C190   C     0.20930   0.64609   0.19172   0.00000  Uiso   1.00
C191   C     0.12565   0.64377   0.14100   0.00000  Uiso   1.00
C192   C     0.20767   0.35623   0.19234   0.00000  Uiso   1.00
C193   C     0.16796   0.62388   0.16592   0.00000  Uiso   1.00
C194   C     0.16536   0.37612   0.16742   0.00000  Uiso   1.00
C195   C     0.13115   0.47685   0.02172   0.00000  Uiso   1.00
C196   C     0.20218   0.52315   0.31162   0.00000  Uiso   1.00
H197   H     0.10336   0.45815   0.03838   0.00000  Uiso   1.00
H198   H     0.22997   0.54185   0.29495   0.00000  Uiso   1.00
C199   C     0.13068   0.47644   0.30558   0.00000  Uiso   1.00
C200   C     0.20266   0.52356   0.02775   0.00000  Uiso   1.00
C201   C     0.07859   0.37670   0.11844   0.00000  Uiso   1.00
H202   H     0.06928   0.40631   0.13195   0.00000  Uiso   1.00
O203   O     0.05178   0.36357   0.08366   0.00000  Uiso   1.00
C204   C     0.25474   0.62330   0.21491   0.00000  Uiso   1.00
H205   H     0.26407   0.59371   0.20137   0.00000  Uiso   1.00
O206   O     0.28150   0.63641   0.24972   0.00000  Uiso   1.00
N207   N     0.08437   0.61905   0.11736   0.00000  Uiso   1.00
H208   H     0.07389   0.62630   0.08256   0.00000  Uiso   1.00
C209   C     0.04157   0.61026   0.14369   0.00000  Uiso   1.00
H210   H     0.02178   0.63914   0.14982   0.00000  Uiso   1.00
H211   H     0.05538   0.59541   0.17789   0.00000  Uiso   1.00
H212   H     0.01334   0.58869   0.12368   0.00000  Uiso   1.00
N213   N     0.24896   0.38094   0.21597   0.00000  Uiso   1.00
H214   H     0.25944   0.37369   0.25078   0.00000  Uiso   1.00
C215   C     0.29176   0.38973   0.18964   0.00000  Uiso   1.00
H216   H     0.31155   0.36085   0.18353   0.00000  Uiso   1.00
H217   H     0.31999   0.41130   0.20964   0.00000  Uiso   1.00
H218   H     0.27795   0.40457   0.15543   0.00000  Uiso   1.00
C219   C     0.09061   0.44947   0.27882   0.00000  Uiso   1.00
H220   H     0.09396   0.43926   0.24408   0.00000  Uiso   1.00
O221   O     0.05230   0.43748   0.29608   0.00000  Uiso   1.00
C222   C     0.24272   0.55053   0.05452   0.00000  Uiso   1.00
H223   H     0.23937   0.56074   0.08926   0.00000  Uiso   1.00
O224   O     0.28103   0.56252   0.03726   0.00000  Uiso   1.00
O225   O     0.50000   0.43989   0.20625   0.00000  Uiso   1.00
O226   O     0.50000   0.56011   0.12709   0.00000  Uiso   1.00
O227   O     0.50000   0.43988   0.12706   0.00000  Uiso   1.00
O228   O     0.50000   0.56012   0.20628   0.00000  Uiso   1.00
C229   C     0.49938   0.42090   0.16690   0.00000  Uiso   1.00
C230   C     0.50062   0.57910   0.16644   0.00000  Uiso   1.00
O231   O     0.42495   0.50000   0.19712   0.00000  Uiso   1.00
O232   O     0.57505   0.50000   0.13621   0.00000  Uiso   1.00
O233   O     0.42494   0.49999   0.11793   0.00000  Uiso   1.00
O234   O     0.57506   0.50001   0.21540   0.00000  Uiso   1.00
C235   C     0.40138   0.49977   0.15474   0.00000  Uiso   1.00
C236   C     0.59862   0.50023   0.17859   0.00000  Uiso   1.00
Cu237  Cu    0.50000   0.50001   0.21355   0.00000  Uiso   1.00
Cu238  Cu    0.50000   0.49999   0.11978   0.00000  Uiso   1.00
N239   N     0.50001   0.50001   0.28403   0.00000  Uiso   1.00
N240   N     0.49999   0.49999   0.04931   0.00000  Uiso   1.00
C241   C     0.34615   0.49938   0.14815   0.00000  Uiso   1.00
C242   C     0.65385   0.50062   0.18518   0.00000  Uiso   1.00
H243   H     0.65984   0.49819   0.11253   0.00000  Uiso   1.00
H244   H     0.34016   0.50181   0.22081   0.00000  Uiso   1.00
C245   C     0.45735   0.35391   0.14162   0.00000  Uiso   1.00
C246   C     0.54264   0.64609   0.19172   0.00000  Uiso   1.00
C247   C     0.45899   0.64377   0.14100   0.00000  Uiso   1.00
C248   C     0.54101   0.35623   0.19234   0.00000  Uiso   1.00
C249   C     0.50130   0.62388   0.16592   0.00000  Uiso   1.00
C250   C     0.49870   0.37612   0.16742   0.00000  Uiso   1.00
C251   C     0.46449   0.47685   0.02172   0.00000  Uiso   1.00
C252   C     0.53551   0.52315   0.31162   0.00000  Uiso   1.00
H253   H     0.43669   0.45815   0.03838   0.00000  Uiso   1.00
H254   H     0.56331   0.54185   0.29495   0.00000  Uiso   1.00
C255   C     0.46401   0.47644   0.30558   0.00000  Uiso   1.00
C256   C     0.53599   0.52356   0.02775   0.00000  Uiso   1.00
C257   C     0.41192   0.37670   0.11844   0.00000  Uiso   1.00
H258   H     0.40261   0.40631   0.13195   0.00000  Uiso   1.00
O259   O     0.38511   0.36357   0.08366   0.00000  Uiso   1.00
C260   C     0.58807   0.62330   0.21491   0.00000  Uiso   1.00
H261   H     0.59740   0.59371   0.20137   0.00000  Uiso   1.00
O262   O     0.61484   0.63641   0.24972   0.00000  Uiso   1.00
N263   N     0.41770   0.61905   0.11736   0.00000  Uiso   1.00
H264   H     0.40722   0.62630   0.08256   0.00000  Uiso   1.00
C265   C     0.37490   0.61026   0.14369   0.00000  Uiso   1.00
H266   H     0.35511   0.63914   0.14982   0.00000  Uiso   1.00
H267   H     0.38872   0.59541   0.17789   0.00000  Uiso   1.00
H268   H     0.34668   0.58869   0.12368   0.00000  Uiso   1.00
N269   N     0.58229   0.38094   0.21597   0.00000  Uiso   1.00
H270   H     0.59278   0.37369   0.25078   0.00000  Uiso   1.00
C271   C     0.62510   0.38973   0.18964   0.00000  Uiso   1.00
H272   H     0.64489   0.36085   0.18353   0.00000  Uiso   1.00
H273   H     0.65332   0.41130   0.20964   0.00000  Uiso   1.00
H274   H     0.61129   0.40457   0.15543   0.00000  Uiso   1.00
C275   C     0.42394   0.44947   0.27882   0.00000  Uiso   1.00
H276   H     0.42729   0.43926   0.24408   0.00000  Uiso   1.00
O277   O     0.38564   0.43748   0.29608   0.00000  Uiso   1.00
C278   C     0.57606   0.55053   0.05452   0.00000  Uiso   1.00
H279   H     0.57271   0.56074   0.08926   0.00000  Uiso   1.00
O280   O     0.61436   0.56252   0.03726   0.00000  Uiso   1.00
O281   O     0.83333   0.43989   0.20625   0.00000  Uiso   1.00
O282   O     0.83334   0.56011   0.12709   0.00000  Uiso   1.00
O283   O     0.83333   0.43988   0.12706   0.00000  Uiso   1.00
O284   O     0.83334   0.56012   0.20628   0.00000  Uiso   1.00
C285   C     0.83271   0.42090   0.16690   0.00000  Uiso   1.00
C286   C     0.83395   0.57910   0.16644   0.00000  Uiso   1.00
O287   O     0.75828   0.50000   0.19712   0.00000  Uiso   1.00
O288   O     0.90839   0.50000   0.13621   0.00000  Uiso   1.00
O289   O     0.75828   0.49999   0.11793   0.00000  Uiso   1.00
O290   O     0.90839   0.50001   0.21540   0.00000  Uiso   1.00
C291   C     0.73472   0.49977   0.15474   0.00000  Uiso   1.00
C292   C     0.93195   0.50023   0.17859   0.00000  Uiso   1.00
Cu293  Cu    0.83333   0.50001   0.21355   0.00000  Uiso   1.00
Cu294  Cu    0.83333   0.49999   0.11978   0.00000  Uiso   1.00
N295   N     0.83335   0.50001   0.28403   0.00000  Uiso   1.00
N296   N     0.83332   0.49999   0.04931   0.00000  Uiso   1.00
C297   C     0.67949   0.49938   0.14815   0.00000  Uiso   1.00
C298   C     0.98718   0.50062   0.18518   0.00000  Uiso   1.00
H299   H     0.99318   0.49819   0.11253   0.00000  Uiso   1.00
H300   H     0.67349   0.50181   0.22081   0.00000  Uiso   1.00
C301   C     0.79069   0.35391   0.14162   0.00000  Uiso   1.00
C302   C     0.87597   0.64609   0.19172   0.00000  Uiso   1.00
C303   C     0.79232   0.64377   0.14100   0.00000  Uiso   1.00
C304   C     0.87434   0.35623   0.19234   0.00000  Uiso   1.00
C305   C     0.83463   0.62388   0.16592   0.00000  Uiso   1.00
C306   C     0.83203   0.37612   0.16742   0.00000  Uiso   1.00
C307   C     0.79782   0.47685   0.02172   0.00000  Uiso   1.00
C308   C     0.86885   0.52315   0.31162   0.00000  Uiso   1.00
H309   H     0.77003   0.45815   0.03838   0.00000  Uiso   1.00
H310   H     0.89664   0.54185   0.29495   0.00000  Uiso   1.00
C311   C     0.79734   0.47644   0.30558   0.00000  Uiso   1.00
C312   C     0.86932   0.52356   0.02775   0.00000  Uiso   1.00
C313   C     0.74525   0.37670   0.11844   0.00000  Uiso   1.00
H314   H     0.73595   0.40631   0.13195   0.00000  Uiso   1.00
O315   O     0.71844   0.36357   0.08366   0.00000  Uiso   1.00
C316   C     0.92140   0.62330   0.21491   0.00000  Uiso   1.00
H317   H     0.93074   0.59371   0.20137   0.00000  Uiso   1.00
O318   O     0.94817   0.63641   0.24972   0.00000  Uiso   1.00
N319   N     0.75104   0.61905   0.11736   0.00000  Uiso   1.00
H320   H     0.74055   0.62630   0.08256   0.00000  Uiso   1.00
C321   C     0.70824   0.61026   0.14369   0.00000  Uiso   1.00
H322   H     0.68845   0.63914   0.14982   0.00000  Uiso   1.00
H323   H     0.72205   0.59541   0.17789   0.00000  Uiso   1.00
H324   H     0.68001   0.58869   0.12368   0.00000  Uiso   1.00
N325   N     0.91563   0.38094   0.21597   0.00000  Uiso   1.00
H326   H     0.92611   0.37369   0.25078   0.00000  Uiso   1.00
C327   C     0.95843   0.38973   0.18964   0.00000  Uiso   1.00
H328   H     0.97822   0.36085   0.18353   0.00000  Uiso   1.00
H329   H     0.98666   0.41130   0.20964   0.00000  Uiso   1.00
H330   H     0.94462   0.40457   0.15543   0.00000  Uiso   1.00
C331   C     0.75728   0.44947   0.27882   0.00000  Uiso   1.00
H332   H     0.76063   0.43926   0.24408   0.00000  Uiso   1.00
O333   O     0.71897   0.43748   0.29608   0.00000  Uiso   1.00
C334   C     0.90939   0.55053   0.05452   0.00000  Uiso   1.00
H335   H     0.90604   0.56074   0.08926   0.00000  Uiso   1.00
O336   O     0.94770   0.56252   0.03726   0.00000  Uiso   1.00
O337   O     0.16666   0.77322   0.20625   0.00000  Uiso   1.00
O338   O     0.16667   0.89345   0.12709   0.00000  Uiso   1.00
O339   O     0.16666   0.77321   0.12706   0.00000  Uiso   1.00
O340   O     0.16667   0.89346   0.20628   0.00000  Uiso   1.00
C341   C     0.16605   0.75423   0.16690   0.00000  Uiso   1.00
C342   C     0.16728   0.91244   0.16644   0.00000  Uiso   1.00
O343   O     0.09161   0.83334   0.19712   0.00000  Uiso   1.00
O344   O     0.24172   0.83333   0.13621   0.00000  Uiso   1.00
O345   O     0.09161   0.83333   0.11793   0.00000  Uiso   1.00
O346   O     0.24172   0.83334   0.21540   0.00000  Uiso   1.00
C347   C     0.06805   0.83310   0.15474   0.00000  Uiso   1.00
C348   C     0.26528   0.83356   0.17859   0.00000  Uiso   1.00
Cu349  Cu    0.16667   0.83334   0.21355   0.00000  Uiso   1.00
Cu350  Cu    0.16667   0.83333   0.11978   0.00000  Uiso   1.00
N351   N     0.16668   0.83334   0.28403   0.00000  Uiso   1.00
N352   N     0.16665   0.83332   0.04931   0.00000  Uiso   1.00
C353   C     0.01282   0.83271   0.14815   0.00000  Uiso   1.00
C354   C     0.32052   0.83395   0.18518   0.00000  Uiso   1.00
H355   H     0.32651   0.83152   0.11253   0.00000  Uiso   1.00
H356   H     0.00682   0.83514   0.22081   0.00000  Uiso   1.00
C357   C     0.12402   0.68724   0.14162   0.00000  Uiso   1.00
C358   C     0.20930   0.97942   0.19172   0.00000  Uiso   1.00
C359   C     0.12565   0.97710   0.14100   0.00000  Uiso   1.00
C360   C     0.20767   0.68956   0.19234   0.00000  Uiso   1.00
C361   C     0.16796   0.95722   0.16592   0.00000  Uiso   1.00
C362   C     0.16536   0.70945   0.16742   0.00000  Uiso   1.00
C363   C     0.13115   0.81018   0.02172   0.00000  Uiso   1.00
C364   C     0.20218   0.85648   0.31162   0.00000  Uiso   1.00
H365   H     0.10336   0.79149   0.03838   0.00000  Uiso   1.00
H366   H     0.22997   0.87518   0.29495   0.00000  Uiso   1.00
C367   C     0.13068   0.80978   0.30558   0.00000  Uiso   1.00
C368   C     0.20266   0.85689   0.02775   0.00000  Uiso   1.00
C369   C     0.07859   0.71003   0.11844   0.00000  Uiso   1.00
H370   H     0.06928   0.73964   0.13195   0.00000  Uiso   1.00
O371   O     0.05178   0.69690   0.08366   0.00000  Uiso   1.00
C372   C     0.25474   0.95664   0.21491   0.00000  Uiso   1.00
H373   H     0.26407   0.92704   0.20137   0.00000  Uiso   1.00
O374   O     0.28150   0.96975   0.24972   0.00000  Uiso   1.00
N375   N     0.08437   0.95239   0.11736   0.00000  Uiso   1.00
H376   H     0.07389   0.95964   0.08256   0.00000  Uiso   1.00
C377   C     0.04157   0.94359   0.14369   0.00000  Uiso   1.00
H378   H     0.02178   0.97247   0.14982   0.00000  Uiso   1.00
H379   H     0.05538   0.92874   0.17789   0.00000  Uiso   1.00
H380   H     0.01334   0.92202   0.12368   0.00000  Uiso   1.00
N381   N     0.24896   0.71428   0.21597   0.00000  Uiso   1.00
H382   H     0.25944   0.70703   0.25078   0.00000  Uiso   1.00
C383   C     0.29176   0.72307   0.18964   0.00000  Uiso   1.00
H384   H     0.31155   0.69418   0.18353   0.00000  Uiso   1.00
H385   H     0.31999   0.74464   0.20964   0.00000  Uiso   1.00
H386   H     0.27795   0.73791   0.15543   0.00000  Uiso   1.00
C387   C     0.09061   0.78280   0.27882   0.00000  Uiso   1.00
H388   H     0.09396   0.77259   0.24408   0.00000  Uiso   1.00
O389   O     0.05230   0.77081   0.29608   0.00000  Uiso   1.00
C390   C     0.24272   0.88386   0.05452   0.00000  Uiso   1.00
H391   H     0.23937   0.89408   0.08926   0.00000  Uiso   1.00
O392   O     0.28103   0.89586   0.03726   0.00000  Uiso   1.00
O393   O     0.50000   0.77322   0.20625   0.00000  Uiso   1.00
O394   O     0.50000   0.89345   0.12709   0.00000  Uiso   1.00
O395   O     0.50000   0.77321   0.12706   0.00000  Uiso   1.00
O396   O     0.50000   0.89346   0.20628   0.00000  Uiso   1.00
C397   C     0.49938   0.75423   0.16690   0.00000  Uiso   1.00
C398   C     0.50062   0.91244   0.16644   0.00000  Uiso   1.00
O399   O     0.42495   0.83334   0.19712   0.00000  Uiso   1.00
O400   O     0.57505   0.83333   0.13621   0.00000  Uiso   1.00
O401   O     0.42494   0.83333   0.11793   0.00000  Uiso   1.00
O402   O     0.57506   0.83334   0.21540   0.00000  Uiso   1.00
C403   C     0.40138   0.83310   0.15474   0.00000  Uiso   1.00
C404   C     0.59862   0.83356   0.17859   0.00000  Uiso   1.00
Cu405  Cu    0.50000   0.83334   0.21355   0.00000  Uiso   1.00
Cu406  Cu    0.50000   0.83333   0.11978   0.00000  Uiso   1.00
N407   N     0.50001   0.83334   0.28403   0.00000  Uiso   1.00
N408   N     0.49999   0.83332   0.04931   0.00000  Uiso   1.00
C409   C     0.34615   0.83271   0.14815   0.00000  Uiso   1.00
C410   C     0.65385   0.83395   0.18518   0.00000  Uiso   1.00
H411   H     0.65984   0.83152   0.11253   0.00000  Uiso   1.00
H412   H     0.34016   0.83514   0.22081   0.00000  Uiso   1.00
C413   C     0.45735   0.68724   0.14162   0.00000  Uiso   1.00
C414   C     0.54264   0.97942   0.19172   0.00000  Uiso   1.00
C415   C     0.45899   0.97710   0.14100   0.00000  Uiso   1.00
C416   C     0.54101   0.68956   0.19234   0.00000  Uiso   1.00
C417   C     0.50130   0.95722   0.16592   0.00000  Uiso   1.00
C418   C     0.49870   0.70945   0.16742   0.00000  Uiso   1.00
C419   C     0.46449   0.81018   0.02172   0.00000  Uiso   1.00
C420   C     0.53551   0.85648   0.31162   0.00000  Uiso   1.00
H421   H     0.43669   0.79149   0.03838   0.00000  Uiso   1.00
H422   H     0.56331   0.87518   0.29495   0.00000  Uiso   1.00
C423   C     0.46401   0.80978   0.30558   0.00000  Uiso   1.00
C424   C     0.53599   0.85689   0.02775   0.00000  Uiso   1.00
C425   C     0.41192   0.71003   0.11844   0.00000  Uiso   1.00
H426   H     0.40261   0.73964   0.13195   0.00000  Uiso   1.00
O427   O     0.38511   0.69690   0.08366   0.00000  Uiso   1.00
C428   C     0.58807   0.95664   0.21491   0.00000  Uiso   1.00
H429   H     0.59740   0.92704   0.20137   0.00000  Uiso   1.00
O430   O     0.61484   0.96975   0.24972   0.00000  Uiso   1.00
N431   N     0.41770   0.95239   0.11736   0.00000  Uiso   1.00
H432   H     0.40722   0.95964   0.08256   0.00000  Uiso   1.00
C433   C     0.37490   0.94359   0.14369   0.00000  Uiso   1.00
H434   H     0.35511   0.97247   0.14982   0.00000  Uiso   1.00
H435   H     0.38872   0.92874   0.17789   0.00000  Uiso   1.00
H436   H     0.34668   0.92202   0.12368   0.00000  Uiso   1.00
N437   N     0.58229   0.71428   0.21597   0.00000  Uiso   1.00
H438   H     0.59278   0.70703   0.25078   0.00000  Uiso   1.00
C439   C     0.62510   0.72307   0.18964   0.00000  Uiso   1.00
H440   H     0.64489   0.69418   0.18353   0.00000  Uiso   1.00
H441   H     0.65332   0.74464   0.20964   0.00000  Uiso   1.00
H442   H     0.61129   0.73791   0.15543   0.00000  Uiso   1.00
C443   C     0.42394   0.78280   0.27882   0.00000  Uiso   1.00
H444   H     0.42729   0.77259   0.24408   0.00000  Uiso   1.00
O445   O     0.38564   0.77081   0.29608   0.00000  Uiso   1.00
C446   C     0.57606   0.88386   0.05452   0.00000  Uiso   1.00
H447   H     0.57271   0.89408   0.08926   0.00000  Uiso   1.00
O448   O     0.61436   0.89586   0.03726   0.00000  Uiso   1.00
O449   O     0.83333   0.77322   0.20625   0.00000  Uiso   1.00
O450   O     0.83334   0.89345   0.12709   0.00000  Uiso   1.00
O451   O     0.83333   0.77321   0.12706   0.00000  Uiso   1.00
O452   O     0.83334   0.89346   0.20628   0.00000  Uiso   1.00
C453   C     0.83271   0.75423   0.16690   0.00000  Uiso   1.00
C454   C     0.83395   0.91244   0.16644   0.00000  Uiso   1.00
O455   O     0.75828   0.83334   0.19712   0.00000  Uiso   1.00
O456   O     0.90839   0.83333   0.13621   0.00000  Uiso   1.00
O457   O     0.75828   0.83333   0.11793   0.00000  Uiso   1.00
O458   O     0.90839   0.83334   0.21540   0.00000  Uiso   1.00
C459   C     0.73472   0.83310   0.15474   0.00000  Uiso   1.00
C460   C     0.93195   0.83356   0.17859   0.00000  Uiso   1.00
Cu461  Cu    0.83333   0.83334   0.21355   0.00000  Uiso   1.00
Cu462  Cu    0.83333   0.83333   0.11978   0.00000  Uiso   1.00
N463   N     0.83335   0.83334   0.28403   0.00000  Uiso   1.00
N464   N     0.83332   0.83332   0.04931   0.00000  Uiso   1.00
C465   C     0.67949   0.83271   0.14815   0.00000  Uiso   1.00
C466   C     0.98718   0.83395   0.18518   0.00000  Uiso   1.00
H467   H     0.99318   0.83152   0.11253   0.00000  Uiso   1.00
H468   H     0.67349   0.83514   0.22081   0.00000  Uiso   1.00
C469   C     0.79069   0.68724   0.14162   0.00000  Uiso   1.00
C470   C     0.87597   0.97942   0.19172   0.00000  Uiso   1.00
C471   C     0.79232   0.97710   0.14100   0.00000  Uiso   1.00
C472   C     0.87434   0.68956   0.19234   0.00000  Uiso   1.00
C473   C     0.83463   0.95722   0.16592   0.00000  Uiso   1.00
C474   C     0.83203   0.70945   0.16742   0.00000  Uiso   1.00
C475   C     0.79782   0.81018   0.02172   0.00000  Uiso   1.00
C476   C     0.86885   0.85648   0.31162   0.00000  Uiso   1.00
H477   H     0.77003   0.79149   0.03838   0.00000  Uiso   1.00
H478   H     0.89664   0.87518   0.29495   0.00000  Uiso   1.00
C479   C     0.79734   0.80978   0.30558   0.00000  Uiso   1.00
C480   C     0.86932   0.85689   0.02775   0.00000  Uiso   1.00
C481   C     0.74525   0.71003   0.11844   0.00000  Uiso   1.00
H482   H     0.73595   0.73964   0.13195   0.00000  Uiso   1.00
O483   O     0.71844   0.69690   0.08366   0.00000  Uiso   1.00
C484   C     0.92140   0.95664   0.21491   0.00000  Uiso   1.00
H485   H     0.93074   0.92704   0.20137   0.00000  Uiso   1.00
O486   O     0.94817   0.96975   0.24972   0.00000  Uiso   1.00
N487   N     0.75104   0.95239   0.11736   0.00000  Uiso   1.00
H488   H     0.74055   0.95964   0.08256   0.00000  Uiso   1.00
C489   C     0.70824   0.94359   0.14369   0.00000  Uiso   1.00
H490   H     0.68845   0.97247   0.14982   0.00000  Uiso   1.00
H491   H     0.72205   0.92874   0.17789   0.00000  Uiso   1.00
H492   H     0.68001   0.92202   0.12368   0.00000  Uiso   1.00
N493   N     0.91563   0.71428   0.21597   0.00000  Uiso   1.00
H494   H     0.92611   0.70703   0.25078   0.00000  Uiso   1.00
C495   C     0.95843   0.72307   0.18964   0.00000  Uiso   1.00
H496   H     0.97822   0.69418   0.18353   0.00000  Uiso   1.00
H497   H     0.98666   0.74464   0.20964   0.00000  Uiso   1.00
H498   H     0.94462   0.73791   0.15543   0.00000  Uiso   1.00
C499   C     0.75728   0.78280   0.27882   0.00000  Uiso   1.00
H500   H     0.76063   0.77259   0.24408   0.00000  Uiso   1.00
O501   O     0.71897   0.77081   0.29608   0.00000  Uiso   1.00
C502   C     0.90939   0.88386   0.05452   0.00000  Uiso   1.00
H503   H     0.90604   0.89408   0.08926   0.00000  Uiso   1.00
O504   O     0.94770   0.89586   0.03726   0.00000  Uiso   1.00
O505   O     0.16666   0.10655   0.53958   0.00000  Uiso   1.00
O506   O     0.16667   0.22678   0.46042   0.00000  Uiso   1.00
O507   O     0.16666   0.10654   0.46039   0.00000  Uiso   1.00
O508   O     0.16667   0.22679   0.53961   0.00000  Uiso   1.00
C509   C     0.16605   0.08756   0.50023   0.00000  Uiso   1.00
C510   C     0.16728   0.24577   0.49977   0.00000  Uiso   1.00
O511   O     0.09161   0.16667   0.53046   0.00000  Uiso   1.00
O512   O     0.24172   0.16666   0.46954   0.00000  Uiso   1.00
O513   O     0.09161   0.16666   0.45127   0.00000  Uiso   1.00
O514   O     0.24172   0.16667   0.54873   0.00000  Uiso   1.00
C515   C     0.06805   0.16644   0.48808   0.00000  Uiso   1.00
C516   C     0.26528   0.16689   0.51192   0.00000  Uiso   1.00
Cu517  Cu    0.16667   0.16667   0.54689   0.00000  Uiso   1.00
Cu518  Cu    0.16667   0.16666   0.45311   0.00000  Uiso   1.00
N519   N     0.16668   0.16668   0.61736   0.00000  Uiso   1.00
N520   N     0.16665   0.16666   0.38264   0.00000  Uiso   1.00
C521   C     0.01282   0.16605   0.48149   0.00000  Uiso   1.00
C522   C     0.32052   0.16728   0.51851   0.00000  Uiso   1.00
H523   H     0.32651   0.16486   0.44586   0.00000  Uiso   1.00
H524   H     0.00682   0.16848   0.55414   0.00000  Uiso   1.00
C525   C     0.12402   0.02058   0.47496   0.00000  Uiso   1.00
C526   C     0.20930   0.31276   0.52505   0.00000  Uiso   1.00
C527   C     0.12565   0.31044   0.47433   0.00000  Uiso   1.00
C528   C     0.20767   0.02290   0.52567   0.00000  Uiso   1.00
C529   C     0.16796   0.29055   0.49925   0.00000  Uiso   1.00
C530   C     0.16536   0.04278   0.50075   0.00000  Uiso   1.00
C531   C     0.13115   0.14352   0.35505   0.00000  Uiso   1.00
C532   C     0.20218   0.18982   0.64495   0.00000  Uiso   1.00
H533   H     0.10336   0.12482   0.37171   0.00000  Uiso   1.00
H534   H     0.22997   0.20851   0.62829   0.00000  Uiso   1.00
C535   C     0.13068   0.14311   0.63891   0.00000  Uiso   1.00
C536   C     0.20266   0.19022   0.36109   0.00000  Uiso   1.00
C537   C     0.07859   0.04337   0.45177   0.00000  Uiso   1.00
H538   H     0.06928   0.07298   0.46529   0.00000  Uiso   1.00
O539   O     0.05178   0.03023   0.41699   0.00000  Uiso   1.00
C540   C     0.25474   0.28997   0.54824   0.00000  Uiso   1.00
H541   H     0.26407   0.26038   0.53470   0.00000  Uiso   1.00
O542   O     0.28150   0.30308   0.58305   0.00000  Uiso   1.00
N543   N     0.08437   0.28572   0.45069   0.00000  Uiso   1.00
H544   H     0.07389   0.29297   0.41589   0.00000  Uiso   1.00
C545   C     0.04157   0.27692   0.47703   0.00000  Uiso   1.00
H546   H     0.02178   0.30580   0.48315   0.00000  Uiso   1.00
H547   H     0.05538   0.26208   0.51123   0.00000  Uiso   1.00
H548   H     0.01334   0.25535   0.45702   0.00000  Uiso   1.00
N549   N     0.24896   0.04761   0.54930   0.00000  Uiso   1.00
H550   H     0.25944   0.04036   0.58411   0.00000  Uiso   1.00
C551   C     0.29176   0.05640   0.52297   0.00000  Uiso   1.00
H552   H     0.31155   0.02752   0.51686   0.00000  Uiso   1.00
H553   H     0.31999   0.07797   0.54298   0.00000  Uiso   1.00
H554   H     0.27795   0.07124   0.48877   0.00000  Uiso   1.00
C555   C     0.09061   0.11614   0.61215   0.00000  Uiso   1.00
H556   H     0.09396   0.10592   0.57741   0.00000  Uiso   1.00
O557   O     0.05230   0.10414   0.62941   0.00000  Uiso   1.00
C558   C     0.24272   0.21720   0.38785   0.00000  Uiso   1.00
H559   H     0.23937   0.22741   0.42259   0.00000  Uiso   1.00
O560   O     0.28103   0.22919   0.37059   0.00000  Uiso   1.00
O561   O     0.50000   0.10655   0.53958   0.00000  Uiso   1.00
O562   O     0.50000   0.22678   0.46042   0.00000  Uiso   1.00
O563   O     0.50000   0.10654   0.46039   0.00000  Uiso   1.00
O564   O     0.50000   0.22679   0.53961   0.00000  Uiso   1.00
C565   C     0.49938   0.08756   0.50023   0.00000  Uiso   1.00
C566   C     0.50062   0.24577   0.49977   0.00000  Uiso   1.00
O567   O     0.42495   0.16667   0.53046   0.00000  Uiso   1.00
O568   O     0.57505   0.16666   0.46954   0.00000  Uiso   1.00
O569   O     0.42494   0.16666   0.45127   0.00000  Uiso   1.00
O570   O     0.57506   0.16667   0.54873   0.00000  Uiso   1.00
C571   C     0.40138   0.16644   0.48808   0.00000  Uiso   1.00
C572   C     0.59862   0.16689   0.51192   0.00000  Uiso   1.00
Cu573  Cu    0.50000   0.16667   0.54689   0.00000  Uiso   1.00
Cu574  Cu    0.50000   0.16666   0.45311   0.00000  Uiso   1.00
N575   N     0.50001   0.16668   0.61736   0.00000  Uiso   1.00
N576   N     0.49999   0.16666   0.38264   0.00000  Uiso   1.00
C577   C     0.34615   0.16605   0.48149   0.00000  Uiso   1.00
C578   C     0.65385   0.16728   0.51851   0.00000  Uiso   1.00
H579   H     0.65984   0.16486   0.44586   0.00000  Uiso   1.00
H580   H     0.34016   0.16848   0.55414   0.00000  Uiso   1.00
C581   C     0.45735   0.02058   0.47496   0.00000  Uiso   1.00
C582   C     0.54264   0.31276   0.52505   0.00000  Uiso   1.00
C583   C     0.45899   0.31044   0.47433   0.00000  Uiso   1.00
C584   C     0.54101   0.02290   0.52567   0.00000  Uiso   1.00
C585   C     0.50130   0.29055   0.49925   0.00000  Uiso   1.00
C586   C     0.49870   0.04278   0.50075   0.00000  Uiso   1.00
C587   C     0.46449   0.14352   0.35505   0.00000  Uiso   1.00
C588   C     0.53551   0.18982   0.64495   0.00000  Uiso   1.00
H589   H     0.43669   0.12482   0.37171   0.00000  Uiso   1.00
H590   H     0.56331   0.20851   0.62829   0.00000  Uiso   1.00
C591   C     0.46401   0.14311   0.63891   0.00000  Uiso   1.00
C592   C     0.53599   0.19022   0.36109   0.00000  Uiso   1.00
C593   C     0.41192   0.04337   0.45177   0.00000  Uiso   1.00
H594   H     0.40261   0.07298   0.46529   0.00000  Uiso   1.00
O595   O     0.38511   0.03023   0.41699   0.00000  Uiso   1.00
C596   C     0.58807   0.28997   0.54824   0.00000  Uiso   1.00
H597   H     0.59740   0.26038   0.53470   0.00000  Uiso   1.00
O598   O     0.61484   0.30308   0.58305   0.00000  Uiso   1.00
N599   N     0.41770   0.28572   0.45069   0.00000  Uiso   1.00
H600   H     0.40722   0.29297   0.41589   0.00000  Uiso   1.00
C601   C     0.37490   0.27692   0.47703   0.00000  Uiso   1.00
H602   H     0.35511   0.30580   0.48315   0.00000  Uiso   1.00
H603   H     0.38872   0.26208   0.51123   0.00000  Uiso   1.00
H604   H     0.34668   0.25535   0.45702   0.00000  Uiso   1.00
N605   N     0.58229   0.04761   0.54930   0.00000  Uiso   1.00
H606   H     0.59278   0.04036   0.58411   0.00000  Uiso   1.00
C607   C     0.62510   0.05640   0.52297   0.00000  Uiso   1.00
H608   H     0.64489   0.02752   0.51686   0.00000  Uiso   1.00
H609   H     0.65332   0.07797   0.54298   0.00000  Uiso   1.00
H610   H     0.61129   0.07124   0.48877   0.00000  Uiso   1.00
C611   C     0.42394   0.11614   0.61215   0.00000  Uiso   1.00
H612   H     0.42729   0.10592   0.57741   0.00000  Uiso   1.00
O613   O     0.38564   0.10414   0.62941   0.00000  Uiso   1.00
C614   C     0.57606   0.21720   0.38785   0.00000  Uiso   1.00
H615   H     0.57271   0.22741   0.42259   0.00000  Uiso   1.00
O616   O     0.61436   0.22919   0.37059   0.00000  Uiso   1.00
O617   O     0.83333   0.10655   0.53958   0.00000  Uiso   1.00
O618   O     0.83334   0.22678   0.46042   0.00000  Uiso   1.00
O619   O     0.83333   0.10654   0.46039   0.00000  Uiso   1.00
O620   O     0.83334   0.22679   0.53961   0.00000  Uiso   1.00
C621   C     0.83271   0.08756   0.50023   0.00000  Uiso   1.00
C622   C     0.83395   0.24577   0.49977   0.00000  Uiso   1.00
O623   O     0.75828   0.16667   0.53046   0.00000  Uiso   1.00
O624   O     0.90839   0.16666   0.46954   0.00000  Uiso   1.00
O625   O     0.75828   0.16666   0.45127   0.00000  Uiso   1.00
O626   O     0.90839   0.16667   0.54873   0.00000  Uiso   1.00
C627   C     0.73472   0.16644   0.48808   0.00000  Uiso   1.00
C628   C     0.93195   0.16689   0.51192   0.00000  Uiso   1.00
Cu629  Cu    0.83333   0.16667   0.54689   0.00000  Uiso   1.00
Cu630  Cu    0.83333   0.16666   0.45311   0.00000  Uiso   1.00
N631   N     0.83335   0.16668   0.61736   0.00000  Uiso   1.00
N632   N     0.83332   0.16666   0.38264   0.00000  Uiso   1.00
C633   C     0.67949   0.16605   0.48149   0.00000  Uiso   1.00
C634   C     0.98718   0.16728   0.51851   0.00000  Uiso   1.00
H635   H     0.99318   0.16486   0.44586   0.00000  Uiso   1.00
H636   H     0.67349   0.16848   0.55414   0.00000  Uiso   1.00
C637   C     0.79069   0.02058   0.47496   0.00000  Uiso   1.00
C638   C     0.87597   0.31276   0.52505   0.00000  Uiso   1.00
C639   C     0.79232   0.31044   0.47433   0.00000  Uiso   1.00
C640   C     0.87434   0.02290   0.52567   0.00000  Uiso   1.00
C641   C     0.83463   0.29055   0.49925   0.00000  Uiso   1.00
C642   C     0.83203   0.04278   0.50075   0.00000  Uiso   1.00
C643   C     0.79782   0.14352   0.35505   0.00000  Uiso   1.00
C644   C     0.86885   0.18982   0.64495   0.00000  Uiso   1.00
H645   H     0.77003   0.12482   0.37171   0.00000  Uiso   1.00
H646   H     0.89664   0.20851   0.62829   0.00000  Uiso   1.00
C647   C     0.79734   0.14311   0.63891   0.00000  Uiso   1.00
C648   C     0.86932   0.19022   0.36109   0.00000  Uiso   1.00
C649   C     0.74525   0.04337   0.45177   0.00000  Uiso   1.00
H650   H     0.73595   0.07298   0.46529   0.00000  Uiso   1.00
O651   O     0.71844   0.03023   0.41699   0.00000  Uiso   1.00
C652   C     0.92140   0.28997   0.54824   0.00000  Uiso   1.00
H653   H     0.93074   0.26038   0.53470   0.00000  Uiso   1.00
O654   O     0.94817   0.30308   0.58305   0.00000  Uiso   1.00
N655   N     0.75104   0.28572   0.45069   0.00000  Uiso   1.00
H656   H     0.74055   0.29297   0.41589   0.00000  Uiso   1.00
C657   C     0.70824   0.27692   0.47703   0.00000  Uiso   1.00
H658   H     0.68845   0.30580   0.48315   0.00000  Uiso   1.00
H659   H     0.72205   0.26208   0.51123   0.00000  Uiso   1.00
H660   H     0.68001   0.25535   0.45702   0.00000  Uiso   1.00
N661   N     0.91563   0.04761   0.54930   0.00000  Uiso   1.00
H662   H     0.92611   0.04036   0.58411   0.00000  Uiso   1.00
C663   C     0.95843   0.05640   0.52297   0.00000  Uiso   1.00
H664   H     0.97822   0.02752   0.51686   0.00000  Uiso   1.00
H665   H     0.98666   0.07797   0.54298   0.00000  Uiso   1.00
H666   H     0.94462   0.07124   0.48877   0.00000  Uiso   1.00
C667   C     0.75728   0.11614   0.61215   0.00000  Uiso   1.00
H668   H     0.76063   0.10592   0.57741   0.00000  Uiso   1.00
O669   O     0.71897   0.10414   0.62941   0.00000  Uiso   1.00
C670   C     0.90939   0.21720   0.38785   0.00000  Uiso   1.00
H671   H     0.90604   0.22741   0.42259   0.00000  Uiso   1.00
O672   O     0.94770   0.22919   0.37059   0.00000  Uiso   1.00
O673   O     0.16666   0.43989   0.53958   0.00000  Uiso   1.00
O674   O     0.16667   0.56011   0.46042   0.00000  Uiso   1.00
O675   O     0.16666   0.43988   0.46039   0.00000  Uiso   1.00
O676   O     0.16667   0.56012   0.53961   0.00000  Uiso   1.00
C677   C     0.16605   0.42090   0.50023   0.00000  Uiso   1.00
C678   C     0.16728   0.57910   0.49977   0.00000  Uiso   1.00
O679   O     0.09161   0.50000   0.53046   0.00000  Uiso   1.00
O680   O     0.24172   0.50000   0.46954   0.00000  Uiso   1.00
O681   O     0.09161   0.49999   0.45127   0.00000  Uiso   1.00
O682   O     0.24172   0.50001   0.54873   0.00000  Uiso   1.00
C683   C     0.06805   0.49977   0.48808   0.00000  Uiso   1.00
C684   C     0.26528   0.50023   0.51192   0.00000  Uiso   1.00
Cu685  Cu    0.16667   0.50001   0.54689   0.00000  Uiso   1.00
Cu686  Cu    0.16667   0.49999   0.45311   0.00000  Uiso   1.00
N687   N     0.16668   0.50001   0.61736   0.00000  Uiso   1.00
N688   N     0.16665   0.49999   0.38264   0.00000  Uiso   1.00
C689   C     0.01282   0.49938   0.48149   0.00000  Uiso   1.00
C690   C     0.32052   0.50062   0.51851   0.00000  Uiso   1.00
H691   H     0.32651   0.49819   0.44586   0.00000  Uiso   1.00
H692   H     0.00682   0.50181   0.55414   0.00000  Uiso   1.00
C693   C     0.12402   0.35391   0.47496   0.00000  Uiso   1.00
C694   C     0.20930   0.64609   0.52505   0.00000  Uiso   1.00
C695   C     0.12565   0.64377   0.47433   0.00000  Uiso   1.00
C696   C     0.20767   0.35623   0.52567   0.00000  Uiso   1.00
C697   C     0.16796   0.62388   0.49925   0.00000  Uiso   1.00
C698   C     0.16536   0.37612   0.50075   0.00000  Uiso   1.00
C699   C     0.13115   0.47685   0.35505   0.00000  Uiso   1.00
C700   C     0.20218   0.52315   0.64495   0.00000  Uiso   1.00
H701   H     0.10336   0.45815   0.37171   0.00000  Uiso   1.00
H702   H     0.22997   0.54185   0.62829   0.00000  Uiso   1.00
C703   C     0.13068   0.47644   0.63891   0.00000  Uiso   1.00
C704   C     0.20266   0.52356   0.36109   0.00000  Uiso   1.00
C705   C     0.07859   0.37670   0.45177   0.00000  Uiso   1.00
H706   H     0.06928   0.40631   0.46529   0.00000  Uiso   1.00
O707   O     0.05178   0.36357   0.41699   0.00000  Uiso   1.00
C708   C     0.25474   0.62330   0.54824   0.00000  Uiso   1.00
H709   H     0.26407   0.59371   0.53470   0.00000  Uiso   1.00
O710   O     0.28150   0.63641   0.58305   0.00000  Uiso   1.00
N711   N     0.08437   0.61905   0.45069   0.00000  Uiso   1.00
H712   H     0.07389   0.62630   0.41589   0.00000  Uiso   1.00
C713   C     0.04157   0.61026   0.47703   0.00000  Uiso   1.00
H714   H     0.02178   0.63914   0.48315   0.00000  Uiso   1.00
H715   H     0.05538   0.59541   0.51123   0.00000  Uiso   1.00
H716   H     0.01334   0.58869   0.45702   0.00000  Uiso   1.00
N717   N     0.24896   0.38094   0.54930   0.00000  Uiso   1.00
H718   H     0.25944   0.37369   0.58411   0.00000  Uiso   1.00
C719   C     0.29176   0.38973   0.52297   0.00000  Uiso   1.00
H720   H     0.31155   0.36085   0.51686   0.00000  Uiso   1.00
H721   H     0.31999   0.41130   0.54298   0.00000  Uiso   1.00
H722   H     0.27795   0.40457   0.48877   0.00000  Uiso   1.00
C723   C     0.09061   0.44947   0.61215   0.00000  Uiso   1.00
H724   H     0.09396   0.43926   0.57741   0.00000  Uiso   1.00
O725   O     0.05230   0.43748   0.62941   0.00000  Uiso   1.00
C726   C     0.24272   0.55053   0.38785   0.00000  Uiso   1.00
H727   H     0.23937   0.56074   0.42259   0.00000  Uiso   1.00
O728   O     0.28103   0.56252   0.37059   0.00000  Uiso   1.00
O729   O     0.50000   0.43989   0.53958   0.00000  Uiso   1.00
O730   O     0.50000   0.56011   0.46042   0.00000  Uiso   1.00
O731   O     0.50000   0.43988   0.46039   0.00000  Uiso   1.00
O732   O     0.50000   0.56012   0.53961   0.00000  Uiso   1.00
C733   C     0.49938   0.42090   0.50023   0.00000  Uiso   1.00
C734   C     0.50062   0.57910   0.49977   0.00000  Uiso   1.00
O735   O     0.42495   0.50000   0.53046   0.00000  Uiso   1.00
O736   O     0.57505   0.50000   0.46954   0.00000  Uiso   1.00
O737   O     0.42494   0.49999   0.45127   0.00000  Uiso   1.00
O738   O     0.57506   0.50001   0.54873   0.00000  Uiso   1.00
C739   C     0.40138   0.49977   0.48808   0.00000  Uiso   1.00
C740   C     0.59862   0.50023   0.51192   0.00000  Uiso   1.00
Cu741  Cu    0.50000   0.50001   0.54689   0.00000  Uiso   1.00
Cu742  Cu    0.50000   0.49999   0.45311   0.00000  Uiso   1.00
N743   N     0.50001   0.50001   0.61736   0.00000  Uiso   1.00
N744   N     0.49999   0.49999   0.38264   0.00000  Uiso   1.00
C745   C     0.34615   0.49938   0.48149   0.00000  Uiso   1.00
C746   C     0.65385   0.50062   0.51851   0.00000  Uiso   1.00
H747   H     0.65984   0.49819   0.44586   0.00000  Uiso   1.00
H748   H     0.34016   0.50181   0.55414   0.00000  Uiso   1.00
C749   C     0.45735   0.35391   0.47496   0.00000  Uiso   1.00
C750   C     0.54264   0.64609   0.52505   0.00000  Uiso   1.00
C751   C     0.45899   0.64377   0.47433   0.00000  Uiso   1.00
C752   C     0.54101   0.35623   0.52567   0.00000  Uiso   1.00
C753   C     0.50130   0.62388   0.49925   0.00000  Uiso   1.00
C754   C     0.49870   0.37612   0.50075   0.00000  Uiso   1.00
C755   C     0.46449   0.47685   0.35505   0.00000  Uiso   1.00
C756   C     0.53551   0.52315   0.64495   0.00000  Uiso   1.00
H757   H     0.43669   0.45815   0.37171   0.00000  Uiso   1.00
H758   H     0.56331   0.54185   0.62829   0.00000  Uiso   1.00
C759   C     0.46401   0.47644   0.63891   0.00000  Uiso   1.00
C760   C     0.53599   0.52356   0.36109   0.00000  Uiso   1.00
C761   C     0.41192   0.37670   0.45177   0.00000  Uiso   1.00
H762   H     0.40261   0.40631   0.46529   0.00000  Uiso   1.00
O763   O     0.38511   0.36357   0.41699   0.00000  Uiso   1.00
C764   C     0.58807   0.62330   0.54824   0.00000  Uiso   1.00
H765   H     0.59740   0.59371   0.53470   0.00000  Uiso   1.00
O766   O     0.61484   0.63641   0.58305   0.00000  Uiso   1.00
N767   N     0.41770   0.61905   0.45069   0.00000  Uiso   1.00
H768   H     0.40722   0.62630   0.41589   0.00000  Uiso   1.00
C769   C     0.37490   0.61026   0.47703   0.00000  Uiso   1.00
H770   H     0.35511   0.63914   0.48315   0.00000  Uiso   1.00
H771   H     0.38872   0.59541   0.51123   0.00000  Uiso   1.00
H772   H     0.34668   0.58869   0.45702   0.00000  Uiso   1.00
N773   N     0.58229   0.38094   0.54930   0.00000  Uiso   1.00
H774   H     0.59278   0.37369   0.58411   0.00000  Uiso   1.00
C775   C     0.62510   0.38973   0.52297   0.00000  Uiso   1.00
H776   H     0.64489   0.36085   0.51686   0.00000  Uiso   1.00
H777   H     0.65332   0.41130   0.54298   0.00000  Uiso   1.00
H778   H     0.61129   0.40457   0.48877   0.00000  Uiso   1.00
C779   C     0.42394   0.44947   0.61215   0.00000  Uiso   1.00
H780   H     0.42729   0.43926   0.57741   0.00000  Uiso   1.00
O781   O     0.38564   0.43748   0.62941   0.00000  Uiso   1.00
C782   C     0.57606   0.55053   0.38785   0.00000  Uiso   1.00
H783   H     0.57271   0.56074   0.42259   0.00000  Uiso   1.00
O784   O     0.61436   0.56252   0.37059   0.00000  Uiso   1.00
O785   O     0.83333   0.43989   0.53958   0.00000  Uiso   1.00
O786   O     0.83334   0.56011   0.46042   0.00000  Uiso   1.00
O787   O     0.83333   0.43988   0.46039   0.00000  Uiso   1.00
O788   O     0.83334   0.56012   0.53961   0.00000  Uiso   1.00
C789   C     0.83271   0.42090   0.50023   0.00000  Uiso   1.00
C790   C     0.83395   0.57910   0.49977   0.00000  Uiso   1.00
O791   O     0.75828   0.50000   0.53046   0.00000  Uiso   1.00
O792   O     0.90839   0.50000   0.46954   0.00000  Uiso   1.00
O793   O     0.75828   0.49999   0.45127   0.00000  Uiso   1.00
O794   O     0.90839   0.50001   0.54873   0.00000  Uiso   1.00
C795   C     0.73472   0.49977   0.48808   0.00000  Uiso   1.00
C796   C     0.93195   0.50023   0.51192   0.00000  Uiso   1.00
Cu797  Cu    0.83333   0.50001   0.54689   0.00000  Uiso   1.00
Cu798  Cu    0.83333   0.49999   0.45311   0.00000  Uiso   1.00
N799   N     0.83335   0.50001   0.61736   0.00000  Uiso   1.00
N800   N     0.83332   0.49999   0.38264   0.00000  Uiso   1.00
C801   C     0.67949   0.49938   0.48149   0.00000  Uiso   1.00
C802   C     0.98718   0.50062   0.51851   0.00000  Uiso   1.00
H803   H     0.99318   0.49819   0.44586   0.00000  Uiso   1.00
H804   H     0.67349   0.50181   0.55414   0.00000  Uiso   1.00
C805   C     0.79069   0.35391   0.47496   0.00000  Uiso   1.00
C806   C     0.87597   0.64609   0.52505   0.00000  Uiso   1.00
C807   C     0.79232   0.64377   0.47433   0.00000  Uiso   1.00
C808   C     0.87434   0.35623   0.52567   0.00000  Uiso   1.00
C809   C     0.83463   0.62388   0.49925   0.00000  Uiso   1.00
C810   C     0.83203   0.37612   0.50075   0.00000  Uiso   1.00
C811   C     0.79782   0.47685   0.35505   0.00000  Uiso   1.00
C812   C     0.86885   0.52315   0.64495   0.00000  Uiso   1.00
H813   H     0.77003   0.45815   0.37171   0.00000  Uiso   1.00
H814   H     0.89664   0.54185   0.62829   0.00000  Uiso   1.00
C815   C     0.79734   0.47644   0.63891   0.00000  Uiso   1.00
C816   C     0.86932   0.52356   0.36109   0.00000  Uiso   1.00
C817   C     0.74525   0.37670   0.45177   0.00000  Uiso   1.00
H818   H     0.73595   0.40631   0.46529   0.00000  Uiso   1.00
O819   O     0.71844   0.36357   0.41699   0.00000  Uiso   1.00
C820   C     0.92140   0.62330   0.54824   0.00000  Uiso   1.00
H821   H     0.93074   0.59371   0.53470   0.00000  Uiso   1.00
O822   O     0.94817   0.63641   0.58305   0.00000  Uiso   1.00
N823   N     0.75104   0.61905   0.45069   0.00000  Uiso   1.00
H824   H     0.74055   0.62630   0.41589   0.00000  Uiso   1.00
C825   C     0.70824   0.61026   0.47703   0.00000  Uiso   1.00
H826   H     0.68845   0.63914   0.48315   0.00000  Uiso   1.00
H827   H     0.72205   0.59541   0.51123   0.00000  Uiso   1.00
H828   H     0.68001   0.58869   0.45702   0.00000  Uiso   1.00
N829   N     0.91563   0.38094   0.54930   0.00000  Uiso   1.00
H830   H     0.92611   0.37369   0.58411   0.00000  Uiso   1.00
C831   C     0.95843   0.38973   0.52297   0.00000  Uiso   1.00
H832   H     0.97822   0.36085   0.51686   0.00000  Uiso   1.00
H833   H     0.98666   0.41130   0.54298   0.00000  Uiso   1.00
H834   H     0.94462   0.40457   0.48877   0.00000  Uiso   1.00
C835   C     0.75728   0.44947   0.61215   0.00000  Uiso   1.00
H836   H     0.76063   0.43926   0.57741   0.00000  Uiso   1.00
O837   O     0.71897   0.43748   0.62941   0.00000  Uiso   1.00
C838   C     0.90939   0.55053   0.38785   0.00000  Uiso   1.00
H839   H     0.90604   0.56074   0.42259   0.00000  Uiso   1.00
O840   O     0.94770   0.56252   0.37059   0.00000  Uiso   1.00
O841   O     0.16666   0.77322   0.53958   0.00000  Uiso   1.00
O842   O     0.16667   0.89345   0.46042   0.00000  Uiso   1.00
O843   O     0.16666   0.77321   0.46039   0.00000  Uiso   1.00
O844   O     0.16667   0.89346   0.53961   0.00000  Uiso   1.00
C845   C     0.16605   0.75423   0.50023   0.00000  Uiso   1.00
C846   C     0.16728   0.91244   0.49977   0.00000  Uiso   1.00
O847   O     0.09161   0.83334   0.53046   0.00000  Uiso   1.00
O848   O     0.24172   0.83333   0.46954   0.00000  Uiso   1.00
O849   O     0.09161   0.83333   0.45127   0.00000  Uiso   1.00
O850   O     0.24172   0.83334   0.54873   0.00000  Uiso   1.00
C851   C     0.06805   0.83310   0.48808   0.00000  Uiso   1.00
C852   C     0.26528   0.83356   0.51192   0.00000  Uiso   1.00
Cu853  Cu    0.16667   0.83334   0.54689   0.00000  Uiso   1.00
Cu854  Cu    0.16667   0.83333   0.45311   0.00000  Uiso   1.00
N855   N     0.16668   0.83334   0.61736   0.00000  Uiso   1.00
N856   N     0.16665   0.83332   0.38264   0.00000  Uiso   1.00
C857   C     0.01282   0.83271   0.48149   0.00000  Uiso   1.00
C858   C     0.32052   0.83395   0.51851   0.00000  Uiso   1.00
H859   H     0.32651   0.83152   0.44586   0.00000  Uiso   1.00
H860   H     0.00682   0.83514   0.55414   0.00000  Uiso   1.00
C861   C     0.12402   0.68724   0.47496   0.00000  Uiso   1.00
C862   C     0.20930   0.97942   0.52505   0.00000  Uiso   1.00
C863   C     0.12565   0.97710   0.47433   0.00000  Uiso   1.00
C864   C     0.20767   0.68956   0.52567   0.00000  Uiso   1.00
C865   C     0.16796   0.95722   0.49925   0.00000  Uiso   1.00
C866   C     0.16536   0.70945   0.50075   0.00000  Uiso   1.00
C867   C     0.13115   0.81018   0.35505   0.00000  Uiso   1.00
C868   C     0.20218   0.85648   0.64495   0.00000  Uiso   1.00
H869   H     0.10336   0.79149   0.37171   0.00000  Uiso   1.00
H870   H     0.22997   0.87518   0.62829   0.00000  Uiso   1.00
C871   C     0.13068   0.80978   0.63891   0.00000  Uiso   1.00
C872   C     0.20266   0.85689   0.36109   0.00000  Uiso   1.00
C873   C     0.07859   0.71003   0.45177   0.00000  Uiso   1.00
H874   H     0.06928   0.73964   0.46529   0.00000  Uiso   1.00
O875   O     0.05178   0.69690   0.41699   0.00000  Uiso   1.00
C876   C     0.25474   0.95664   0.54824   0.00000  Uiso   1.00
H877   H     0.26407   0.92704   0.53470   0.00000  Uiso   1.00
O878   O     0.28150   0.96975   0.58305   0.00000  Uiso   1.00
N879   N     0.08437   0.95239   0.45069   0.00000  Uiso   1.00
H880   H     0.07389   0.95964   0.41589   0.00000  Uiso   1.00
C881   C     0.04157   0.94359   0.47703   0.00000  Uiso   1.00
H882   H     0.02178   0.97247   0.48315   0.00000  Uiso   1.00
H883   H     0.05538   0.92874   0.51123   0.00000  Uiso   1.00
H884   H     0.01334   0.92202   0.45702   0.00000  Uiso   1.00
N885   N     0.24896   0.71428   0.54930   0.00000  Uiso   1.00
H886   H     0.25944   0.70703   0.58411   0.00000  Uiso   1.00
C887   C     0.29176   0.72307   0.52297   0.00000  Uiso   1.00
H888   H     0.31155   0.69418   0.51686   0.00000  Uiso   1.00
H889   H     0.31999   0.74464   0.54298   0.00000  Uiso   1.00
H890   H     0.27795   0.73791   0.48877   0.00000  Uiso   1.00
C891   C     0.09061   0.78280   0.61215   0.00000  Uiso   1.00
H892   H     0.09396   0.77259   0.57741   0.00000  Uiso   1.00
O893   O     0.05230   0.77081   0.62941   0.00000  Uiso   1.00
C894   C     0.24272   0.88386   0.38785   0.00000  Uiso   1.00
H895   H     0.23937   0.89408   0.42259   0.00000  Uiso   1.00
O896   O     0.28103   0.89586   0.37059   0.00000  Uiso   1.00
O897   O     0.50000   0.77322   0.53958   0.00000  Uiso   1.00
O898   O     0.50000   0.89345   0.46042   0.00000  Uiso   1.00
O899   O     0.50000   0.77321   0.46039   0.00000  Uiso   1.00
O900   O     0.50000   0.89346   0.53961   0.00000  Uiso   1.00
C901   C     0.49938   0.75423   0.50023   0.00000  Uiso   1.00
C902   C     0.50062   0.91244   0.49977   0.00000  Uiso   1.00
O903   O     0.42495   0.83334   0.53046   0.00000  Uiso   1.00
O904   O     0.57505   0.83333   0.46954   0.00000  Uiso   1.00
O905   O     0.42494   0.83333   0.45127   0.00000  Uiso   1.00
O906   O     0.57506   0.83334   0.54873   0.00000  Uiso   1.00
C907   C     0.40138   0.83310   0.48808   0.00000  Uiso   1.00
C908   C     0.59862   0.83356   0.51192   0.00000  Uiso   1.00
Cu909  Cu    0.50000   0.83334   0.54689   0.00000  Uiso   1.00
Cu910  Cu    0.50000   0.83333   0.45311   0.00000  Uiso   1.00
N911   N     0.50001   0.83334   0.61736   0.00000  Uiso   1.00
N912   N     0.49999   0.83332   0.38264   0.00000  Uiso   1.00
C913   C     0.34615   0.83271   0.48149   0.00000  Uiso   1.00
C914   C     0.65385   0.83395   0.51851   0.00000  Uiso   1.00
H915   H     0.65984   0.83152   0.44586   0.00000  Uiso   1.00
H916   H     0.34016   0.83514   0.55414   0.00000  Uiso   1.00
C917   C     0.45735   0.68724   0.47496   0.00000  Uiso   1.00
C918   C     0.54264   0.97942   0.52505   0.00000  Uiso   1.00
C919   C     0.45899   0.97710   0.47433   0.00000  Uiso   1.00
C920   C     0.54101   0.68956   0.52567   0.00000  Uiso   1.00
C921   C     0.50130   0.95722   0.49925   0.00000  Uiso   1.00
C922   C     0.49870   0.70945   0.50075   0.00000  Uiso   1.00
C923   C     0.46449   0.81018   0.35505   0.00000  Uiso   1.00
C924   C     0.53551   0.85648   0.64495   0.00000  Uiso   1.00
H925   H     0.43669   0.79149   0.37171   0.00000  Uiso   1.00
H926   H     0.56331   0.87518   0.62829   0.00000  Uiso   1.00
C927   C     0.46401   0.80978   0.63891   0.00000  Uiso   1.00
C928   C     0.53599   0.85689   0.36109   0.00000  Uiso   1.00
C929   C     0.41192   0.71003   0.45177   0.00000  Uiso   1.00
H930   H     0.40261   0.73964   0.46529   0.00000  Uiso   1.00
O931   O     0.38511   0.69690   0.41699   0.00000  Uiso   1.00
C932   C     0.58807   0.95664   0.54824   0.00000  Uiso   1.00
H933   H     0.59740   0.92704   0.53470   0.00000  Uiso   1.00
O934   O     0.61484   0.96975   0.58305   0.00000  Uiso   1.00
N935   N     0.41770   0.95239   0.45069   0.00000  Uiso   1.00
H936   H     0.40722   0.95964   0.41589   0.00000  Uiso   1.00
C937   C     0.37490   0.94359   0.47703   0.00000  Uiso   1.00
H938   H     0.35511   0.97247   0.48315   0.00000  Uiso   1.00
H939   H     0.38872   0.92874   0.51123   0.00000  Uiso   1.00
H940   H     0.34668   0.92202   0.45702   0.00000  Uiso   1.00
N941   N     0.58229   0.71428   0.54930   0.00000  Uiso   1.00
H942   H     0.59278   0.70703   0.58411   0.00000  Uiso   1.00
C943   C     0.62510   0.72307   0.52297   0.00000  Uiso   1.00
H944   H     0.64489   0.69418   0.51686   0.00000  Uiso   1.00
H945   H     0.65332   0.74464   0.54298   0.00000  Uiso   1.00
H946   H     0.61129   0.73791   0.48877   0.00000  Uiso   1.00
C947   C     0.42394   0.78280   0.61215   0.00000  Uiso   1.00
H948   H     0.42729   0.77259   0.57741   0.00000  Uiso   1.00
O949   O     0.38564   0.77081   0.62941   0.00000  Uiso   1.00
C950   C     0.57606   0.88386   0.38785   0.00000  Uiso   1.00
H951   H     0.57271   0.89408   0.42259   0.00000  Uiso   1.00
O952   O     0.61436   0.89586   0.37059   0.00000  Uiso   1.00
O953   O     0.83333   0.77322   0.53958   0.00000  Uiso   1.00
O954   O     0.83334   0.89345   0.46042   0.00000  Uiso   1.00
O955   O     0.83333   0.77321   0.46039   0.00000  Uiso   1.00
O956   O     0.83334   0.89346   0.53961   0.00000  Uiso   1.00
C957   C     0.83271   0.75423   0.50023   0.00000  Uiso   1.00
C958   C     0.83395   0.91244   0.49977   0.00000  Uiso   1.00
O959   O     0.75828   0.83334   0.53046   0.00000  Uiso   1.00
O960   O     0.90839   0.83333   0.46954   0.00000  Uiso   1.00
O961   O     0.75828   0.83333   0.45127   0.00000  Uiso   1.00
O962   O     0.90839   0.83334   0.54873   0.00000  Uiso   1.00
C963   C     0.73472   0.83310   0.48808   0.00000  Uiso   1.00
C964   C     0.93195   0.83356   0.51192   0.00000  Uiso   1.00
Cu965  Cu    0.83333   0.83334   0.54689   0.00000  Uiso   1.00
Cu966  Cu    0.83333   0.83333   0.45311   0.00000  Uiso   1.00
N967   N     0.83335   0.83334   0.61736   0.00000  Uiso   1.00
N968   N     0.83332   0.83332   0.38264   0.00000  Uiso   1.00
C969   C     0.67949   0.83271   0.48149   0.00000  Uiso   1.00
C970   C     0.98718   0.83395   0.51851   0.00000  Uiso   1.00
H971   H     0.99318   0.83152   0.44586   0.00000  Uiso   1.00
H972   H     0.67349   0.83514   0.55414   0.00000  Uiso   1.00
C973   C     0.79069   0.68724   0.47496   0.00000  Uiso   1.00
C974   C     0.87597   0.97942   0.52505   0.00000  Uiso   1.00
C975   C     0.79232   0.97710   0.47433   0.00000  Uiso   1.00
C976   C     0.87434   0.68956   0.52567   0.00000  Uiso   1.00
C977   C     0.83463   0.95722   0.49925   0.00000  Uiso   1.00
C978   C     0.83203   0.70945   0.50075   0.00000  Uiso   1.00
C979   C     0.79782   0.81018   0.35505   0.00000  Uiso   1.00
C980   C     0.86885   0.85648   0.64495   0.00000  Uiso   1.00
H981   H     0.77003   0.79149   0.37171   0.00000  Uiso   1.00
H982   H     0.89664   0.87518   0.62829   0.00000  Uiso   1.00
C983   C     0.79734   0.80978   0.63891   0.00000  Uiso   1.00
C984   C     0.86932   0.85689   0.36109   0.00000  Uiso   1.00
C985   C     0.74525   0.71003   0.45177   0.00000  Uiso   1.00
H986   H     0.73595   0.73964   0.46529   0.00000  Uiso   1.00
O987   O     0.71844   0.69690   0.41699   0.00000  Uiso   1.00
C988   C     0.92140   0.95664   0.54824   0.00000  Uiso   1.00
H989   H     0.93074   0.92704   0.53470   0.00000  Uiso   1.00
O990   O     0.94817   0.96975   0.58305   0.00000  Uiso   1.00
N991   N     0.75104   0.95239   0.45069   0.00000  Uiso   1.00
H992   H     0.74055   0.95964   0.41589   0.00000  Uiso   1.00
C993   C     0.70824   0.94359   0.47703   0.00000  Uiso   1.00
H994   H     0.68845   0.97247   0.48315   0.00000  Uiso   1.00
H995   H     0.72205   0.92874   0.51123   0.00000  Uiso   1.00
H996   H     0.68001   0.92202   0.45702   0.00000  Uiso   1.00
N997   N     0.91563   0.71428   0.54930   0.00000  Uiso   1.00
H998   H     0.92611   0.70703   0.58411   0.00000  Uiso   1.00
C999   C     0.95843   0.72307   0.52297   0.00000  Uiso   1.00
H1000  H     0.97822   0.69418   0.51686   0.00000  Uiso   1.00
H1001  H     0.98666   0.74464   0.54298   0.00000  Uiso   1.00
H1002  H     0.94462   0.73791   0.48877   0.00000  Uiso   1.00
C1003  C     0.75728   0.78280   0.61215   0.00000  Uiso   1.00
H1004  H     0.76063   0.77259   0.57741   0.00000  Uiso   1.00
O1005  O     0.71897   0.77081   0.62941   0.00000  Uiso   1.00
C1006  C     0.90939   0.88386   0.38785   0.00000  Uiso   1.00
H1007  H     0.90604   0.89408   0.42259   0.00000  Uiso   1.00
O1008  O     0.94770   0.89586   0.37059   0.00000  Uiso   1.00
O1009  O     0.16666   0.10655   0.87291   0.00000  Uiso   1.00
O1010  O     0.16667   0.22678   0.79375   0.00000  Uiso   1.00
O1011  O     0.16666   0.10654   0.79372   0.00000  Uiso   1.00
O1012  O     0.16667   0.22679   0.87294   0.00000  Uiso   1.00
C1013  C     0.16605   0.08756   0.83356   0.00000  Uiso   1.00
C1014  C     0.16728   0.24577   0.83310   0.00000  Uiso   1.00
O1015  O     0.09161   0.16667   0.86379   0.00000  Uiso   1.00
O1016  O     0.24172   0.16666   0.80288   0.00000  Uiso   1.00
O1017  O     0.09161   0.16666   0.78460   0.00000  Uiso   1.00
O1018  O     0.24172   0.16667   0.88207   0.00000  Uiso   1.00
C1019  C     0.06805   0.16644   0.82141   0.00000  Uiso   1.00
C1020  C     0.26528   0.16689   0.84526   0.00000  Uiso   1.00
Cu1021 Cu    0.16667   0.16667   0.88022   0.00000  Uiso   1.00
Cu1022 Cu    0.16667   0.16666   0.78645   0.00000  Uiso   1.00
N1023  N     0.16668   0.16668   0.95069   0.00000  Uiso   1.00
N1024  N     0.16665   0.16666   0.71597   0.00000  Uiso   1.00
C1025  C     0.01282   0.16605   0.81482   0.00000  Uiso   1.00
C1026  C     0.32052   0.16728   0.85185   0.00000  Uiso   1.00
H1027  H     0.32651   0.16486   0.77919   0.00000  Uiso   1.00
H1028  H     0.00682   0.16848   0.88747   0.00000  Uiso   1.00
C1029  C     0.12402   0.02058   0.80829   0.00000  Uiso   1.00
C1030  C     0.20930   0.31276   0.85838   0.00000  Uiso   1.00
C1031  C     0.12565   0.31044   0.80767   0.00000  Uiso   1.00
C1032  C     0.20767   0.02290   0.85900   0.00000  Uiso   1.00
C1033  C     0.16796   0.29055   0.83259   0.00000  Uiso   1.00
C1034  C     0.16536   0.04278   0.83408   0.00000  Uiso   1.00
C1035  C     0.13115   0.14352   0.68838   0.00000  Uiso   1.00
C1036  C     0.20218   0.18982   0.97828   0.00000  Uiso   1.00
H1037  H     0.10336   0.12482   0.70505   0.00000  Uiso   1.00
H1038  H     0.22997   0.20851   0.96162   0.00000  Uiso   1.00
C1039  C     0.13068   0.14311   0.97225   0.00000  Uiso   1.00
C1040  C     0.20266   0.19022   0.69442   0.00000  Uiso   1.00
C1041  C     0.07859   0.04337   0.78511   0.00000  Uiso   1.00
H1042  H     0.06928   0.07298   0.79862   0.00000  Uiso   1.00
O1043  O     0.05178   0.03023   0.75032   0.00000  Uiso   1.00
C1044  C     0.25474   0.28997   0.88157   0.00000  Uiso   1.00
H1045  H     0.26407   0.26038   0.86803   0.00000  Uiso   1.00
O1046  O     0.28150   0.30308   0.91639   0.00000  Uiso   1.00
N1047  N     0.08437   0.28572   0.78403   0.00000  Uiso   1.00
H1048  H     0.07389   0.29297   0.74922   0.00000  Uiso   1.00
C1049  C     0.04157   0.27692   0.81036   0.00000  Uiso   1.00
H1050  H     0.02178   0.30580   0.81648   0.00000  Uiso   1.00
H1051  H     0.05538   0.26208   0.84456   0.00000  Uiso   1.00
H1052  H     0.01334   0.25535   0.79035   0.00000  Uiso   1.00
N1053  N     0.24896   0.04761   0.88264   0.00000  Uiso   1.00
H1054  H     0.25944   0.04036   0.91744   0.00000  Uiso   1.00
C1055  C     0.29176   0.05640   0.85630   0.00000  Uiso   1.00
H1056  H     0.31155   0.02752   0.85019   0.00000  Uiso   1.00
H1057  H     0.31999   0.07797   0.87631   0.00000  Uiso   1.00
H1058  H     0.27795   0.07124   0.82210   0.00000  Uiso   1.00
C1059  C     0.09061   0.11614   0.94548   0.00000  Uiso   1.00
H1060  H     0.09396   0.10592   0.91074   0.00000  Uiso   1.00
O1061  O     0.05230   0.10414   0.96274   0.00000  Uiso   1.00
C1062  C     0.24272   0.21720   0.72118   0.00000  Uiso   1.00
H1063  H     0.23937   0.22741   0.75592   0.00000  Uiso   1.00
O1064  O     0.28103   0.22919   0.70392   0.00000  Uiso   1.00
O1065  O     0.50000   0.10655   0.87291   0.00000  Uiso   1.00
O1066  O     0.50000   0.22678   0.79375   0.00000  Uiso   1.00
O1067  O     0.50000   0.10654   0.79372   0.00000  Uiso   1.00
O1068  O     0.50000   0.22679   0.87294   0.00000  Uiso   1.00
C1069  C     0.49938   0.08756   0.83356   0.00000  Uiso   1.00
C1070  C     0.50062   0.24577   0.83310   0.00000  Uiso   1.00
O1071  O     0.42495   0.16667   0.86379   0.00000  Uiso   1.00
O1072  O     0.57505   0.16666   0.80288   0.00000  Uiso   1.00
O1073  O     0.42494   0.16666   0.78460   0.00000  Uiso   1.00
O1074  O     0.57506   0.16667   0.88207   0.00000  Uiso   1.00
C1075  C     0.40138   0.16644   0.82141   0.00000  Uiso   1.00
C1076  C     0.59862   0.16689   0.84526   0.00000  Uiso   1.00
Cu1077 Cu    0.50000   0.16667   0.88022   0.00000  Uiso   1.00
Cu1078 Cu    0.50000   0.16666   0.78645   0.00000  Uiso   1.00
N1079  N     0.50001   0.16668   0.95069   0.00000  Uiso   1.00
N1080  N     0.49999   0.16666   0.71597   0.00000  Uiso   1.00
C1081  C     0.34615   0.16605   0.81482   0.00000  Uiso   1.00
C1082  C     0.65385   0.16728   0.85185   0.00000  Uiso   1.00
H1083  H     0.65984   0.16486   0.77919   0.00000  Uiso   1.00
H1084  H     0.34016   0.16848   0.88747   0.00000  Uiso   1.00
C1085  C     0.45735   0.02058   0.80829   0.00000  Uiso   1.00
C1086  C     0.54264   0.31276   0.85838   0.00000  Uiso   1.00
C1087  C     0.45899   0.31044   0.80767   0.00000  Uiso   1.00
C1088  C     0.54101   0.02290   0.85900   0.00000  Uiso   1.00
C1089  C     0.50130   0.29055   0.83259   0.00000  Uiso   1.00
C1090  C     0.49870   0.04278   0.83408   0.00000  Uiso   1.00
C1091  C     0.46449   0.14352   0.68838   0.00000  Uiso   1.00
C1092  C     0.53551   0.18982   0.97828   0.00000  Uiso   1.00
H1093  H     0.43669   0.12482   0.70505   0.00000  Uiso   1.00
H1094  H     0.56331   0.20851   0.96162   0.00000  Uiso   1.00
C1095  C     0.46401   0.14311   0.97225   0.00000  Uiso   1.00
C1096  C     0.53599   0.19022   0.69442   0.00000  Uiso   1.00
C1097  C     0.41192   0.04337   0.78511   0.00000  Uiso   1.00
H1098  H     0.40261   0.07298   0.79862   0.00000  Uiso   1.00
O1099  O     0.38511   0.03023   0.75032   0.00000  Uiso   1.00
C1100  C     0.58807   0.28997   0.88157   0.00000  Uiso   1.00
H1101  H     0.59740   0.26038   0.86803   0.00000  Uiso   1.00
O1102  O     0.61484   0.30308   0.91639   0.00000  Uiso   1.00
N1103  N     0.41770   0.28572   0.78403   0.00000  Uiso   1.00
H1104  H     0.40722   0.29297   0.74922   0.00000  Uiso   1.00
C1105  C     0.37490   0.27692   0.81036   0.00000  Uiso   1.00
H1106  H     0.35511   0.30580   0.81648   0.00000  Uiso   1.00
H1107  H     0.38872   0.26208   0.84456   0.00000  Uiso   1.00
H1108  H     0.34668   0.25535   0.79035   0.00000  Uiso   1.00
N1109  N     0.58229   0.04761   0.88264   0.00000  Uiso   1.00
H1110  H     0.59278   0.04036   0.91744   0.00000  Uiso   1.00
C1111  C     0.62510   0.05640   0.85630   0.00000  Uiso   1.00
H1112  H     0.64489   0.02752   0.85019   0.00000  Uiso   1.00
H1113  H     0.65332   0.07797   0.87631   0.00000  Uiso   1.00
H1114  H     0.61129   0.07124   0.82210   0.00000  Uiso   1.00
C1115  C     0.42394   0.11614   0.94548   0.00000  Uiso   1.00
H1116  H     0.42729   0.10592   0.91074   0.00000  Uiso   1.00
O1117  O     0.38564   0.10414   0.96274   0.00000  Uiso   1.00
C1118  C     0.57606   0.21720   0.72118   0.00000  Uiso   1.00
H1119  H     0.57271   0.22741   0.75592   0.00000  Uiso   1.00
O1120  O     0.61436   0.22919   0.70392   0.00000  Uiso   1.00
O1121  O     0.83333   0.10655   0.87291   0.00000  Uiso   1.00
O1122  O     0.83334   0.22678   0.79375   0.00000  Uiso   1.00
O1123  O     0.83333   0.10654   0.79372   0.00000  Uiso   1.00
O1124  O     0.83334   0.22679   0.87294   0.00000  Uiso   1.00
C1125  C     0.83271   0.08756   0.83356   0.00000  Uiso   1.00
C1126  C     0.83395   0.24577   0.83310   0.00000  Uiso   1.00
O1127  O     0.75828   0.16667   0.86379   0.00000  Uiso   1.00
O1128  O     0.90839   0.16666   0.80288   0.00000  Uiso   1.00
O1129  O     0.75828   0.16666   0.78460   0.00000  Uiso   1.00
O1130  O     0.90839   0.16667   0.88207   0.00000  Uiso   1.00
C1131  C     0.73472   0.16644   0.82141   0.00000  Uiso   1.00
C1132  C     0.93195   0.16689   0.84526   0.00000  Uiso   1.00
Cu1133 Cu    0.83333   0.16667   0.88022   0.00000  Uiso   1.00
Cu1134 Cu    0.83333   0.16666   0.78645   0.00000  Uiso   1.00
N1135  N     0.83335   0.16668   0.95069   0.00000  Uiso   1.00
N1136  N     0.83332   0.16666   0.71597   0.00000  Uiso   1.00
C1137  C     0.67949   0.16605   0.81482   0.00000  Uiso   1.00
C1138  C     0.98718   0.16728   0.85185   0.00000  Uiso   1.00
H1139  H     0.99318   0.16486   0.77919   0.00000  Uiso   1.00
H1140  H     0.67349   0.16848   0.88747   0.00000  Uiso   1.00
C1141  C     0.79069   0.02058   0.80829   0.00000  Uiso   1.00
C1142  C     0.87597   0.31276   0.85838   0.00000  Uiso   1.00
C1143  C     0.79232   0.31044   0.80767   0.00000  Uiso   1.00
C1144  C     0.87434   0.02290   0.85900   0.00000  Uiso   1.00
C1145  C     0.83463   0.29055   0.83259   0.00000  Uiso   1.00
C1146  C     0.83203   0.04278   0.83408   0.00000  Uiso   1.00
C1147  C     0.79782   0.14352   0.68838   0.00000  Uiso   1.00
C1148  C     0.86885   0.18982   0.97828   0.00000  Uiso   1.00
H1149  H     0.77003   0.12482   0.70505   0.00000  Uiso   1.00
H1150  H     0.89664   0.20851   0.96162   0.00000  Uiso   1.00
C1151  C     0.79734   0.14311   0.97225   0.00000  Uiso   1.00
C1152  C     0.86932   0.19022   0.69442   0.00000  Uiso   1.00
C1153  C     0.74525   0.04337   0.78511   0.00000  Uiso   1.00
H1154  H     0.73595   0.07298   0.79862   0.00000  Uiso   1.00
O1155  O     0.71844   0.03023   0.75032   0.00000  Uiso   1.00
C1156  C     0.92140   0.28997   0.88157   0.00000  Uiso   1.00
H1157  H     0.93074   0.26038   0.86803   0.00000  Uiso   1.00
O1158  O     0.94817   0.30308   0.91639   0.00000  Uiso   1.00
N1159  N     0.75104   0.28572   0.78403   0.00000  Uiso   1.00
H1160  H     0.74055   0.29297   0.74922   0.00000  Uiso   1.00
C1161  C     0.70824   0.27692   0.81036   0.00000  Uiso   1.00
H1162  H     0.68845   0.30580   0.81648   0.00000  Uiso   1.00
H1163  H     0.72205   0.26208   0.84456   0.00000  Uiso   1.00
H1164  H     0.68001   0.25535   0.79035   0.00000  Uiso   1.00
N1165  N     0.91563   0.04761   0.88264   0.00000  Uiso   1.00
H1166  H     0.92611   0.04036   0.91744   0.00000  Uiso   1.00
C1167  C     0.95843   0.05640   0.85630   0.00000  Uiso   1.00
H1168  H     0.97822   0.02752   0.85019   0.00000  Uiso   1.00
H1169  H     0.98666   0.07797   0.87631   0.00000  Uiso   1.00
H1170  H     0.94462   0.07124   0.82210   0.00000  Uiso   1.00
C1171  C     0.75728   0.11614   0.94548   0.00000  Uiso   1.00
H1172  H     0.76063   0.10592   0.91074   0.00000  Uiso   1.00
O1173  O     0.71897   0.10414   0.96274   0.00000  Uiso   1.00
C1174  C     0.90939   0.21720   0.72118   0.00000  Uiso   1.00
H1175  H     0.90604   0.22741   0.75592   0.00000  Uiso   1.00
O1176  O     0.94770   0.22919   0.70392   0.00000  Uiso   1.00
O1177  O     0.16666   0.43989   0.87291   0.00000  Uiso   1.00
O1178  O     0.16667   0.56011   0.79375   0.00000  Uiso   1.00
O1179  O     0.16666   0.43988   0.79372   0.00000  Uiso   1.00
O1180  O     0.16667   0.56012   0.87294   0.00000  Uiso   1.00
C1181  C     0.16605   0.42090   0.83356   0.00000  Uiso   1.00
C1182  C     0.16728   0.57910   0.83310   0.00000  Uiso   1.00
O1183  O     0.09161   0.50000   0.86379   0.00000  Uiso   1.00
O1184  O     0.24172   0.50000   0.80288   0.00000  Uiso   1.00
O1185  O     0.09161   0.49999   0.78460   0.00000  Uiso   1.00
O1186  O     0.24172   0.50001   0.88207   0.00000  Uiso   1.00
C1187  C     0.06805   0.49977   0.82141   0.00000  Uiso   1.00
C1188  C     0.26528   0.50023   0.84526   0.00000  Uiso   1.00
Cu1189 Cu    0.16667   0.50001   0.88022   0.00000  Uiso   1.00
Cu1190 Cu    0.16667   0.49999   0.78645   0.00000  Uiso   1.00
N1191  N     0.16668   0.50001   0.95069   0.00000  Uiso   1.00
N1192  N     0.16665   0.49999   0.71597   0.00000  Uiso   1.00
C1193  C     0.01282   0.49938   0.81482   0.00000  Uiso   1.00
C1194  C     0.32052   0.50062   0.85185   0.00000  Uiso   1.00
H1195  H     0.32651   0.49819   0.77919   0.00000  Uiso   1.00
H1196  H     0.00682   0.50181   0.88747   0.00000  Uiso   1.00
C1197  C     0.12402   0.35391   0.80829   0.00000  Uiso   1.00
C1198  C     0.20930   0.64609   0.85838   0.00000  Uiso   1.00
C1199  C     0.12565   0.64377   0.80767   0.00000  Uiso   1.00
C1200  C     0.20767   0.35623   0.85900   0.00000  Uiso   1.00
C1201  C     0.16796   0.62388   0.83259   0.00000  Uiso   1.00
C1202  C     0.16536   0.37612   0.83408   0.00000  Uiso   1.00
C1203  C     0.13115   0.47685   0.68838   0.00000  Uiso   1.00
C1204  C     0.20218   0.52315   0.97828   0.00000  Uiso   1.00
H1205  H     0.10336   0.45815   0.70505   0.00000  Uiso   1.00
H1206  H     0.22997   0.54185   0.96162   0.00000  Uiso   1.00
C1207  C     0.13068   0.47644   0.97225   0.00000  Uiso   1.00
C1208  C     0.20266   0.52356   0.69442   0.00000  Uiso   1.00
C1209  C     0.07859   0.37670   0.78511   0.00000  Uiso   1.00
H1210  H     0.06928   0.40631   0.79862   0.00000  Uiso   1.00
O1211  O     0.05178   0.36357   0.75032   0.00000  Uiso   1.00
C1212  C     0.25474   0.62330   0.88157   0.00000  Uiso   1.00
H1213  H     0.26407   0.59371   0.86803   0.00000  Uiso   1.00
O1214  O     0.28150   0.63641   0.91639   0.00000  Uiso   1.00
N1215  N     0.08437   0.61905   0.78403   0.00000  Uiso   1.00
H1216  H     0.07389   0.62630   0.74922   0.00000  Uiso   1.00
C1217  C     0.04157   0.61026   0.81036   0.00000  Uiso   1.00
H1218  H     0.02178   0.63914   0.81648   0.00000  Uiso   1.00
H1219  H     0.05538   0.59541   0.84456   0.00000  Uiso   1.00
H1220  H     0.01334   0.58869   0.79035   0.00000  Uiso   1.00
N1221  N     0.24896   0.38094   0.88264   0.00000  Uiso   1.00
H1222  H     0.25944   0.37369   0.91744   0.00000  Uiso   1.00
C1223  C     0.29176   0.38973   0.85630   0.00000  Uiso   1.00
H1224  H     0.31155   0.36085   0.85019   0.00000  Uiso   1.00
H1225  H     0.31999   0.41130   0.87631   0.00000  Uiso   1.00
H1226  H     0.27795   0.40457   0.82210   0.00000  Uiso   1.00
C1227  C     0.09061   0.44947   0.94548   0.00000  Uiso   1.00
H1228  H     0.09396   0.43926   0.91074   0.00000  Uiso   1.00
O1229  O     0.05230   0.43748   0.96274   0.00000  Uiso   1.00
C1230  C     0.24272   0.55053   0.72118   0.00000  Uiso   1.00
H1231  H     0.23937   0.56074   0.75592   0.00000  Uiso   1.00
O1232  O     0.28103   0.56252   0.70392   0.00000  Uiso   1.00
O1233  O     0.50000   0.43989   0.87291   0.00000  Uiso   1.00
O1234  O     0.50000   0.56011   0.79375   0.00000  Uiso   1.00
O1235  O     0.50000   0.43988   0.79372   0.00000  Uiso   1.00
O1236  O     0.50000   0.56012   0.87294   0.00000  Uiso   1.00
C1237  C     0.49938   0.42090   0.83356   0.00000  Uiso   1.00
C1238  C     0.50062   0.57910   0.83310   0.00000  Uiso   1.00
O1239  O     0.42495   0.50000   0.86379   0.00000  Uiso   1.00
O1240  O     0.57505   0.50000   0.80288   0.00000  Uiso   1.00
O1241  O     0.42494   0.49999   0.78460   0.00000  Uiso   1.00
O1242  O     0.57506   0.50001   0.88207   0.00000  Uiso   1.00
C1243  C     0.40138   0.49977   0.82141   0.00000  Uiso   1.00
C1244  C     0.59862   0.50023   0.84526   0.00000  Uiso   1.00
Cu1245 Cu    0.50000   0.50001   0.88022   0.00000  Uiso   1.00
Cu1246 Cu    0.50000   0.49999   0.78645   0.00000  Uiso   1.00
N1247  N     0.50001   0.50001   0.95069   0.00000  Uiso   1.00
N1248  N     0.49999   0.49999   0.71597   0.00000  Uiso   1.00
C1249  C     0.34615   0.49938   0.81482   0.00000  Uiso   1.00
C1250  C     0.65385   0.50062   0.85185   0.00000  Uiso   1.00
H1251  H     0.65984   0.49819   0.77919   0.00000  Uiso   1.00
H1252  H     0.34016   0.50181   0.88747   0.00000  Uiso   1.00
C1253  C     0.45735   0.35391   0.80829   0.00000  Uiso   1.00
C1254  C     0.54264   0.64609   0.85838   0.00000  Uiso   1.00
C1255  C     0.45899   0.64377   0.80767   0.00000  Uiso   1.00
C1256  C     0.54101   0.35623   0.85900   0.00000  Uiso   1.00
C1257  C     0.50130   0.62388   0.83259   0.00000  Uiso   1.00
C1258  C     0.49870   0.37612   0.83408   0.00000  Uiso   1.00
C1259  C     0.46449   0.47685   0.68838   0.00000  Uiso   1.00
C1260  C     0.53551   0.52315   0.97828   0.00000  Uiso   1.00
H1261  H     0.43669   0.45815   0.70505   0.00000  Uiso   1.00
H1262  H     0.56331   0.54185   0.96162   0.00000  Uiso   1.00
C1263  C     0.46401   0.47644   0.97225   0.00000  Uiso   1.00
C1264  C     0.53599   0.52356   0.69442   0.00000  Uiso   1.00
C1265  C     0.41192   0.37670   0.78511   0.00000  Uiso   1.00
H1266  H     0.40261   0.40631   0.79862   0.00000  Uiso   1.00
O1267  O     0.38511   0.36357   0.75032   0.00000  Uiso   1.00
C1268  C     0.58807   0.62330   0.88157   0.00000  Uiso   1.00
H1269  H     0.59740   0.59371   0.86803   0.00000  Uiso   1.00
O1270  O     0.61484   0.63641   0.91639   0.00000  Uiso   1.00
N1271  N     0.41770   0.61905   0.78403   0.00000  Uiso   1.00
H1272  H     0.40722   0.62630   0.74922   0.00000  Uiso   1.00
C1273  C     0.37490   0.61026   0.81036   0.00000  Uiso   1.00
H1274  H     0.35511   0.63914   0.81648   0.00000  Uiso   1.00
H1275  H     0.38872   0.59541   0.84456   0.00000  Uiso   1.00
H1276  H     0.34668   0.58869   0.79035   0.00000  Uiso   1.00
N1277  N     0.58229   0.38094   0.88264   0.00000  Uiso   1.00
H1278  H     0.59278   0.37369   0.91744   0.00000  Uiso   1.00
C1279  C     0.62510   0.38973   0.85630   0.00000  Uiso   1.00
H1280  H     0.64489   0.36085   0.85019   0.00000  Uiso   1.00
H1281  H     0.65332   0.41130   0.87631   0.00000  Uiso   1.00
H1282  H     0.61129   0.40457   0.82210   0.00000  Uiso   1.00
C1283  C     0.42394   0.44947   0.94548   0.00000  Uiso   1.00
H1284  H     0.42729   0.43926   0.91074   0.00000  Uiso   1.00
O1285  O     0.38564   0.43748   0.96274   0.00000  Uiso   1.00
C1286  C     0.57606   0.55053   0.72118   0.00000  Uiso   1.00
H1287  H     0.57271   0.56074   0.75592   0.00000  Uiso   1.00
O1288  O     0.61436   0.56252   0.70392   0.00000  Uiso   1.00
O1289  O     0.83333   0.43989   0.87291   0.00000  Uiso   1.00
O1290  O     0.83334   0.56011   0.79375   0.00000  Uiso   1.00
O1291  O     0.83333   0.43988   0.79372   0.00000  Uiso   1.00
O1292  O     0.83334   0.56012   0.87294   0.00000  Uiso   1.00
C1293  C     0.83271   0.42090   0.83356   0.00000  Uiso   1.00
C1294  C     0.83395   0.57910   0.83310   0.00000  Uiso   1.00
O1295  O     0.75828   0.50000   0.86379   0.00000  Uiso   1.00
O1296  O     0.90839   0.50000   0.80288   0.00000  Uiso   1.00
O1297  O     0.75828   0.49999   0.78460   0.00000  Uiso   1.00
O1298  O     0.90839   0.50001   0.88207   0.00000  Uiso   1.00
C1299  C     0.73472   0.49977   0.82141   0.00000  Uiso   1.00
C1300  C     0.93195   0.50023   0.84526   0.00000  Uiso   1.00
Cu1301 Cu    0.83333   0.50001   0.88022   0.00000  Uiso   1.00
Cu1302 Cu    0.83333   0.49999   0.78645   0.00000  Uiso   1.00
N1303  N     0.83335   0.50001   0.95069   0.00000  Uiso   1.00
N1304  N     0.83332   0.49999   0.71597   0.00000  Uiso   1.00
C1305  C     0.67949   0.49938   0.81482   0.00000  Uiso   1.00
C1306  C     0.98718   0.50062   0.85185   0.00000  Uiso   1.00
H1307  H     0.99318   0.49819   0.77919   0.00000  Uiso   1.00
H1308  H     0.67349   0.50181   0.88747   0.00000  Uiso   1.00
C1309  C     0.79069   0.35391   0.80829   0.00000  Uiso   1.00
C1310  C     0.87597   0.64609   0.85838   0.00000  Uiso   1.00
C1311  C     0.79232   0.64377   0.80767   0.00000  Uiso   1.00
C1312  C     0.87434   0.35623   0.85900   0.00000  Uiso   1.00
C1313  C     0.83463   0.62388   0.83259   0.00000  Uiso   1.00
C1314  C     0.83203   0.37612   0.83408   0.00000  Uiso   1.00
C1315  C     0.79782   0.47685   0.68838   0.00000  Uiso   1.00
C1316  C     0.86885   0.52315   0.97828   0.00000  Uiso   1.00
H1317  H     0.77003   0.45815   0.70505   0.00000  Uiso   1.00
H1318  H     0.89664   0.54185   0.96162   0.00000  Uiso   1.00
C1319  C     0.79734   0.47644   0.97225   0.00000  Uiso   1.00
C1320  C     0.86932   0.52356   0.69442   0.00000  Uiso   1.00
C1321  C     0.74525   0.37670   0.78511   0.00000  Uiso   1.00
H1322  H     0.73595   0.40631   0.79862   0.00000  Uiso   1.00
O1323  O     0.71844   0.36357   0.75032   0.00000  Uiso   1.00
C1324  C     0.92140   0.62330   0.88157   0.00000  Uiso   1.00
H1325  H     0.93074   0.59371   0.86803   0.00000  Uiso   1.00
O1326  O     0.94817   0.63641   0.91639   0.00000  Uiso   1.00
N1327  N     0.75104   0.61905   0.78403   0.00000  Uiso   1.00
H1328  H     0.74055   0.62630   0.74922   0.00000  Uiso   1.00
C1329  C     0.70824   0.61026   0.81036   0.00000  Uiso   1.00
H1330  H     0.68845   0.63914   0.81648   0.00000  Uiso   1.00
H1331  H     0.72205   0.59541   0.84456   0.00000  Uiso   1.00
H1332  H     0.68001   0.58869   0.79035   0.00000  Uiso   1.00
N1333  N     0.91563   0.38094   0.88264   0.00000  Uiso   1.00
H1334  H     0.92611   0.37369   0.91744   0.00000  Uiso   1.00
C1335  C     0.95843   0.38973   0.85630   0.00000  Uiso   1.00
H1336  H     0.97822   0.36085   0.85019   0.00000  Uiso   1.00
H1337  H     0.98666   0.41130   0.87631   0.00000  Uiso   1.00
H1338  H     0.94462   0.40457   0.82210   0.00000  Uiso   1.00
C1339  C     0.75728   0.44947   0.94548   0.00000  Uiso   1.00
H1340  H     0.76063   0.43926   0.91074   0.00000  Uiso   1.00
O1341  O     0.71897   0.43748   0.96274   0.00000  Uiso   1.00
C1342  C     0.90939   0.55053   0.72118   0.00000  Uiso   1.00
H1343  H     0.90604   0.56074   0.75592   0.00000  Uiso   1.00
O1344  O     0.94770   0.56252   0.70392   0.00000  Uiso   1.00
O1345  O     0.16666   0.77322   0.87291   0.00000  Uiso   1.00
O1346  O     0.16667   0.89345   0.79375   0.00000  Uiso   1.00
O1347  O     0.16666   0.77321   0.79372   0.00000  Uiso   1.00
O1348  O     0.16667   0.89346   0.87294   0.00000  Uiso   1.00
C1349  C     0.16605   0.75423   0.83356   0.00000  Uiso   1.00
C1350  C     0.16728   0.91244   0.83310   0.00000  Uiso   1.00
O1351  O     0.09161   0.83334   0.86379   0.00000  Uiso   1.00
O1352  O     0.24172   0.83333   0.80288   0.00000  Uiso   1.00
O1353  O     0.09161   0.83333   0.78460   0.00000  Uiso   1.00
O1354  O     0.24172   0.83334   0.88207   0.00000  Uiso   1.00
C1355  C     0.06805   0.83310   0.82141   0.00000  Uiso   1.00
C1356  C     0.26528   0.83356   0.84526   0.00000  Uiso   1.00
Cu1357 Cu    0.16667   0.83334   0.88022   0.00000  Uiso   1.00
Cu1358 Cu    0.16667   0.83333   0.78645   0.00000  Uiso   1.00
N1359  N     0.16668   0.83334   0.95069   0.00000  Uiso   1.00
N1360  N     0.16665   0.83332   0.71597   0.00000  Uiso   1.00
C1361  C     0.01282   0.83271   0.81482   0.00000  Uiso   1.00
C1362  C     0.32052   0.83395   0.85185   0.00000  Uiso   1.00
H1363  H     0.32651   0.83152   0.77919   0.00000  Uiso   1.00
H1364  H     0.00682   0.83514   0.88747   0.00000  Uiso   1.00
C1365  C     0.12402   0.68724   0.80829   0.00000  Uiso   1.00
C1366  C     0.20930   0.97942   0.85838   0.00000  Uiso   1.00
C1367  C     0.12565   0.97710   0.80767   0.00000  Uiso   1.00
C1368  C     0.20767   0.68956   0.85900   0.00000  Uiso   1.00
C1369  C     0.16796   0.95722   0.83259   0.00000  Uiso   1.00
C1370  C     0.16536   0.70945   0.83408   0.00000  Uiso   1.00
C1371  C     0.13115   0.81018   0.68838   0.00000  Uiso   1.00
C1372  C     0.20218   0.85648   0.97828   0.00000  Uiso   1.00
H1373  H     0.10336   0.79149   0.70505   0.00000  Uiso   1.00
H1374  H     0.22997   0.87518   0.96162   0.00000  Uiso   1.00
C1375  C     0.13068   0.80978   0.97225   0.00000  Uiso   1.00
C1376  C     0.20266   0.85689   0.69442   0.00000  Uiso   1.00
C1377  C     0.07859   0.71003   0.78511   0.00000  Uiso   1.00
H1378  H     0.06928   0.73964   0.79862   0.00000  Uiso   1.00
O1379  O     0.05178   0.69690   0.75032   0.00000  Uiso   1.00
C1380  C     0.25474   0.95664   0.88157   0.00000  Uiso   1.00
H1381  H     0.26407   0.92704   0.86803   0.00000  Uiso   1.00
O1382  O     0.28150   0.96975   0.91639   0.00000  Uiso   1.00
N1383  N     0.08437   0.95239   0.78403   0.00000  Uiso   1.00
H1384  H     0.07389   0.95964   0.74922   0.00000  Uiso   1.00
C1385  C     0.04157   0.94359   0.81036   0.00000  Uiso   1.00
H1386  H     0.02178   0.97247   0.81648   0.00000  Uiso   1.00
H1387  H     0.05538   0.92874   0.84456   0.00000  Uiso   1.00
H1388  H     0.01334   0.92202   0.79035   0.00000  Uiso   1.00
N1389  N     0.24896   0.71428   0.88264   0.00000  Uiso   1.00
H1390  H     0.25944   0.70703   0.91744   0.00000  Uiso   1.00
C1391  C     0.29176   0.72307   0.85630   0.00000  Uiso   1.00
H1392  H     0.31155   0.69418   0.85019   0.00000  Uiso   1.00
H1393  H     0.31999   0.74464   0.87631   0.00000  Uiso   1.00
H1394  H     0.27795   0.73791   0.82210   0.00000  Uiso   1.00
C1395  C     0.09061   0.78280   0.94548   0.00000  Uiso   1.00
H1396  H     0.09396   0.77259   0.91074   0.00000  Uiso   1.00
O1397  O     0.05230   0.77081   0.96274   0.00000  Uiso   1.00
C1398  C     0.24272   0.88386   0.72118   0.00000  Uiso   1.00
H1399  H     0.23937   0.89408   0.75592   0.00000  Uiso   1.00
O1400  O     0.28103   0.89586   0.70392   0.00000  Uiso   1.00
O1401  O     0.50000   0.77322   0.87291   0.00000  Uiso   1.00
O1402  O     0.50000   0.89345   0.79375   0.00000  Uiso   1.00
O1403  O     0.50000   0.77321   0.79372   0.00000  Uiso   1.00
O1404  O     0.50000   0.89346   0.87294   0.00000  Uiso   1.00
C1405  C     0.49938   0.75423   0.83356   0.00000  Uiso   1.00
C1406  C     0.50062   0.91244   0.83310   0.00000  Uiso   1.00
O1407  O     0.42495   0.83334   0.86379   0.00000  Uiso   1.00
O1408  O     0.57505   0.83333   0.80288   0.00000  Uiso   1.00
O1409  O     0.42494   0.83333   0.78460   0.00000  Uiso   1.00
O1410  O     0.57506   0.83334   0.88207   0.00000  Uiso   1.00
C1411  C     0.40138   0.83310   0.82141   0.00000  Uiso   1.00
C1412  C     0.59862   0.83356   0.84526   0.00000  Uiso   1.00
Cu1413 Cu    0.50000   0.83334   0.88022   0.00000  Uiso   1.00
Cu1414 Cu    0.50000   0.83333   0.78645   0.00000  Uiso   1.00
N1415  N     0.50001   0.83334   0.95069   0.00000  Uiso   1.00
N1416  N     0.49999   0.83332   0.71597   0.00000  Uiso   1.00
C1417  C     0.34615   0.83271   0.81482   0.00000  Uiso   1.00
C1418  C     0.65385   0.83395   0.85185   0.00000  Uiso   1.00
H1419  H     0.65984   0.83152   0.77919   0.00000  Uiso   1.00
H1420  H     0.34016   0.83514   0.88747   0.00000  Uiso   1.00
C1421  C     0.45735   0.68724   0.80829   0.00000  Uiso   1.00
C1422  C     0.54264   0.97942   0.85838   0.00000  Uiso   1.00
C1423  C     0.45899   0.97710   0.80767   0.00000  Uiso   1.00
C1424  C     0.54101   0.68956   0.85900   0.00000  Uiso   1.00
C1425  C     0.50130   0.95722   0.83259   0.00000  Uiso   1.00
C1426  C     0.49870   0.70945   0.83408   0.00000  Uiso   1.00
C1427  C     0.46449   0.81018   0.68838   0.00000  Uiso   1.00
C1428  C     0.53551   0.85648   0.97828   0.00000  Uiso   1.00
H1429  H     0.43669   0.79149   0.70505   0.00000  Uiso   1.00
H1430  H     0.56331   0.87518   0.96162   0.00000  Uiso   1.00
C1431  C     0.46401   0.80978   0.97225   0.00000  Uiso   1.00
C1432  C     0.53599   0.85689   0.69442   0.00000  Uiso   1.00
C1433  C     0.41192   0.71003   0.78511   0.00000  Uiso   1.00
H1434  H     0.40261   0.73964   0.79862   0.00000  Uiso   1.00
O1435  O     0.38511   0.69690   0.75032   0.00000  Uiso   1.00
C1436  C     0.58807   0.95664   0.88157   0.00000  Uiso   1.00
H1437  H     0.59740   0.92704   0.86803   0.00000  Uiso   1.00
O1438  O     0.61484   0.96975   0.91639   0.00000  Uiso   1.00
N1439  N     0.41770   0.95239   0.78403   0.00000  Uiso   1.00
H1440  H     0.40722   0.95964   0.74922   0.00000  Uiso   1.00
C1441  C     0.37490   0.94359   0.81036   0.00000  Uiso   1.00
H1442  H     0.35511   0.97247   0.81648   0.00000  Uiso   1.00
H1443  H     0.38872   0.92874   0.84456   0.00000  Uiso   1.00
H1444  H     0.34668   0.92202   0.79035   0.00000  Uiso   1.00
N1445  N     0.58229   0.71428   0.88264   0.00000  Uiso   1.00
H1446  H     0.59278   0.70703   0.91744   0.00000  Uiso   1.00
C1447  C     0.62510   0.72307   0.85630   0.00000  Uiso   1.00
H1448  H     0.64489   0.69418   0.85019   0.00000  Uiso   1.00
H1449  H     0.65332   0.74464   0.87631   0.00000  Uiso   1.00
H1450  H     0.61129   0.73791   0.82210   0.00000  Uiso   1.00
C1451  C     0.42394   0.78280   0.94548   0.00000  Uiso   1.00
H1452  H     0.42729   0.77259   0.91074   0.00000  Uiso   1.00
O1453  O     0.38564   0.77081   0.96274   0.00000  Uiso   1.00
C1454  C     0.57606   0.88386   0.72118   0.00000  Uiso   1.00
H1455  H     0.57271   0.89408   0.75592   0.00000  Uiso   1.00
O1456  O     0.61436   0.89586   0.70392   0.00000  Uiso   1.00
O1457  O     0.83333   0.77322   0.87291   0.00000  Uiso   1.00
O1458  O     0.83334   0.89345   0.79375   0.00000  Uiso   1.00
O1459  O     0.83333   0.77321   0.79372   0.00000  Uiso   1.00
O1460  O     0.83334   0.89346   0.87294   0.00000  Uiso   1.00
C1461  C     0.83271   0.75423   0.83356   0.00000  Uiso   1.00
C1462  C     0.83395   0.91244   0.83310   0.00000  Uiso   1.00
O1463  O     0.75828   0.83334   0.86379   0.00000  Uiso   1.00
O1464  O     0.90839   0.83333   0.80288   0.00000  Uiso   1.00
O1465  O     0.75828   0.83333   0.78460   0.00000  Uiso   1.00
O1466  O     0.90839   0.83334   0.88207   0.00000  Uiso   1.00
C1467  C     0.73472   0.83310   0.82141   0.00000  Uiso   1.00
C1468  C     0.93195   0.83356   0.84526   0.00000  Uiso   1.00
Cu1469 Cu    0.83333   0.83334   0.88022   0.00000  Uiso   1.00
Cu1470 Cu    0.83333   0.83333   0.78645   0.00000  Uiso   1.00
N1471  N     0.83335   0.83334   0.95069   0.00000  Uiso   1.00
N1472  N     0.83332   0.83332   0.71597   0.00000  Uiso   1.00
C1473  C     0.67949   0.83271   0.81482   0.00000  Uiso   1.00
C1474  C     0.98718   0.83395   0.85185   0.00000  Uiso   1.00
H1475  H     0.99318   0.83152   0.77919   0.00000  Uiso   1.00
H1476  H     0.67349   0.83514   0.88747   0.00000  Uiso   1.00
C1477  C     0.79069   0.68724   0.80829   0.00000  Uiso   1.00
C1478  C     0.87597   0.97942   0.85838   0.00000  Uiso   1.00
C1479  C     0.79232   0.97710   0.80767   0.00000  Uiso   1.00
C1480  C     0.87434   0.68956   0.85900   0.00000  Uiso   1.00
C1481  C     0.83463   0.95722   0.83259   0.00000  Uiso   1.00
C1482  C     0.83203   0.70945   0.83408   0.00000  Uiso   1.00
C1483  C     0.79782   0.81018   0.68838   0.00000  Uiso   1.00
C1484  C     0.86885   0.85648   0.97828   0.00000  Uiso   1.00
H1485  H     0.77003   0.79149   0.70505   0.00000  Uiso   1.00
H1486  H     0.89664   0.87518   0.96162   0.00000  Uiso   1.00
C1487  C     0.79734   0.80978   0.97225   0.00000  Uiso   1.00
C1488  C     0.86932   0.85689   0.69442   0.00000  Uiso   1.00
C1489  C     0.74525   0.71003   0.78511   0.00000  Uiso   1.00
H1490  H     0.73595   0.73964   0.79862   0.00000  Uiso   1.00
O1491  O     0.71844   0.69690   0.75032   0.00000  Uiso   1.00
C1492  C     0.92140   0.95664   0.88157   0.00000  Uiso   1.00
H1493  H     0.93074   0.92704   0.86803   0.00000  Uiso   1.00
O1494  O     0.94817   0.96975   0.91639   0.00000  Uiso   1.00
N1495  N     0.75104   0.95239   0.78403   0.00000  Uiso   1.00
H1496  H     0.74055   0.95964   0.74922   0.00000  Uiso   1.00
C1497  C     0.70824   0.94359   0.81036   0.00000  Uiso   1.00
H1498  H     0.68845   0.97247   0.81648   0.00000  Uiso   1.00
H1499  H     0.72205   0.92874   0.84456   0.00000  Uiso   1.00
H1500  H     0.68001   0.92202   0.79035   0.00000  Uiso   1.00
N1501  N     0.91563   0.71428   0.88264   0.00000  Uiso   1.00
H1502  H     0.92611   0.70703   0.91744   0.00000  Uiso   1.00
C1503  C     0.95843   0.72307   0.85630   0.00000  Uiso   1.00
H1504  H     0.97822   0.69418   0.85019   0.00000  Uiso   1.00
H1505  H     0.98666   0.74464   0.87631   0.00000  Uiso   1.00
H1506  H     0.94462   0.73791   0.82210   0.00000  Uiso   1.00
C1507  C     0.75728   0.78280   0.94548   0.00000  Uiso   1.00
H1508  H     0.76063   0.77259   0.91074   0.00000  Uiso   1.00
O1509  O     0.71897   0.77081   0.96274   0.00000  Uiso   1.00
C1510  C     0.90939   0.88386   0.72118   0.00000  Uiso   1.00
H1511  H     0.90604   0.89408   0.75592   0.00000  Uiso   1.00
O1512  O     0.94770   0.89586   0.70392   0.00000  Uiso   1.00
loop_
_geom_bond_atom_site_label_1
_geom_bond_atom_site_label_2
_geom_bond_distance
_geom_bond_site_symmetry_2
_ccdc_geom_bond_type
O1     C5      1.295   .     A
O1     Cu13    1.957   .     S
O2     C6      1.295   .     A
O2     Cu14    1.957   .     S
O3     Cu14    1.950   .     S
O3     C5      1.293   .     A
O4     C6      1.293   .     A
O4     Cu13    1.950   .     S
C5     C26     1.446   .     S
C6     C25     1.446   .     S
O7     Cu13    1.957   .     S
O7     C11     1.294   .     A
O8     C12     1.294   .     A
O8     Cu14    1.957   .     S
O9     Cu14    1.955   .     S
O9     C11     1.291   .     A
O10    C12     1.291   .     A
O10    Cu13    1.955   .     S
C11    C17     1.431   .     S
C12    C18     1.431   .     S
Cu13   Cu14    2.698   .     S
Cu13   N15     2.028   .     S
Cu14   N16     2.028   .     S
N15    C31     1.391   .     A
N15    C28     1.355   .     A
N16    C27     1.355   .     A
N16    C32     1.391   .     A
C17    C130    1.330   1_455 S
C17    H131    1.087   1_455 S
C18    C73     1.330   .     S
C18    H76     1.087   .     S
H19    C73     1.087   .     S
H20    C130    1.087   1_455 S
C21    C26     1.412   .     A
C21    C33     1.496   .     S
C21    C359    1.407   1_545 S
C22    C36     1.496   .     S
C22    C25     1.412   .     A
C22    C192    1.407   .     S
C23    C25     1.407   .     A
C23    N39     1.427   .     S
C23    C189    1.407   .     S
C24    N45     1.427   .     S
C24    C26     1.407   .     A
C24    C358    1.407   1_545 S
C27    H29     1.083   .     S
C27    C1039   1.422   1_554 S
C28    H30     1.083   .     S
C28    C536    1.422   .     S
C31    C51     1.485   .     S
C31    C531    1.422   .     S
C32    C54     1.485   .     S
C32    C1036   1.422   1_554 S
C33    H34     1.085   .     S
C33    O35     1.220   .     D
C36    H37     1.085   .     S
C36    O38     1.220   .     D
N39    C41     1.447   .     S
N39    H40     1.029   .     S
C41    H42     1.109   .     S
C41    H43     1.111   .     S
C41    H44     1.110   .     S
N45    H46     1.030   .     S
N45    C47     1.447   .     S
C47    H48     1.109   .     S
C47    H49     1.110   .     S
C47    H50     1.111   .     S
C51    H52     1.073   .     S
C51    O53     1.222   .     D
C54    O56     1.222   .     D
C54    H55     1.073   .     S
O57    C61     1.295   .     A
O57    Cu69    1.957   .     S
O58    C62     1.295   .     A
O58    Cu70    1.957   .     S
O59    Cu70    1.950   .     S
O59    C61     1.293   .     A
O60    C62     1.293   .     A
O60    Cu69    1.950   .     S
C61    C82     1.446   .     S
C62    C81     1.446   .     S
O63    Cu69    1.957   .     S
O63    C67     1.294   .     A
O64    C68     1.294   .     A
O64    Cu70    1.957   .     S
O65    Cu70    1.955   .     S
O65    C67     1.291   .     A
O66    C68     1.291   .     A
O66    Cu69    1.955   .     S
C67    C73     1.431   .     S
C68    C74     1.431   .     S
Cu69   Cu70    2.698   .     S
Cu69   N71     2.028   .     S
Cu70   N72     2.028   .     S
N71    C87     1.391   .     A
N71    C84     1.355   .     A
N72    C83     1.355   .     A
N72    C88     1.391   .     A
C74    C129    1.330   .     S
C74    H132    1.087   .     S
H75    C129    1.087   .     S
C77    C82     1.412   .     A
C77    C89     1.496   .     S
C77    C415    1.407   1_545 S
C78    C92     1.496   .     S
C78    C81     1.412   .     A
C78    C248    1.407   .     S
C79    C81     1.407   .     A
C79    N95     1.427   .     S
C79    C245    1.407   .     S
C80    N101    1.427   .     S
C80    C82     1.407   .     A
C80    C414    1.407   1_545 S
C83    H85     1.083   .     S
C83    C1095   1.422   1_554 S
C84    H86     1.083   .     S
C84    C592    1.422   .     S
C87    C107    1.485   .     S
C87    C587    1.422   .     S
C88    C110    1.485   .     S
C88    C1092   1.422   1_554 S
C89    H90     1.085   .     S
C89    O91     1.220   .     D
C92    H93     1.085   .     S
C92    O94     1.220   .     D
N95    C97     1.447   .     S
N95    H96     1.029   .     S
C97    H98     1.109   .     S
C97    H99     1.111   .     S
C97    H100    1.110   .     S
N101   H102    1.030   .     S
N101   C103    1.447   .     S
C103   H104    1.109   .     S
C103   H105    1.110   .     S
C103   H106    1.111   .     S
C107   H108    1.073   .     S
C107   O109    1.222   .     D
C110   O112    1.222   .     D
C110   H111    1.073   .     S
O113   C117    1.295   .     A
O113   Cu125   1.957   .     S
O114   C118    1.295   .     A
O114   Cu126   1.957   .     S
O115   Cu126   1.950   .     S
O115   C117    1.293   .     A
O116   C118    1.293   .     A
O116   Cu125   1.950   .     S
C117   C138    1.446   .     S
C118   C137    1.446   .     S
O119   Cu125   1.957   .     S
O119   C123    1.294   .     A
O120   C124    1.294   .     A
O120   Cu126   1.957   .     S
O121   Cu126   1.955   .     S
O121   C123    1.291   .     A
O122   C124    1.291   .     A
O122   Cu125   1.955   .     S
C123   C129    1.431   .     S
C124   C130    1.431   .     S
Cu125  Cu126   2.698   .     S
Cu125  N127    2.028   .     S
Cu126  N128    2.028   .     S
N127   C143    1.391   .     A
N127   C140    1.355   .     A
N128   C139    1.355   .     A
N128   C144    1.391   .     A
C130   C17     1.330   1_655 S
C130   H20     1.087   1_655 S
H131   C17     1.087   1_655 S
C133   C138    1.412   .     A
C133   C145    1.496   .     S
C133   C471    1.407   1_545 S
C134   C148    1.496   .     S
C134   C137    1.412   .     A
C134   C304    1.407   .     S
C135   C137    1.407   .     A
C135   N151    1.427   .     S
C135   C301    1.407   .     S
C136   N157    1.427   .     S
C136   C138    1.407   .     A
C136   C470    1.407   1_545 S
C139   H141    1.083   .     S
C139   C1151   1.422   1_554 S
C140   H142    1.083   .     S
C140   C648    1.422   .     S
C143   C163    1.485   .     S
C143   C643    1.422   .     S
C144   C166    1.485   .     S
C144   C1148   1.422   1_554 S
C145   H146    1.085   .     S
C145   O147    1.220   .     D
C148   H149    1.085   .     S
C148   O150    1.220   .     D
N151   C153    1.447   .     S
N151   H152    1.029   .     S
C153   H154    1.109   .     S
C153   H155    1.111   .     S
C153   H156    1.110   .     S
N157   H158    1.030   .     S
N157   C159    1.447   .     S
C159   H160    1.109   .     S
C159   H161    1.110   .     S
C159   H162    1.111   .     S
C163   H164    1.073   .     S
C163   O165    1.222   .     D
C166   O168    1.222   .     D
C166   H167    1.073   .     S
O169   C173    1.295   .     A
O169   Cu181   1.957   .     S
O170   C174    1.295   .     A
O170   Cu182   1.957   .     S
O171   Cu182   1.950   .     S
O171   C173    1.293   .     A
O172   C174    1.293   .     A
O172   Cu181   1.950   .     S
C173   C194    1.446   .     S
C174   C193    1.446   .     S
O175   Cu181   1.957   .     S
O175   C179    1.294   .     A
O176   C180    1.294   .     A
O176   Cu182   1.957   .     S
O177   Cu182   1.955   .     S
O177   C179    1.291   .     A
O178   C180    1.291   .     A
O178   Cu181   1.955   .     S
C179   C185    1.431   .     S
C180   C186    1.431   .     S
Cu181  Cu182   2.698   .     S
Cu181  N183    2.028   .     S
Cu182  N184    2.028   .     S
N183   C199    1.391   .     A
N183   C196    1.355   .     A
N184   C195    1.355   .     A
N184   C200    1.391   .     A
C185   C298    1.330   1_455 S
C185   H299    1.087   1_455 S
C186   C241    1.330   .     S
C186   H244    1.087   .     S
H187   C241    1.087   .     S
H188   C298    1.087   1_455 S
C189   C194    1.412   .     A
C189   C201    1.496   .     S
C190   C204    1.496   .     S
C190   C193    1.412   .     A
C190   C360    1.407   .     S
C191   C193    1.407   .     A
C191   N207    1.427   .     S
C191   C357    1.407   .     S
C192   N213    1.427   .     S
C192   C194    1.407   .     A
C195   H197    1.083   .     S
C195   C1207   1.422   1_554 S
C196   H198    1.083   .     S
C196   C704    1.422   .     S
C199   C219    1.485   .     S
C199   C699    1.422   .     S
C200   C222    1.485   .     S
C200   C1204   1.422   1_554 S
C201   H202    1.085   .     S
C201   O203    1.220   .     D
C204   H205    1.085   .     S
C204   O206    1.220   .     D
N207   C209    1.447   .     S
N207   H208    1.029   .     S
C209   H210    1.109   .     S
C209   H211    1.111   .     S
C209   H212    1.110   .     S
N213   H214    1.030   .     S
N213   C215    1.447   .     S
C215   H216    1.109   .     S
C215   H217    1.110   .     S
C215   H218    1.111   .     S
C219   H220    1.073   .     S
C219   O221    1.222   .     D
C222   O224    1.222   .     D
C222   H223    1.073   .     S
O225   C229    1.295   .     A
O225   Cu237   1.957   .     S
O226   C230    1.295   .     A
O226   Cu238   1.957   .     S
O227   Cu238   1.950   .     S
O227   C229    1.293   .     A
O228   C230    1.293   .     A
O228   Cu237   1.950   .     S
C229   C250    1.446   .     S
C230   C249    1.446   .     S
O231   Cu237   1.957   .     S
O231   C235    1.294   .     A
O232   C236    1.294   .     A
O232   Cu238   1.957   .     S
O233   Cu238   1.955   .     S
O233   C235    1.291   .     A
O234   C236    1.291   .     A
O234   Cu237   1.955   .     S
C235   C241    1.431   .     S
C236   C242    1.431   .     S
Cu237  Cu238   2.698   .     S
Cu237  N239    2.028   .     S
Cu238  N240    2.028   .     S
N239   C255    1.391   .     A
N239   C252    1.355   .     A
N240   C251    1.355   .     A
N240   C256    1.391   .     A
C242   C297    1.330   .     S
C242   H300    1.087   .     S
H243   C297    1.087   .     S
C245   C250    1.412   .     A
C245   C257    1.496   .     S
C246   C260    1.496   .     S
C246   C249    1.412   .     A
C246   C416    1.407   .     S
C247   C249    1.407   .     A
C247   N263    1.427   .     S
C247   C413    1.407   .     S
C248   N269    1.427   .     S
C248   C250    1.407   .     A
C251   H253    1.083   .     S
C251   C1263   1.422   1_554 S
C252   H254    1.083   .     S
C252   C760    1.422   .     S
C255   C275    1.485   .     S
C255   C755    1.422   .     S
C256   C278    1.485   .     S
C256   C1260   1.422   1_554 S
C257   H258    1.085   .     S
C257   O259    1.220   .     D
C260   H261    1.085   .     S
C260   O262    1.220   .     D
N263   C265    1.447   .     S
N263   H264    1.029   .     S
C265   H266    1.109   .     S
C265   H267    1.111   .     S
C265   H268    1.110   .     S
N269   H270    1.030   .     S
N269   C271    1.447   .     S
C271   H272    1.109   .     S
C271   H273    1.110   .     S
C271   H274    1.111   .     S
C275   H276    1.073   .     S
C275   O277    1.222   .     D
C278   O280    1.222   .     D
C278   H279    1.073   .     S
O281   C285    1.295   .     A
O281   Cu293   1.957   .     S
O282   C286    1.295   .     A
O282   Cu294   1.957   .     S
O283   Cu294   1.950   .     S
O283   C285    1.293   .     A
O284   C286    1.293   .     A
O284   Cu293   1.950   .     S
C285   C306    1.446   .     S
C286   C305    1.446   .     S
O287   Cu293   1.957   .     S
O287   C291    1.294   .     A
O288   C292    1.294   .     A
O288   Cu294   1.957   .     S
O289   Cu294   1.955   .     S
O289   C291    1.291   .     A
O290   C292    1.291   .     A
O290   Cu293   1.955   .     S
C291   C297    1.431   .     S
C292   C298    1.431   .     S
Cu293  Cu294   2.698   .     S
Cu293  N295    2.028   .     S
Cu294  N296    2.028   .     S
N295   C311    1.391   .     A
N295   C308    1.355   .     A
N296   C307    1.355   .     A
N296   C312    1.391   .     A
C298   C185    1.330   1_655 S
C298   H188    1.087   1_655 S
H299   C185    1.087   1_655 S
C301   C306    1.412   .     A
C301   C313    1.496   .     S
C302   C316    1.496   .     S
C302   C305    1.412   .     A
C302   C472    1.407   .     S
C303   C305    1.407   .     A
C303   N319    1.427   .     S
C303   C469    1.407   .     S
C304   N325    1.427   .     S
C304   C306    1.407   .     A
C307   H309    1.083   .     S
C307   C1319   1.422   1_554 S
C308   H310    1.083   .     S
C308   C816    1.422   .     S
C311   C331    1.485   .     S
C311   C811    1.422   .     S
C312   C334    1.485   .     S
C312   C1316   1.422   1_554 S
C313   H314    1.085   .     S
C313   O315    1.220   .     D
C316   H317    1.085   .     S
C316   O318    1.220   .     D
N319   C321    1.447   .     S
N319   H320    1.029   .     S
C321   H322    1.109   .     S
C321   H323    1.111   .     S
C321   H324    1.110   .     S
N325   H326    1.030   .     S
N325   C327    1.447   .     S
C327   H328    1.109   .     S
C327   H329    1.110   .     S
C327   H330    1.111   .     S
C331   H332    1.073   .     S
C331   O333    1.222   .     D
C334   O336    1.222   .     D
C334   H335    1.073   .     S
O337   C341    1.295   .     A
O337   Cu349   1.957   .     S
O338   C342    1.295   .     A
O338   Cu350   1.957   .     S
O339   Cu350   1.950   .     S
O339   C341    1.293   .     A
O340   C342    1.293   .     A
O340   Cu349   1.950   .     S
C341   C362    1.446   .     S
C342   C361    1.446   .     S
O343   Cu349   1.957   .     S
O343   C347    1.294   .     A
O344   C348    1.294   .     A
O344   Cu350   1.957   .     S
O345   Cu350   1.955   .     S
O345   C347    1.291   .     A
O346   C348    1.291   .     A
O346   Cu349   1.955   .     S
C347   C353    1.431   .     S
C348   C354    1.431   .     S
Cu349  Cu350   2.698   .     S
Cu349  N351    2.028   .     S
Cu350  N352    2.028   .     S
N351   C367    1.391   .     A
N351   C364    1.355   .     A
N352   C363    1.355   .     A
N352   C368    1.391   .     A
C353   C466    1.330   1_455 S
C353   H467    1.087   1_455 S
C354   C409    1.330   .     S
C354   H412    1.087   .     S
H355   C409    1.087   .     S
H356   C466    1.087   1_455 S
C357   C362    1.412   .     A
C357   C369    1.496   .     S
C358   C372    1.496   .     S
C358   C361    1.412   .     A
C358   C24     1.407   1_565 S
C359   C361    1.407   .     A
C359   N375    1.427   .     S
C359   C21     1.407   1_565 S
C360   N381    1.427   .     S
C360   C362    1.407   .     A
C363   H365    1.083   .     S
C363   C1375   1.422   1_554 S
C364   H366    1.083   .     S
C364   C872    1.422   .     S
C367   C387    1.485   .     S
C367   C867    1.422   .     S
C368   C390    1.485   .     S
C368   C1372   1.422   1_554 S
C369   H370    1.085   .     S
C369   O371    1.220   .     D
C372   H373    1.085   .     S
C372   O374    1.220   .     D
N375   C377    1.447   .     S
N375   H376    1.029   .     S
C377   H378    1.109   .     S
C377   H379    1.111   .     S
C377   H380    1.110   .     S
N381   H382    1.030   .     S
N381   C383    1.447   .     S
C383   H384    1.109   .     S
C383   H385    1.110   .     S
C383   H386    1.111   .     S
C387   H388    1.073   .     S
C387   O389    1.222   .     D
C390   O392    1.222   .     D
C390   H391    1.073   .     S
O393   C397    1.295   .     A
O393   Cu405   1.957   .     S
O394   C398    1.295   .     A
O394   Cu406   1.957   .     S
O395   Cu406   1.950   .     S
O395   C397    1.293   .     A
O396   C398    1.293   .     A
O396   Cu405   1.950   .     S
C397   C418    1.446   .     S
C398   C417    1.446   .     S
O399   Cu405   1.957   .     S
O399   C403    1.294   .     A
O400   C404    1.294   .     A
O400   Cu406   1.957   .     S
O401   Cu406   1.955   .     S
O401   C403    1.291   .     A
O402   C404    1.291   .     A
O402   Cu405   1.955   .     S
C403   C409    1.431   .     S
C404   C410    1.431   .     S
Cu405  Cu406   2.698   .     S
Cu405  N407    2.028   .     S
Cu406  N408    2.028   .     S
N407   C423    1.391   .     A
N407   C420    1.355   .     A
N408   C419    1.355   .     A
N408   C424    1.391   .     A
C410   C465    1.330   .     S
C410   H468    1.087   .     S
H411   C465    1.087   .     S
C413   C418    1.412   .     A
C413   C425    1.496   .     S
C414   C428    1.496   .     S
C414   C417    1.412   .     A
C414   C80     1.407   1_565 S
C415   C417    1.407   .     A
C415   N431    1.427   .     S
C415   C77     1.407   1_565 S
C416   N437    1.427   .     S
C416   C418    1.407   .     A
C419   H421    1.083   .     S
C419   C1431   1.422   1_554 S
C420   H422    1.083   .     S
C420   C928    1.422   .     S
C423   C443    1.485   .     S
C423   C923    1.422   .     S
C424   C446    1.485   .     S
C424   C1428   1.422   1_554 S
C425   H426    1.085   .     S
C425   O427    1.220   .     D
C428   H429    1.085   .     S
C428   O430    1.220   .     D
N431   C433    1.447   .     S
N431   H432    1.029   .     S
C433   H434    1.109   .     S
C433   H435    1.111   .     S
C433   H436    1.110   .     S
N437   H438    1.030   .     S
N437   C439    1.447   .     S
C439   H440    1.109   .     S
C439   H441    1.110   .     S
C439   H442    1.111   .     S
C443   H444    1.073   .     S
C443   O445    1.222   .     D
C446   O448    1.222   .     D
C446   H447    1.073   .     S
O449   C453    1.295   .     A
O449   Cu461   1.957   .     S
O450   C454    1.295   .     A
O450   Cu462   1.957   .     S
O451   Cu462   1.950   .     S
O451   C453    1.293   .     A
O452   C454    1.293   .     A
O452   Cu461   1.950   .     S
C453   C474    1.446   .     S
C454   C473    1.446   .     S
O455   Cu461   1.957   .     S
O455   C459    1.294   .     A
O456   C460    1.294   .     A
O456   Cu462   1.957   .     S
O457   Cu462   1.955   .     S
O457   C459    1.291   .     A
O458   C460    1.291   .     A
O458   Cu461   1.955   .     S
C459   C465    1.431   .     S
C460   C466    1.431   .     S
Cu461  Cu462   2.698   .     S
Cu461  N463    2.028   .     S
Cu462  N464    2.028   .     S
N463   C479    1.391   .     A
N463   C476    1.355   .     A
N464   C475    1.355   .     A
N464   C480    1.391   .     A
C466   C353    1.330   1_655 S
C466   H356    1.087   1_655 S
H467   C353    1.087   1_655 S
C469   C474    1.412   .     A
C469   C481    1.496   .     S
C470   C484    1.496   .     S
C470   C473    1.412   .     A
C470   C136    1.407   1_565 S
C471   C473    1.407   .     A
C471   N487    1.427   .     S
C471   C133    1.407   1_565 S
C472   N493    1.427   .     S
C472   C474    1.407   .     A
C475   H477    1.083   .     S
C475   C1487   1.422   1_554 S
C476   H478    1.083   .     S
C476   C984    1.422   .     S
C479   C499    1.485   .     S
C479   C979    1.422   .     S
C480   C502    1.485   .     S
C480   C1484   1.422   1_554 S
C481   H482    1.085   .     S
C481   O483    1.220   .     D
C484   H485    1.085   .     S
C484   O486    1.220   .     D
N487   C489    1.447   .     S
N487   H488    1.029   .     S
C489   H490    1.109   .     S
C489   H491    1.111   .     S
C489   H492    1.110   .     S
N493   H494    1.030   .     S
N493   C495    1.447   .     S
C495   H496    1.109   .     S
C495   H497    1.110   .     S
C495   H498    1.111   .     S
C499   H500    1.073   .     S
C499   O501    1.222   .     D
C502   O504    1.222   .     D
C502   H503    1.073   .     S
O505   C509    1.295   .     A
O505   Cu517   1.957   .     S
O506   C510    1.295   .     A
O506   Cu518   1.957   .     S
O507   Cu518   1.950   .     S
O507   C509    1.293   .     A
O508   C510    1.293   .     A
O508   Cu517   1.950   .     S
C509   C530    1.446   .     S
C510   C529    1.446   .     S
O511   Cu517   1.957   .     S
O511   C515    1.294   .     A
O512   C516    1.294   .     A
O512   Cu518   1.957   .     S
O513   Cu518   1.955   .     S
O513   C515    1.291   .     A
O514   C516    1.291   .     A
O514   Cu517   1.955   .     S
C515   C521    1.431   .     S
C516   C522    1.431   .     S
Cu517  Cu518   2.698   .     S
Cu517  N519    2.028   .     S
Cu518  N520    2.028   .     S
N519   C535    1.391   .     A
N519   C532    1.355   .     A
N520   C531    1.355   .     A
N520   C536    1.391   .     A
C521   C634    1.330   1_455 S
C521   H635    1.087   1_455 S
C522   C577    1.330   .     S
C522   H580    1.087   .     S
H523   C577    1.087   .     S
H524   C634    1.087   1_455 S
C525   C530    1.412   .     A
C525   C537    1.496   .     S
C525   C863    1.407   1_545 S
C526   C540    1.496   .     S
C526   C529    1.412   .     A
C526   C696    1.407   .     S
C527   C529    1.407   .     A
C527   N543    1.427   .     S
C527   C693    1.407   .     S
C528   N549    1.427   .     S
C528   C530    1.407   .     A
C528   C862    1.407   1_545 S
C531   H533    1.083   .     S
C532   H534    1.083   .     S
C532   C1040   1.422   .     S
C535   C555    1.485   .     S
C535   C1035   1.422   .     S
C536   C558    1.485   .     S
C537   H538    1.085   .     S
C537   O539    1.220   .     D
C540   H541    1.085   .     S
C540   O542    1.220   .     D
N543   C545    1.447   .     S
N543   H544    1.029   .     S
C545   H546    1.109   .     S
C545   H547    1.111   .     S
C545   H548    1.110   .     S
N549   H550    1.030   .     S
N549   C551    1.447   .     S
C551   H552    1.109   .     S
C551   H553    1.110   .     S
C551   H554    1.111   .     S
C555   H556    1.073   .     S
C555   O557    1.222   .     D
C558   O560    1.222   .     D
C558   H559    1.073   .     S
O561   C565    1.295   .     A
O561   Cu573   1.957   .     S
O562   C566    1.295   .     A
O562   Cu574   1.957   .     S
O563   Cu574   1.950   .     S
O563   C565    1.293   .     A
O564   C566    1.293   .     A
O564   Cu573   1.950   .     S
C565   C586    1.446   .     S
C566   C585    1.446   .     S
O567   Cu573   1.957   .     S
O567   C571    1.294   .     A
O568   C572    1.294   .     A
O568   Cu574   1.957   .     S
O569   Cu574   1.955   .     S
O569   C571    1.291   .     A
O570   C572    1.291   .     A
O570   Cu573   1.955   .     S
C571   C577    1.431   .     S
C572   C578    1.431   .     S
Cu573  Cu574   2.698   .     S
Cu573  N575    2.028   .     S
Cu574  N576    2.028   .     S
N575   C591    1.391   .     A
N575   C588    1.355   .     A
N576   C587    1.355   .     A
N576   C592    1.391   .     A
C578   C633    1.330   .     S
C578   H636    1.087   .     S
H579   C633    1.087   .     S
C581   C586    1.412   .     A
C581   C593    1.496   .     S
C581   C919    1.407   1_545 S
C582   C596    1.496   .     S
C582   C585    1.412   .     A
C582   C752    1.407   .     S
C583   C585    1.407   .     A
C583   N599    1.427   .     S
C583   C749    1.407   .     S
C584   N605    1.427   .     S
C584   C586    1.407   .     A
C584   C918    1.407   1_545 S
C587   H589    1.083   .     S
C588   H590    1.083   .     S
C588   C1096   1.422   .     S
C591   C611    1.485   .     S
C591   C1091   1.422   .     S
C592   C614    1.485   .     S
C593   H594    1.085   .     S
C593   O595    1.220   .     D
C596   H597    1.085   .     S
C596   O598    1.220   .     D
N599   C601    1.447   .     S
N599   H600    1.029   .     S
C601   H602    1.109   .     S
C601   H603    1.111   .     S
C601   H604    1.110   .     S
N605   H606    1.030   .     S
N605   C607    1.447   .     S
C607   H608    1.109   .     S
C607   H609    1.110   .     S
C607   H610    1.111   .     S
C611   H612    1.073   .     S
C611   O613    1.222   .     D
C614   O616    1.222   .     D
C614   H615    1.073   .     S
O617   C621    1.295   .     A
O617   Cu629   1.957   .     S
O618   C622    1.295   .     A
O618   Cu630   1.957   .     S
O619   Cu630   1.950   .     S
O619   C621    1.293   .     A
O620   C622    1.293   .     A
O620   Cu629   1.950   .     S
C621   C642    1.446   .     S
C622   C641    1.446   .     S
O623   Cu629   1.957   .     S
O623   C627    1.294   .     A
O624   C628    1.294   .     A
O624   Cu630   1.957   .     S
O625   Cu630   1.955   .     S
O625   C627    1.291   .     A
O626   C628    1.291   .     A
O626   Cu629   1.955   .     S
C627   C633    1.431   .     S
C628   C634    1.431   .     S
Cu629  Cu630   2.698   .     S
Cu629  N631    2.028   .     S
Cu630  N632    2.028   .     S
N631   C647    1.391   .     A
N631   C644    1.355   .     A
N632   C643    1.355   .     A
N632   C648    1.391   .     A
C634   C521    1.330   1_655 S
C634   H524    1.087   1_655 S
H635   C521    1.087   1_655 S
C637   C642    1.412   .     A
C637   C649    1.496   .     S
C637   C975    1.407   1_545 S
C638   C652    1.496   .     S
C638   C641    1.412   .     A
C638   C808    1.407   .     S
C639   C641    1.407   .     A
C639   N655    1.427   .     S
C639   C805    1.407   .     S
C640   N661    1.427   .     S
C640   C642    1.407   .     A
C640   C974    1.407   1_545 S
C643   H645    1.083   .     S
C644   H646    1.083   .     S
C644   C1152   1.422   .     S
C647   C667    1.485   .     S
C647   C1147   1.422   .     S
C648   C670    1.485   .     S
C649   H650    1.085   .     S
C649   O651    1.220   .     D
C652   H653    1.085   .     S
C652   O654    1.220   .     D
N655   C657    1.447   .     S
N655   H656    1.029   .     S
C657   H658    1.109   .     S
C657   H659    1.111   .     S
C657   H660    1.110   .     S
N661   H662    1.030   .     S
N661   C663    1.447   .     S
C663   H664    1.109   .     S
C663   H665    1.110   .     S
C663   H666    1.111   .     S
C667   H668    1.073   .     S
C667   O669    1.222   .     D
C670   O672    1.222   .     D
C670   H671    1.073   .     S
O673   C677    1.295   .     A
O673   Cu685   1.957   .     S
O674   C678    1.295   .     A
O674   Cu686   1.957   .     S
O675   Cu686   1.950   .     S
O675   C677    1.293   .     A
O676   C678    1.293   .     A
O676   Cu685   1.950   .     S
C677   C698    1.446   .     S
C678   C697    1.446   .     S
O679   Cu685   1.957   .     S
O679   C683    1.294   .     A
O680   C684    1.294   .     A
O680   Cu686   1.957   .     S
O681   Cu686   1.955   .     S
O681   C683    1.291   .     A
O682   C684    1.291   .     A
O682   Cu685   1.955   .     S
C683   C689    1.431   .     S
C684   C690    1.431   .     S
Cu685  Cu686   2.698   .     S
Cu685  N687    2.028   .     S
Cu686  N688    2.028   .     S
N687   C703    1.391   .     A
N687   C700    1.355   .     A
N688   C699    1.355   .     A
N688   C704    1.391   .     A
C689   C802    1.330   1_455 S
C689   H803    1.087   1_455 S
C690   C745    1.330   .     S
C690   H748    1.087   .     S
H691   C745    1.087   .     S
H692   C802    1.087   1_455 S
C693   C698    1.412   .     A
C693   C705    1.496   .     S
C694   C708    1.496   .     S
C694   C697    1.412   .     A
C694   C864    1.407   .     S
C695   C697    1.407   .     A
C695   N711    1.427   .     S
C695   C861    1.407   .     S
C696   N717    1.427   .     S
C696   C698    1.407   .     A
C699   H701    1.083   .     S
C700   H702    1.083   .     S
C700   C1208   1.422   .     S
C703   C723    1.485   .     S
C703   C1203   1.422   .     S
C704   C726    1.485   .     S
C705   H706    1.085   .     S
C705   O707    1.220   .     D
C708   H709    1.085   .     S
C708   O710    1.220   .     D
N711   C713    1.447   .     S
N711   H712    1.029   .     S
C713   H714    1.109   .     S
C713   H715    1.111   .     S
C713   H716    1.110   .     S
N717   H718    1.030   .     S
N717   C719    1.447   .     S
C719   H720    1.109   .     S
C719   H721    1.110   .     S
C719   H722    1.111   .     S
C723   H724    1.073   .     S
C723   O725    1.222   .     D
C726   O728    1.222   .     D
C726   H727    1.073   .     S
O729   C733    1.295   .     A
O729   Cu741   1.957   .     S
O730   C734    1.295   .     A
O730   Cu742   1.957   .     S
O731   Cu742   1.950   .     S
O731   C733    1.293   .     A
O732   C734    1.293   .     A
O732   Cu741   1.950   .     S
C733   C754    1.446   .     S
C734   C753    1.446   .     S
O735   Cu741   1.957   .     S
O735   C739    1.294   .     A
O736   C740    1.294   .     A
O736   Cu742   1.957   .     S
O737   Cu742   1.955   .     S
O737   C739    1.291   .     A
O738   C740    1.291   .     A
O738   Cu741   1.955   .     S
C739   C745    1.431   .     S
C740   C746    1.431   .     S
Cu741  Cu742   2.698   .     S
Cu741  N743    2.028   .     S
Cu742  N744    2.028   .     S
N743   C759    1.391   .     A
N743   C756    1.355   .     A
N744   C755    1.355   .     A
N744   C760    1.391   .     A
C746   C801    1.330   .     S
C746   H804    1.087   .     S
H747   C801    1.087   .     S
C749   C754    1.412   .     A
C749   C761    1.496   .     S
C750   C764    1.496   .     S
C750   C753    1.412   .     A
C750   C920    1.407   .     S
C751   C753    1.407   .     A
C751   N767    1.427   .     S
C751   C917    1.407   .     S
C752   N773    1.427   .     S
C752   C754    1.407   .     A
C755   H757    1.083   .     S
C756   H758    1.083   .     S
C756   C1264   1.422   .     S
C759   C779    1.485   .     S
C759   C1259   1.422   .     S
C760   C782    1.485   .     S
C761   H762    1.085   .     S
C761   O763    1.220   .     D
C764   H765    1.085   .     S
C764   O766    1.220   .     D
N767   C769    1.447   .     S
N767   H768    1.029   .     S
C769   H770    1.109   .     S
C769   H771    1.111   .     S
C769   H772    1.110   .     S
N773   H774    1.030   .     S
N773   C775    1.447   .     S
C775   H776    1.109   .     S
C775   H777    1.110   .     S
C775   H778    1.111   .     S
C779   H780    1.073   .     S
C779   O781    1.222   .     D
C782   O784    1.222   .     D
C782   H783    1.073   .     S
O785   C789    1.295   .     A
O785   Cu797   1.957   .     S
O786   C790    1.295   .     A
O786   Cu798   1.957   .     S
O787   Cu798   1.950   .     S
O787   C789    1.293   .     A
O788   C790    1.293   .     A
O788   Cu797   1.950   .     S
C789   C810    1.446   .     S
C790   C809    1.446   .     S
O791   Cu797   1.957   .     S
O791   C795    1.294   .     A
O792   C796    1.294   .     A
O792   Cu798   1.957   .     S
O793   Cu798   1.955   .     S
O793   C795    1.291   .     A
O794   C796    1.291   .     A
O794   Cu797   1.955   .     S
C795   C801    1.431   .     S
C796   C802    1.431   .     S
Cu797  Cu798   2.698   .     S
Cu797  N799    2.028   .     S
Cu798  N800    2.028   .     S
N799   C815    1.391   .     A
N799   C812    1.355   .     A
N800   C811    1.355   .     A
N800   C816    1.391   .     A
C802   C689    1.330   1_655 S
C802   H692    1.087   1_655 S
H803   C689    1.087   1_655 S
C805   C810    1.412   .     A
C805   C817    1.496   .     S
C806   C820    1.496   .     S
C806   C809    1.412   .     A
C806   C976    1.407   .     S
C807   C809    1.407   .     A
C807   N823    1.427   .     S
C807   C973    1.407   .     S
C808   N829    1.427   .     S
C808   C810    1.407   .     A
C811   H813    1.083   .     S
C812   H814    1.083   .     S
C812   C1320   1.422   .     S
C815   C835    1.485   .     S
C815   C1315   1.422   .     S
C816   C838    1.485   .     S
C817   H818    1.085   .     S
C817   O819    1.220   .     D
C820   H821    1.085   .     S
C820   O822    1.220   .     D
N823   C825    1.447   .     S
N823   H824    1.029   .     S
C825   H826    1.109   .     S
C825   H827    1.111   .     S
C825   H828    1.110   .     S
N829   H830    1.030   .     S
N829   C831    1.447   .     S
C831   H832    1.109   .     S
C831   H833    1.110   .     S
C831   H834    1.111   .     S
C835   H836    1.073   .     S
C835   O837    1.222   .     D
C838   O840    1.222   .     D
C838   H839    1.073   .     S
O841   C845    1.295   .     A
O841   Cu853   1.957   .     S
O842   C846    1.295   .     A
O842   Cu854   1.957   .     S
O843   Cu854   1.950   .     S
O843   C845    1.293   .     A
O844   C846    1.293   .     A
O844   Cu853   1.950   .     S
C845   C866    1.446   .     S
C846   C865    1.446   .     S
O847   Cu853   1.957   .     S
O847   C851    1.294   .     A
O848   C852    1.294   .     A
O848   Cu854   1.957   .     S
O849   Cu854   1.955   .     S
O849   C851    1.291   .     A
O850   C852    1.291   .     A
O850   Cu853   1.955   .     S
C851   C857    1.431   .     S
C852   C858    1.431   .     S
Cu853  Cu854   2.698   .     S
Cu853  N855    2.028   .     S
Cu854  N856    2.028   .     S
N855   C871    1.391   .     A
N855   C868    1.355   .     A
N856   C867    1.355   .     A
N856   C872    1.391   .     A
C857   C970    1.330   1_455 S
C857   H971    1.087   1_455 S
C858   C913    1.330   .     S
C858   H916    1.087   .     S
H859   C913    1.087   .     S
H860   C970    1.087   1_455 S
C861   C866    1.412   .     A
C861   C873    1.496   .     S
C862   C876    1.496   .     S
C862   C865    1.412   .     A
C862   C528    1.407   1_565 S
C863   C865    1.407   .     A
C863   N879    1.427   .     S
C863   C525    1.407   1_565 S
C864   N885    1.427   .     S
C864   C866    1.407   .     A
C867   H869    1.083   .     S
C868   H870    1.083   .     S
C868   C1376   1.422   .     S
C871   C891    1.485   .     S
C871   C1371   1.422   .     S
C872   C894    1.485   .     S
C873   H874    1.085   .     S
C873   O875    1.220   .     D
C876   H877    1.085   .     S
C876   O878    1.220   .     D
N879   C881    1.447   .     S
N879   H880    1.029   .     S
C881   H882    1.109   .     S
C881   H883    1.111   .     S
C881   H884    1.110   .     S
N885   H886    1.030   .     S
N885   C887    1.447   .     S
C887   H888    1.109   .     S
C887   H889    1.110   .     S
C887   H890    1.111   .     S
C891   H892    1.073   .     S
C891   O893    1.222   .     D
C894   O896    1.222   .     D
C894   H895    1.073   .     S
O897   C901    1.295   .     A
O897   Cu909   1.957   .     S
O898   C902    1.295   .     A
O898   Cu910   1.957   .     S
O899   Cu910   1.950   .     S
O899   C901    1.293   .     A
O900   C902    1.293   .     A
O900   Cu909   1.950   .     S
C901   C922    1.446   .     S
C902   C921    1.446   .     S
O903   Cu909   1.957   .     S
O903   C907    1.294   .     A
O904   C908    1.294   .     A
O904   Cu910   1.957   .     S
O905   Cu910   1.955   .     S
O905   C907    1.291   .     A
O906   C908    1.291   .     A
O906   Cu909   1.955   .     S
C907   C913    1.431   .     S
C908   C914    1.431   .     S
Cu909  Cu910   2.698   .     S
Cu909  N911    2.028   .     S
Cu910  N912    2.028   .     S
N911   C927    1.391   .     A
N911   C924    1.355   .     A
N912   C923    1.355   .     A
N912   C928    1.391   .     A
C914   C969    1.330   .     S
C914   H972    1.087   .     S
H915   C969    1.087   .     S
C917   C922    1.412   .     A
C917   C929    1.496   .     S
C918   C932    1.496   .     S
C918   C921    1.412   .     A
C918   C584    1.407   1_565 S
C919   C921    1.407   .     A
C919   N935    1.427   .     S
C919   C581    1.407   1_565 S
C920   N941    1.427   .     S
C920   C922    1.407   .     A
C923   H925    1.083   .     S
C924   H926    1.083   .     S
C924   C1432   1.422   .     S
C927   C947    1.485   .     S
C927   C1427   1.422   .     S
C928   C950    1.485   .     S
C929   H930    1.085   .     S
C929   O931    1.220   .     D
C932   H933    1.085   .     S
C932   O934    1.220   .     D
N935   C937    1.447   .     S
N935   H936    1.029   .     S
C937   H938    1.109   .     S
C937   H939    1.111   .     S
C937   H940    1.110   .     S
N941   H942    1.030   .     S
N941   C943    1.447   .     S
C943   H944    1.109   .     S
C943   H945    1.110   .     S
C943   H946    1.111   .     S
C947   H948    1.073   .     S
C947   O949    1.222   .     D
C950   O952    1.222   .     D
C950   H951    1.073   .     S
O953   C957    1.295   .     A
O953   Cu965   1.957   .     S
O954   C958    1.295   .     A
O954   Cu966   1.957   .     S
O955   Cu966   1.950   .     S
O955   C957    1.293   .     A
O956   C958    1.293   .     A
O956   Cu965   1.950   .     S
C957   C978    1.446   .     S
C958   C977    1.446   .     S
O959   Cu965   1.957   .     S
O959   C963    1.294   .     A
O960   C964    1.294   .     A
O960   Cu966   1.957   .     S
O961   Cu966   1.955   .     S
O961   C963    1.291   .     A
O962   C964    1.291   .     A
O962   Cu965   1.955   .     S
C963   C969    1.431   .     S
C964   C970    1.431   .     S
Cu965  Cu966   2.698   .     S
Cu965  N967    2.028   .     S
Cu966  N968    2.028   .     S
N967   C983    1.391   .     A
N967   C980    1.355   .     A
N968   C979    1.355   .     A
N968   C984    1.391   .     A
C970   C857    1.330   1_655 S
C970   H860    1.087   1_655 S
H971   C857    1.087   1_655 S
C973   C978    1.412   .     A
C973   C985    1.496   .     S
C974   C988    1.496   .     S
C974   C977    1.412   .     A
C974   C640    1.407   1_565 S
C975   C977    1.407   .     A
C975   N991    1.427   .     S
C975   C637    1.407   1_565 S
C976   N997    1.427   .     S
C976   C978    1.407   .     A
C979   H981    1.083   .     S
C980   H982    1.083   .     S
C980   C1488   1.422   .     S
C983   C1003   1.485   .     S
C983   C1483   1.422   .     S
C984   C1006   1.485   .     S
C985   H986    1.085   .     S
C985   O987    1.220   .     D
C988   H989    1.085   .     S
C988   O990    1.220   .     D
N991   C993    1.447   .     S
N991   H992    1.029   .     S
C993   H994    1.109   .     S
C993   H995    1.111   .     S
C993   H996    1.110   .     S
N997   H998    1.030   .     S
N997   C999    1.447   .     S
C999   H1000   1.109   .     S
C999   H1001   1.110   .     S
C999   H1002   1.111   .     S
C1003  H1004   1.073   .     S
C1003  O1005   1.222   .     D
C1006  O1008   1.222   .     D
C1006  H1007   1.073   .     S
O1009  C1013   1.295   .     A
O1009  Cu1021  1.957   .     S
O1010  C1014   1.295   .     A
O1010  Cu1022  1.957   .     S
O1011  Cu1022  1.950   .     S
O1011  C1013   1.293   .     A
O1012  C1014   1.293   .     A
O1012  Cu1021  1.950   .     S
C1013  C1034   1.446   .     S
C1014  C1033   1.446   .     S
O1015  Cu1021  1.957   .     S
O1015  C1019   1.294   .     A
O1016  C1020   1.294   .     A
O1016  Cu1022  1.957   .     S
O1017  Cu1022  1.955   .     S
O1017  C1019   1.291   .     A
O1018  C1020   1.291   .     A
O1018  Cu1021  1.955   .     S
C1019  C1025   1.431   .     S
C1020  C1026   1.431   .     S
Cu1021 Cu1022  2.698   .     S
Cu1021 N1023   2.028   .     S
Cu1022 N1024   2.028   .     S
N1023  C1039   1.391   .     A
N1023  C1036   1.355   .     A
N1024  C1035   1.355   .     A
N1024  C1040   1.391   .     A
C1025  C1138   1.330   1_455 S
C1025  H1139   1.087   1_455 S
C1026  C1081   1.330   .     S
C1026  H1084   1.087   .     S
H1027  C1081   1.087   .     S
H1028  C1138   1.087   1_455 S
C1029  C1034   1.412   .     A
C1029  C1041   1.496   .     S
C1029  C1367   1.407   1_545 S
C1030  C1044   1.496   .     S
C1030  C1033   1.412   .     A
C1030  C1200   1.407   .     S
C1031  C1033   1.407   .     A
C1031  N1047   1.427   .     S
C1031  C1197   1.407   .     S
C1032  N1053   1.427   .     S
C1032  C1034   1.407   .     A
C1032  C1366   1.407   1_545 S
C1035  H1037   1.083   .     S
C1036  H1038   1.083   .     S
C1036  C32     1.422   1_556 S
C1039  C1059   1.485   .     S
C1039  C27     1.422   1_556 S
C1040  C1062   1.485   .     S
C1041  H1042   1.085   .     S
C1041  O1043   1.220   .     D
C1044  H1045   1.085   .     S
C1044  O1046   1.220   .     D
N1047  C1049   1.447   .     S
N1047  H1048   1.029   .     S
C1049  H1050   1.109   .     S
C1049  H1051   1.111   .     S
C1049  H1052   1.110   .     S
N1053  H1054   1.030   .     S
N1053  C1055   1.447   .     S
C1055  H1056   1.109   .     S
C1055  H1057   1.110   .     S
C1055  H1058   1.111   .     S
C1059  H1060   1.073   .     S
C1059  O1061   1.222   .     D
C1062  O1064   1.222   .     D
C1062  H1063   1.073   .     S
O1065  C1069   1.295   .     A
O1065  Cu1077  1.957   .     S
O1066  C1070   1.295   .     A
O1066  Cu1078  1.957   .     S
O1067  Cu1078  1.950   .     S
O1067  C1069   1.293   .     A
O1068  C1070   1.293   .     A
O1068  Cu1077  1.950   .     S
C1069  C1090   1.446   .     S
C1070  C1089   1.446   .     S
O1071  Cu1077  1.957   .     S
O1071  C1075   1.294   .     A
O1072  C1076   1.294   .     A
O1072  Cu1078  1.957   .     S
O1073  Cu1078  1.955   .     S
O1073  C1075   1.291   .     A
O1074  C1076   1.291   .     A
O1074  Cu1077  1.955   .     S
C1075  C1081   1.431   .     S
C1076  C1082   1.431   .     S
Cu1077 Cu1078  2.698   .     S
Cu1077 N1079   2.028   .     S
Cu1078 N1080   2.028   .     S
N1079  C1095   1.391   .     A
N1079  C1092   1.355   .     A
N1080  C1091   1.355   .     A
N1080  C1096   1.391   .     A
C1082  C1137   1.330   .     S
C1082  H1140   1.087   .     S
H1083  C1137   1.087   .     S
C1085  C1090   1.412   .     A
C1085  C1097   1.496   .     S
C1085  C1423   1.407   1_545 S
C1086  C1100   1.496   .     S
C1086  C1089   1.412   .     A
C1086  C1256   1.407   .     S
C1087  C1089   1.407   .     A
C1087  N1103   1.427   .     S
C1087  C1253   1.407   .     S
C1088  N1109   1.427   .     S
C1088  C1090   1.407   .     A
C1088  C1422   1.407   1_545 S
C1091  H1093   1.083   .     S
C1092  H1094   1.083   .     S
C1092  C88     1.422   1_556 S
C1095  C1115   1.485   .     S
C1095  C83     1.422   1_556 S
C1096  C1118   1.485   .     S
C1097  H1098   1.085   .     S
C1097  O1099   1.220   .     D
C1100  H1101   1.085   .     S
C1100  O1102   1.220   .     D
N1103  C1105   1.447   .     S
N1103  H1104   1.029   .     S
C1105  H1106   1.109   .     S
C1105  H1107   1.111   .     S
C1105  H1108   1.110   .     S
N1109  H1110   1.030   .     S
N1109  C1111   1.447   .     S
C1111  H1112   1.109   .     S
C1111  H1113   1.110   .     S
C1111  H1114   1.111   .     S
C1115  H1116   1.073   .     S
C1115  O1117   1.222   .     D
C1118  O1120   1.222   .     D
C1118  H1119   1.073   .     S
O1121  C1125   1.295   .     A
O1121  Cu1133  1.957   .     S
O1122  C1126   1.295   .     A
O1122  Cu1134  1.957   .     S
O1123  Cu1134  1.950   .     S
O1123  C1125   1.293   .     A
O1124  C1126   1.293   .     A
O1124  Cu1133  1.950   .     S
C1125  C1146   1.446   .     S
C1126  C1145   1.446   .     S
O1127  Cu1133  1.957   .     S
O1127  C1131   1.294   .     A
O1128  C1132   1.294   .     A
O1128  Cu1134  1.957   .     S
O1129  Cu1134  1.955   .     S
O1129  C1131   1.291   .     A
O1130  C1132   1.291   .     A
O1130  Cu1133  1.955   .     S
C1131  C1137   1.431   .     S
C1132  C1138   1.431   .     S
Cu1133 Cu1134  2.698   .     S
Cu1133 N1135   2.028   .     S
Cu1134 N1136   2.028   .     S
N1135  C1151   1.391   .     A
N1135  C1148   1.355   .     A
N1136  C1147   1.355   .     A
N1136  C1152   1.391   .     A
C1138  C1025   1.330   1_655 S
C1138  H1028   1.087   1_655 S
H1139  C1025   1.087   1_655 S
C1141  C1146   1.412   .     A
C1141  C1153   1.496   .     S
C1141  C1479   1.407   1_545 S
C1142  C1156   1.496   .     S
C1142  C1145   1.412   .     A
C1142  C1312   1.407   .     S
C1143  C1145   1.407   .     A
C1143  N1159   1.427   .     S
C1143  C1309   1.407   .     S
C1144  N1165   1.427   .     S
C1144  C1146   1.407   .     A
C1144  C1478   1.407   1_545 S
C1147  H1149   1.083   .     S
C1148  H1150   1.083   .     S
C1148  C144    1.422   1_556 S
C1151  C1171   1.485   .     S
C1151  C139    1.422   1_556 S
C1152  C1174   1.485   .     S
C1153  H1154   1.085   .     S
C1153  O1155   1.220   .     D
C1156  H1157   1.085   .     S
C1156  O1158   1.220   .     D
N1159  C1161   1.447   .     S
N1159  H1160   1.029   .     S
C1161  H1162   1.109   .     S
C1161  H1163   1.111   .     S
C1161  H1164   1.110   .     S
N1165  H1166   1.030   .     S
N1165  C1167   1.447   .     S
C1167  H1168   1.109   .     S
C1167  H1169   1.110   .     S
C1167  H1170   1.111   .     S
C1171  H1172   1.073   .     S
C1171  O1173   1.222   .     D
C1174  O1176   1.222   .     D
C1174  H1175   1.073   .     S
O1177  C1181   1.295   .     A
O1177  Cu1189  1.957   .     S
O1178  C1182   1.295   .     A
O1178  Cu1190  1.957   .     S
O1179  Cu1190  1.950   .     S
O1179  C1181   1.293   .     A
O1180  C1182   1.293   .     A
O1180  Cu1189  1.950   .     S
C1181  C1202   1.446   .     S
C1182  C1201   1.446   .     S
O1183  Cu1189  1.957   .     S
O1183  C1187   1.294   .     A
O1184  C1188   1.294   .     A
O1184  Cu1190  1.957   .     S
O1185  Cu1190  1.955   .     S
O1185  C1187   1.291   .     A
O1186  C1188   1.291   .     A
O1186  Cu1189  1.955   .     S
C1187  C1193   1.431   .     S
C1188  C1194   1.431   .     S
Cu1189 Cu1190  2.698   .     S
Cu1189 N1191   2.028   .     S
Cu1190 N1192   2.028   .     S
N1191  C1207   1.391   .     A
N1191  C1204   1.355   .     A
N1192  C1203   1.355   .     A
N1192  C1208   1.391   .     A
C1193  C1306   1.330   1_455 S
C1193  H1307   1.087   1_455 S
C1194  C1249   1.330   .     S
C1194  H1252   1.087   .     S
H1195  C1249   1.087   .     S
H1196  C1306   1.087   1_455 S
C1197  C1202   1.412   .     A
C1197  C1209   1.496   .     S
C1198  C1212   1.496   .     S
C1198  C1201   1.412   .     A
C1198  C1368   1.407   .     S
C1199  C1201   1.407   .     A
C1199  N1215   1.427   .     S
C1199  C1365   1.407   .     S
C1200  N1221   1.427   .     S
C1200  C1202   1.407   .     A
C1203  H1205   1.083   .     S
C1204  H1206   1.083   .     S
C1204  C200    1.422   1_556 S
C1207  C1227   1.485   .     S
C1207  C195    1.422   1_556 S
C1208  C1230   1.485   .     S
C1209  H1210   1.085   .     S
C1209  O1211   1.220   .     D
C1212  H1213   1.085   .     S
C1212  O1214   1.220   .     D
N1215  C1217   1.447   .     S
N1215  H1216   1.029   .     S
C1217  H1218   1.109   .     S
C1217  H1219   1.111   .     S
C1217  H1220   1.110   .     S
N1221  H1222   1.030   .     S
N1221  C1223   1.447   .     S
C1223  H1224   1.109   .     S
C1223  H1225   1.110   .     S
C1223  H1226   1.111   .     S
C1227  H1228   1.073   .     S
C1227  O1229   1.222   .     D
C1230  O1232   1.222   .     D
C1230  H1231   1.073   .     S
O1233  C1237   1.295   .     A
O1233  Cu1245  1.957   .     S
O1234  C1238   1.295   .     A
O1234  Cu1246  1.957   .     S
O1235  Cu1246  1.950   .     S
O1235  C1237   1.293   .     A
O1236  C1238   1.293   .     A
O1236  Cu1245  1.950   .     S
C1237  C1258   1.446   .     S
C1238  C1257   1.446   .     S
O1239  Cu1245  1.957   .     S
O1239  C1243   1.294   .     A
O1240  C1244   1.294   .     A
O1240  Cu1246  1.957   .     S
O1241  Cu1246  1.955   .     S
O1241  C1243   1.291   .     A
O1242  C1244   1.291   .     A
O1242  Cu1245  1.955   .     S
C1243  C1249   1.431   .     S
C1244  C1250   1.431   .     S
Cu1245 Cu1246  2.698   .     S
Cu1245 N1247   2.028   .     S
Cu1246 N1248   2.028   .     S
N1247  C1263   1.391   .     A
N1247  C1260   1.355   .     A
N1248  C1259   1.355   .     A
N1248  C1264   1.391   .     A
C1250  C1305   1.330   .     S
C1250  H1308   1.087   .     S
H1251  C1305   1.087   .     S
C1253  C1258   1.412   .     A
C1253  C1265   1.496   .     S
C1254  C1268   1.496   .     S
C1254  C1257   1.412   .     A
C1254  C1424   1.407   .     S
C1255  C1257   1.407   .     A
C1255  N1271   1.427   .     S
C1255  C1421   1.407   .     S
C1256  N1277   1.427   .     S
C1256  C1258   1.407   .     A
C1259  H1261   1.083   .     S
C1260  H1262   1.083   .     S
C1260  C256    1.422   1_556 S
C1263  C1283   1.485   .     S
C1263  C251    1.422   1_556 S
C1264  C1286   1.485   .     S
C1265  H1266   1.085   .     S
C1265  O1267   1.220   .     D
C1268  H1269   1.085   .     S
C1268  O1270   1.220   .     D
N1271  C1273   1.447   .     S
N1271  H1272   1.029   .     S
C1273  H1274   1.109   .     S
C1273  H1275   1.111   .     S
C1273  H1276   1.110   .     S
N1277  H1278   1.030   .     S
N1277  C1279   1.447   .     S
C1279  H1280   1.109   .     S
C1279  H1281   1.110   .     S
C1279  H1282   1.111   .     S
C1283  H1284   1.073   .     S
C1283  O1285   1.222   .     D
C1286  O1288   1.222   .     D
C1286  H1287   1.073   .     S
O1289  C1293   1.295   .     A
O1289  Cu1301  1.957   .     S
O1290  C1294   1.295   .     A
O1290  Cu1302  1.957   .     S
O1291  Cu1302  1.950   .     S
O1291  C1293   1.293   .     A
O1292  C1294   1.293   .     A
O1292  Cu1301  1.950   .     S
C1293  C1314   1.446   .     S
C1294  C1313   1.446   .     S
O1295  Cu1301  1.957   .     S
O1295  C1299   1.294   .     A
O1296  C1300   1.294   .     A
O1296  Cu1302  1.957   .     S
O1297  Cu1302  1.955   .     S
O1297  C1299   1.291   .     A
O1298  C1300   1.291   .     A
O1298  Cu1301  1.955   .     S
C1299  C1305   1.431   .     S
C1300  C1306   1.431   .     S
Cu1301 Cu1302  2.698   .     S
Cu1301 N1303   2.028   .     S
Cu1302 N1304   2.028   .     S
N1303  C1319   1.391   .     A
N1303  C1316   1.355   .     A
N1304  C1315   1.355   .     A
N1304  C1320   1.391   .     A
C1306  C1193   1.330   1_655 S
C1306  H1196   1.087   1_655 S
H1307  C1193   1.087   1_655 S
C1309  C1314   1.412   .     A
C1309  C1321   1.496   .     S
C1310  C1324   1.496   .     S
C1310  C1313   1.412   .     A
C1310  C1480   1.407   .     S
C1311  C1313   1.407   .     A
C1311  N1327   1.427   .     S
C1311  C1477   1.407   .     S
C1312  N1333   1.427   .     S
C1312  C1314   1.407   .     A
C1315  H1317   1.083   .     S
C1316  H1318   1.083   .     S
C1316  C312    1.422   1_556 S
C1319  C1339   1.485   .     S
C1319  C307    1.422   1_556 S
C1320  C1342   1.485   .     S
C1321  H1322   1.085   .     S
C1321  O1323   1.220   .     D
C1324  H1325   1.085   .     S
C1324  O1326   1.220   .     D
N1327  C1329   1.447   .     S
N1327  H1328   1.029   .     S
C1329  H1330   1.109   .     S
C1329  H1331   1.111   .     S
C1329  H1332   1.110   .     S
N1333  H1334   1.030   .     S
N1333  C1335   1.447   .     S
C1335  H1336   1.109   .     S
C1335  H1337   1.110   .     S
C1335  H1338   1.111   .     S
C1339  H1340   1.073   .     S
C1339  O1341   1.222   .     D
C1342  O1344   1.222   .     D
C1342  H1343   1.073   .     S
O1345  C1349   1.295   .     A
O1345  Cu1357  1.957   .     S
O1346  C1350   1.295   .     A
O1346  Cu1358  1.957   .     S
O1347  Cu1358  1.950   .     S
O1347  C1349   1.293   .     A
O1348  C1350   1.293   .     A
O1348  Cu1357  1.950   .     S
C1349  C1370   1.446   .     S
C1350  C1369   1.446   .     S
O1351  Cu1357  1.957   .     S
O1351  C1355   1.294   .     A
O1352  C1356   1.294   .     A
O1352  Cu1358  1.957   .     S
O1353  Cu1358  1.955   .     S
O1353  C1355   1.291   .     A
O1354  C1356   1.291   .     A
O1354  Cu1357  1.955   .     S
C1355  C1361   1.431   .     S
C1356  C1362   1.431   .     S
Cu1357 Cu1358  2.698   .     S
Cu1357 N1359   2.028   .     S
Cu1358 N1360   2.028   .     S
N1359  C1375   1.391   .     A
N1359  C1372   1.355   .     A
N1360  C1371   1.355   .     A
N1360  C1376   1.391   .     A
C1361  C1474   1.330   1_455 S
C1361  H1475   1.087   1_455 S
C1362  C1417   1.330   .     S
C1362  H1420   1.087   .     S
H1363  C1417   1.087   .     S
H1364  C1474   1.087   1_455 S
C1365  C1370   1.412   .     A
C1365  C1377   1.496   .     S
C1366  C1380   1.496   .     S
C1366  C1369   1.412   .     A
C1366  C1032   1.407   1_565 S
C1367  C1369   1.407   .     A
C1367  N1383   1.427   .     S
C1367  C1029   1.407   1_565 S
C1368  N1389   1.427   .     S
C1368  C1370   1.407   .     A
C1371  H1373   1.083   .     S
C1372  H1374   1.083   .     S
C1372  C368    1.422   1_556 S
C1375  C1395   1.485   .     S
C1375  C363    1.422   1_556 S
C1376  C1398   1.485   .     S
C1377  H1378   1.085   .     S
C1377  O1379   1.220   .     D
C1380  H1381   1.085   .     S
C1380  O1382   1.220   .     D
N1383  C1385   1.447   .     S
N1383  H1384   1.029   .     S
C1385  H1386   1.109   .     S
C1385  H1387   1.111   .     S
C1385  H1388   1.110   .     S
N1389  H1390   1.030   .     S
N1389  C1391   1.447   .     S
C1391  H1392   1.109   .     S
C1391  H1393   1.110   .     S
C1391  H1394   1.111   .     S
C1395  H1396   1.073   .     S
C1395  O1397   1.222   .     D
C1398  O1400   1.222   .     D
C1398  H1399   1.073   .     S
O1401  C1405   1.295   .     A
O1401  Cu1413  1.957   .     S
O1402  C1406   1.295   .     A
O1402  Cu1414  1.957   .     S
O1403  Cu1414  1.950   .     S
O1403  C1405   1.293   .     A
O1404  C1406   1.293   .     A
O1404  Cu1413  1.950   .     S
C1405  C1426   1.446   .     S
C1406  C1425   1.446   .     S
O1407  Cu1413  1.957   .     S
O1407  C1411   1.294   .     A
O1408  C1412   1.294   .     A
O1408  Cu1414  1.957   .     S
O1409  Cu1414  1.955   .     S
O1409  C1411   1.291   .     A
O1410  C1412   1.291   .     A
O1410  Cu1413  1.955   .     S
C1411  C1417   1.431   .     S
C1412  C1418   1.431   .     S
Cu1413 Cu1414  2.698   .     S
Cu1413 N1415   2.028   .     S
Cu1414 N1416   2.028   .     S
N1415  C1431   1.391   .     A
N1415  C1428   1.355   .     A
N1416  C1427   1.355   .     A
N1416  C1432   1.391   .     A
C1418  C1473   1.330   .     S
C1418  H1476   1.087   .     S
H1419  C1473   1.087   .     S
C1421  C1426   1.412   .     A
C1421  C1433   1.496   .     S
C1422  C1436   1.496   .     S
C1422  C1425   1.412   .     A
C1422  C1088   1.407   1_565 S
C1423  C1425   1.407   .     A
C1423  N1439   1.427   .     S
C1423  C1085   1.407   1_565 S
C1424  N1445   1.427   .     S
C1424  C1426   1.407   .     A
C1427  H1429   1.083   .     S
C1428  H1430   1.083   .     S
C1428  C424    1.422   1_556 S
C1431  C1451   1.485   .     S
C1431  C419    1.422   1_556 S
C1432  C1454   1.485   .     S
C1433  H1434   1.085   .     S
C1433  O1435   1.220   .     D
C1436  H1437   1.085   .     S
C1436  O1438   1.220   .     D
N1439  C1441   1.447   .     S
N1439  H1440   1.029   .     S
C1441  H1442   1.109   .     S
C1441  H1443   1.111   .     S
C1441  H1444   1.110   .     S
N1445  H1446   1.030   .     S
N1445  C1447   1.447   .     S
C1447  H1448   1.109   .     S
C1447  H1449   1.110   .     S
C1447  H1450   1.111   .     S
C1451  H1452   1.073   .     S
C1451  O1453   1.222   .     D
C1454  O1456   1.222   .     D
C1454  H1455   1.073   .     S
O1457  C1461   1.295   .     A
O1457  Cu1469  1.957   .     S
O1458  C1462   1.295   .     A
O1458  Cu1470  1.957   .     S
O1459  Cu1470  1.950   .     S
O1459  C1461   1.293   .     A
O1460  C1462   1.293   .     A
O1460  Cu1469  1.950   .     S
C1461  C1482   1.446   .     S
C1462  C1481   1.446   .     S
O1463  Cu1469  1.957   .     S
O1463  C1467   1.294   .     A
O1464  C1468   1.294   .     A
O1464  Cu1470  1.957   .     S
O1465  Cu1470  1.955   .     S
O1465  C1467   1.291   .     A
O1466  C1468   1.291   .     A
O1466  Cu1469  1.955   .     S
C1467  C1473   1.431   .     S
C1468  C1474   1.431   .     S
Cu1469 Cu1470  2.698   .     S
Cu1469 N1471   2.028   .     S
Cu1470 N1472   2.028   .     S
N1471  C1487   1.391   .     A
N1471  C1484   1.355   .     A
N1472  C1483   1.355   .     A
N1472  C1488   1.391   .     A
C1474  C1361   1.330   1_655 S
C1474  H1364   1.087   1_655 S
H1475  C1361   1.087   1_655 S
C1477  C1482   1.412   .     A
C1477  C1489   1.496   .     S
C1478  C1492   1.496   .     S
C1478  C1481   1.412   .     A
C1478  C1144   1.407   1_565 S
C1479  C1481   1.407   .     A
C1479  N1495   1.427   .     S
C1479  C1141   1.407   1_565 S
C1480  N1501   1.427   .     S
C1480  C1482   1.407   .     A
C1483  H1485   1.083   .     S
C1484  H1486   1.083   .     S
C1484  C480    1.422   1_556 S
C1487  C1507   1.485   .     S
C1487  C475    1.422   1_556 S
C1488  C1510   1.485   .     S
C1489  H1490   1.085   .     S
C1489  O1491   1.220   .     D
C1492  H1493   1.085   .     S
C1492  O1494   1.220   .     D
N1495  C1497   1.447   .     S
N1495  H1496   1.029   .     S
C1497  H1498   1.109   .     S
C1497  H1499   1.111   .     S
C1497  H1500   1.110   .     S
N1501  H1502   1.030   .     S
N1501  C1503   1.447   .     S
C1503  H1504   1.109   .     S
C1503  H1505   1.110   .     S
C1503  H1506   1.111   .     S
C1507  H1508   1.073   .     S
C1507  O1509   1.222   .     D
C1510  O1512   1.222   .     D
C1510  H1511   1.073   .     S
