data_str_m2_o1_o16_pcu_sym.153
_audit_creation_date              2020-01-03
_audit_creation_method            'Materials Studio'
_symmetry_space_group_name_H-M    'P1'
_symmetry_Int_Tables_number       1
_symmetry_cell_setting            triclinic
loop_
_symmetry_equiv_pos_as_xyz
  x,y,z
_cell_length_a                    28.5866
_cell_length_b                    32.4347
_cell_length_c                    26.7562
_cell_angle_alpha                 90.3660
_cell_angle_beta                  73.3888
_cell_angle_gamma                 90.1226
loop_
_atom_site_label
_atom_site_type_symbol
_atom_site_fract_x
_atom_site_fract_y
_atom_site_fract_z
_atom_site_U_iso_or_equiv
_atom_site_adp_type
_atom_site_occupancy
C1     C     0.16684   0.24591   0.24964   0.00000  Uiso   1.00
C2     C     0.14967   0.13899   0.48677   0.00000  Uiso   1.00
C3     C     0.16452   0.14182   0.43162   0.00000  Uiso   1.00
C4     C     0.18501   0.14737   0.01375   0.00000  Uiso   1.00
C5     C     0.23508   0.14990   0.48543   0.00000  Uiso   1.00
C6     C     0.24964   0.14199   0.43216   0.00000  Uiso   1.00
C7     C     0.21487   0.13710   0.40572   0.00000  Uiso   1.00
C8     C     0.17183   0.15668   0.06721   0.00000  Uiso   1.00
C9     C     0.25667   0.16587   0.06437   0.00000  Uiso   1.00
C10    C     0.12842   0.14845   0.40495   0.00000  Uiso   1.00
C11    C     0.20983   0.31255   0.22575   0.00000  Uiso   1.00
C12    C     0.14134   0.16131   0.34946   0.00000  Uiso   1.00
C13    C     0.20899   0.02193   0.22820   0.00000  Uiso   1.00
C14    C     0.16577   0.04281   0.25347   0.00000  Uiso   1.00
C15    C     0.12291   0.02056   0.27846   0.00000  Uiso   1.00
C16    C     0.12368   0.31126   0.27476   0.00000  Uiso   1.00
C17    C     0.16691   0.29051   0.24959   0.00000  Uiso   1.00
C18    C     0.29949   0.19185   0.28352   0.00000  Uiso   1.00
C19    C     0.01611   0.19156   0.28340   0.00000  Uiso   1.00
C20    C     0.03364   0.14182   0.21655   0.00000  Uiso   1.00
C21    C     0.31741   0.14180   0.21659   0.00000  Uiso   1.00
C22    C     0.16618   0.08744   0.25160   0.00000  Uiso   1.00
C23    C     0.19255   0.16678   0.14994   0.00000  Uiso   1.00
C24    C     0.27013   0.16022   0.01065   0.00000  Uiso   1.00
C25    C     0.20740   0.16367   0.09300   0.00000  Uiso   1.00
C26    C     0.07917   0.14229   0.43216   0.00000  Uiso   1.00
C27    C     0.06596   0.12982   0.48402   0.00000  Uiso   1.00
C28    C     0.10033   0.12782   0.01175   0.00000  Uiso   1.00
Cu29   Cu    0.11978   0.16666   0.25000   0.00000  Uiso   1.00
Cu30   Cu    0.21355   0.16667   0.25000   0.00000  Uiso   1.00
H31    H     0.28468   0.17226   0.08335   0.00000  Uiso   1.00
H32    H     0.24207   0.03876   0.20935   0.00000  Uiso   1.00
H33    H     0.09084   0.29421   0.29389   0.00000  Uiso   1.00
H34    H     0.02831   0.21136   0.30989   0.00000  Uiso   1.00
H35    H     0.05940   0.12186   0.18972   0.00000  Uiso   1.00
H36    H     0.30586   0.12184   0.18981   0.00000  Uiso   1.00
H37    H     0.28801   0.14047   0.41061   0.00000  Uiso   1.00
H38    H     0.30780   0.16436   0.48848   0.00000  Uiso   1.00
H39    H     0.13388   0.15930   0.08917   0.00000  Uiso   1.00
H40    H     0.05099   0.14505   0.41260   0.00000  Uiso   1.00
H41    H     0.02884   0.12048   0.00287   0.00000  Uiso   1.00
H42    H     0.22864   0.12810   0.36536   0.00000  Uiso   1.00
N43    N     0.04931   0.16666   0.24999   0.00000  Uiso   1.00
N44    N     0.28402   0.16669   0.25000   0.00000  Uiso   1.00
O45    O     0.12708   0.22678   0.25001   0.00000  Uiso   1.00
O46    O     0.20627   0.22679   0.25001   0.00000  Uiso   1.00
O47    O     0.10775   0.16665   0.32549   0.00000  Uiso   1.00
O48    O     0.18694   0.16666   0.32549   0.00000  Uiso   1.00
O49    O     0.12706   0.10654   0.25000   0.00000  Uiso   1.00
O50    O     0.20625   0.10655   0.25000   0.00000  Uiso   1.00
O51    O     0.14640   0.16667   0.17451   0.00000  Uiso   1.00
O52    O     0.22559   0.16668   0.17451   0.00000  Uiso   1.00
O53    O     0.08035   0.03890   0.30793   0.00000  Uiso   1.00
H54    H     0.08881   0.06451   0.32373   0.00000  Uiso   1.00
O55    O     0.26606   0.21730   0.31693   0.00000  Uiso   1.00
H56    H     0.28275   0.23312   0.33867   0.00000  Uiso   1.00
O57    O     0.08517   0.11062   0.06074   0.00000  Uiso   1.00
H58    H     0.11304   0.09513   0.06646   0.00000  Uiso   1.00
O59    O     0.25328   0.29263   0.20192   0.00000  Uiso   1.00
C60    C     0.25601   0.28551   0.14907   0.00000  Uiso   1.00
H61    H     0.25793   0.31524   0.12795   0.00000  Uiso   1.00
H62    H     0.22404   0.26739   0.14516   0.00000  Uiso   1.00
C63    C     0.30193   0.26086   0.12357   0.00000  Uiso   1.00
H64    H     0.30104   0.23107   0.14406   0.00000  Uiso   1.00
H65    H     0.30427   0.25458   0.08207   0.00000  Uiso   1.00
H66    H     0.00140   0.27851   0.12541   0.00000  Uiso   1.00
C67    C     0.50017   0.24591   0.24964   0.00000  Uiso   1.00
C68    C     0.48301   0.13899   0.48677   0.00000  Uiso   1.00
C69    C     0.49785   0.14182   0.43162   0.00000  Uiso   1.00
C70    C     0.51834   0.14737   0.01375   0.00000  Uiso   1.00
C71    C     0.56842   0.14990   0.48543   0.00000  Uiso   1.00
C72    C     0.58297   0.14199   0.43216   0.00000  Uiso   1.00
C73    C     0.54820   0.13710   0.40572   0.00000  Uiso   1.00
C74    C     0.50516   0.15668   0.06721   0.00000  Uiso   1.00
C75    C     0.59000   0.16587   0.06437   0.00000  Uiso   1.00
C76    C     0.46175   0.14845   0.40495   0.00000  Uiso   1.00
C77    C     0.54316   0.31255   0.22575   0.00000  Uiso   1.00
C78    C     0.47467   0.16131   0.34946   0.00000  Uiso   1.00
C79    C     0.54232   0.02193   0.22820   0.00000  Uiso   1.00
C80    C     0.49910   0.04281   0.25347   0.00000  Uiso   1.00
C81    C     0.45625   0.02056   0.27846   0.00000  Uiso   1.00
C82    C     0.45702   0.31126   0.27476   0.00000  Uiso   1.00
C83    C     0.50024   0.29051   0.24959   0.00000  Uiso   1.00
C84    C     0.63283   0.19185   0.28352   0.00000  Uiso   1.00
C85    C     0.34944   0.19156   0.28340   0.00000  Uiso   1.00
C86    C     0.36697   0.14182   0.21655   0.00000  Uiso   1.00
C87    C     0.65075   0.14180   0.21659   0.00000  Uiso   1.00
C88    C     0.49951   0.08744   0.25160   0.00000  Uiso   1.00
C89    C     0.52589   0.16678   0.14994   0.00000  Uiso   1.00
C90    C     0.60346   0.16022   0.01065   0.00000  Uiso   1.00
C91    C     0.54074   0.16367   0.09300   0.00000  Uiso   1.00
C92    C     0.41251   0.14229   0.43216   0.00000  Uiso   1.00
C93    C     0.39930   0.12982   0.48402   0.00000  Uiso   1.00
C94    C     0.43366   0.12782   0.01175   0.00000  Uiso   1.00
Cu95   Cu    0.45311   0.16666   0.25000   0.00000  Uiso   1.00
Cu96   Cu    0.54689   0.16667   0.25000   0.00000  Uiso   1.00
H97    H     0.61802   0.17226   0.08335   0.00000  Uiso   1.00
H98    H     0.57541   0.03876   0.20935   0.00000  Uiso   1.00
H99    H     0.42418   0.29421   0.29389   0.00000  Uiso   1.00
H100   H     0.36164   0.21136   0.30989   0.00000  Uiso   1.00
H101   H     0.39273   0.12186   0.18972   0.00000  Uiso   1.00
H102   H     0.63919   0.12184   0.18981   0.00000  Uiso   1.00
H103   H     0.62134   0.14047   0.41061   0.00000  Uiso   1.00
H104   H     0.64113   0.16436   0.48848   0.00000  Uiso   1.00
H105   H     0.46721   0.15930   0.08917   0.00000  Uiso   1.00
H106   H     0.38432   0.14505   0.41260   0.00000  Uiso   1.00
H107   H     0.36218   0.12048   0.00287   0.00000  Uiso   1.00
H108   H     0.56198   0.12810   0.36536   0.00000  Uiso   1.00
N109   N     0.38265   0.16666   0.24999   0.00000  Uiso   1.00
N110   N     0.61735   0.16669   0.25000   0.00000  Uiso   1.00
O111   O     0.46042   0.22678   0.25001   0.00000  Uiso   1.00
O112   O     0.53961   0.22679   0.25001   0.00000  Uiso   1.00
O113   O     0.44108   0.16665   0.32549   0.00000  Uiso   1.00
O114   O     0.52027   0.16666   0.32549   0.00000  Uiso   1.00
O115   O     0.46039   0.10654   0.25000   0.00000  Uiso   1.00
O116   O     0.53958   0.10655   0.25000   0.00000  Uiso   1.00
O117   O     0.47973   0.16667   0.17451   0.00000  Uiso   1.00
O118   O     0.55892   0.16668   0.17451   0.00000  Uiso   1.00
O119   O     0.41369   0.03890   0.30793   0.00000  Uiso   1.00
H120   H     0.42214   0.06451   0.32373   0.00000  Uiso   1.00
O121   O     0.59939   0.21730   0.31693   0.00000  Uiso   1.00
H122   H     0.61608   0.23312   0.33867   0.00000  Uiso   1.00
O123   O     0.41850   0.11062   0.06074   0.00000  Uiso   1.00
H124   H     0.44637   0.09513   0.06646   0.00000  Uiso   1.00
O125   O     0.58661   0.29263   0.20192   0.00000  Uiso   1.00
C126   C     0.58934   0.28551   0.14907   0.00000  Uiso   1.00
H127   H     0.59127   0.31524   0.12795   0.00000  Uiso   1.00
H128   H     0.55737   0.26739   0.14516   0.00000  Uiso   1.00
C129   C     0.63526   0.26086   0.12357   0.00000  Uiso   1.00
H130   H     0.63438   0.23107   0.14406   0.00000  Uiso   1.00
H131   H     0.63760   0.25458   0.08207   0.00000  Uiso   1.00
H132   H     0.33474   0.27851   0.12541   0.00000  Uiso   1.00
C133   C     0.83350   0.24591   0.24964   0.00000  Uiso   1.00
C134   C     0.81634   0.13899   0.48677   0.00000  Uiso   1.00
C135   C     0.83118   0.14182   0.43162   0.00000  Uiso   1.00
C136   C     0.85167   0.14737   0.01375   0.00000  Uiso   1.00
C137   C     0.90175   0.14990   0.48543   0.00000  Uiso   1.00
C138   C     0.91630   0.14199   0.43216   0.00000  Uiso   1.00
C139   C     0.88153   0.13710   0.40572   0.00000  Uiso   1.00
C140   C     0.83849   0.15668   0.06721   0.00000  Uiso   1.00
C141   C     0.92334   0.16587   0.06437   0.00000  Uiso   1.00
C142   C     0.79509   0.14845   0.40495   0.00000  Uiso   1.00
C143   C     0.87650   0.31255   0.22575   0.00000  Uiso   1.00
C144   C     0.80800   0.16131   0.34946   0.00000  Uiso   1.00
C145   C     0.87565   0.02193   0.22820   0.00000  Uiso   1.00
C146   C     0.83244   0.04281   0.25347   0.00000  Uiso   1.00
C147   C     0.78958   0.02056   0.27846   0.00000  Uiso   1.00
C148   C     0.79035   0.31126   0.27476   0.00000  Uiso   1.00
C149   C     0.83358   0.29051   0.24959   0.00000  Uiso   1.00
C150   C     0.96616   0.19185   0.28352   0.00000  Uiso   1.00
C151   C     0.68278   0.19156   0.28340   0.00000  Uiso   1.00
C152   C     0.70031   0.14182   0.21655   0.00000  Uiso   1.00
C153   C     0.98408   0.14180   0.21659   0.00000  Uiso   1.00
C154   C     0.83285   0.08744   0.25160   0.00000  Uiso   1.00
C155   C     0.85922   0.16678   0.14994   0.00000  Uiso   1.00
C156   C     0.93680   0.16022   0.01065   0.00000  Uiso   1.00
C157   C     0.87407   0.16367   0.09300   0.00000  Uiso   1.00
C158   C     0.74584   0.14229   0.43216   0.00000  Uiso   1.00
C159   C     0.73263   0.12982   0.48402   0.00000  Uiso   1.00
C160   C     0.76700   0.12782   0.01175   0.00000  Uiso   1.00
Cu161  Cu    0.78645   0.16666   0.25000   0.00000  Uiso   1.00
Cu162  Cu    0.88022   0.16667   0.25000   0.00000  Uiso   1.00
H163   H     0.95135   0.17226   0.08335   0.00000  Uiso   1.00
H164   H     0.90874   0.03876   0.20935   0.00000  Uiso   1.00
H165   H     0.75751   0.29421   0.29389   0.00000  Uiso   1.00
H166   H     0.69497   0.21136   0.30989   0.00000  Uiso   1.00
H167   H     0.72607   0.12186   0.18972   0.00000  Uiso   1.00
H168   H     0.97253   0.12184   0.18981   0.00000  Uiso   1.00
H169   H     0.95467   0.14047   0.41061   0.00000  Uiso   1.00
H170   H     0.97447   0.16436   0.48848   0.00000  Uiso   1.00
H171   H     0.80054   0.15930   0.08917   0.00000  Uiso   1.00
H172   H     0.71765   0.14505   0.41260   0.00000  Uiso   1.00
H173   H     0.69551   0.12048   0.00287   0.00000  Uiso   1.00
H174   H     0.89531   0.12810   0.36536   0.00000  Uiso   1.00
N175   N     0.71598   0.16666   0.24999   0.00000  Uiso   1.00
N176   N     0.95069   0.16669   0.25000   0.00000  Uiso   1.00
O177   O     0.79375   0.22678   0.25001   0.00000  Uiso   1.00
O178   O     0.87294   0.22679   0.25001   0.00000  Uiso   1.00
O179   O     0.77441   0.16665   0.32549   0.00000  Uiso   1.00
O180   O     0.85360   0.16666   0.32549   0.00000  Uiso   1.00
O181   O     0.79373   0.10654   0.25000   0.00000  Uiso   1.00
O182   O     0.87292   0.10655   0.25000   0.00000  Uiso   1.00
O183   O     0.81306   0.16667   0.17451   0.00000  Uiso   1.00
O184   O     0.89225   0.16668   0.17451   0.00000  Uiso   1.00
O185   O     0.74702   0.03890   0.30793   0.00000  Uiso   1.00
H186   H     0.75548   0.06451   0.32373   0.00000  Uiso   1.00
O187   O     0.93272   0.21730   0.31693   0.00000  Uiso   1.00
H188   H     0.94942   0.23312   0.33867   0.00000  Uiso   1.00
O189   O     0.75183   0.11062   0.06074   0.00000  Uiso   1.00
H190   H     0.77971   0.09513   0.06646   0.00000  Uiso   1.00
O191   O     0.91994   0.29263   0.20192   0.00000  Uiso   1.00
C192   C     0.92268   0.28551   0.14907   0.00000  Uiso   1.00
H193   H     0.92460   0.31524   0.12795   0.00000  Uiso   1.00
H194   H     0.89070   0.26739   0.14516   0.00000  Uiso   1.00
C195   C     0.96860   0.26086   0.12357   0.00000  Uiso   1.00
H196   H     0.96771   0.23107   0.14406   0.00000  Uiso   1.00
H197   H     0.97094   0.25458   0.08207   0.00000  Uiso   1.00
H198   H     0.66807   0.27851   0.12541   0.00000  Uiso   1.00
C199   C     0.16684   0.57924   0.24964   0.00000  Uiso   1.00
C200   C     0.14967   0.47232   0.48677   0.00000  Uiso   1.00
C201   C     0.16452   0.47516   0.43162   0.00000  Uiso   1.00
C202   C     0.18501   0.48070   0.01375   0.00000  Uiso   1.00
C203   C     0.23508   0.48324   0.48543   0.00000  Uiso   1.00
C204   C     0.24964   0.47532   0.43216   0.00000  Uiso   1.00
C205   C     0.21487   0.47043   0.40572   0.00000  Uiso   1.00
C206   C     0.17183   0.49001   0.06721   0.00000  Uiso   1.00
C207   C     0.25667   0.49920   0.06437   0.00000  Uiso   1.00
C208   C     0.12842   0.48178   0.40495   0.00000  Uiso   1.00
C209   C     0.20983   0.64588   0.22575   0.00000  Uiso   1.00
C210   C     0.14134   0.49464   0.34946   0.00000  Uiso   1.00
C211   C     0.20899   0.35527   0.22820   0.00000  Uiso   1.00
C212   C     0.16577   0.37614   0.25347   0.00000  Uiso   1.00
C213   C     0.12291   0.35389   0.27846   0.00000  Uiso   1.00
C214   C     0.12368   0.64459   0.27476   0.00000  Uiso   1.00
C215   C     0.16691   0.62384   0.24959   0.00000  Uiso   1.00
C216   C     0.29949   0.52519   0.28352   0.00000  Uiso   1.00
C217   C     0.01611   0.52489   0.28340   0.00000  Uiso   1.00
C218   C     0.03364   0.47515   0.21655   0.00000  Uiso   1.00
C219   C     0.31741   0.47513   0.21659   0.00000  Uiso   1.00
C220   C     0.16618   0.42077   0.25160   0.00000  Uiso   1.00
C221   C     0.19255   0.50011   0.14994   0.00000  Uiso   1.00
C222   C     0.27013   0.49355   0.01065   0.00000  Uiso   1.00
C223   C     0.20740   0.49700   0.09300   0.00000  Uiso   1.00
C224   C     0.07917   0.47563   0.43216   0.00000  Uiso   1.00
C225   C     0.06596   0.46315   0.48402   0.00000  Uiso   1.00
C226   C     0.10033   0.46115   0.01175   0.00000  Uiso   1.00
Cu227  Cu    0.11978   0.49999   0.25000   0.00000  Uiso   1.00
Cu228  Cu    0.21355   0.50001   0.25000   0.00000  Uiso   1.00
H229   H     0.28468   0.50559   0.08335   0.00000  Uiso   1.00
H230   H     0.24207   0.37209   0.20935   0.00000  Uiso   1.00
H231   H     0.09084   0.62754   0.29389   0.00000  Uiso   1.00
H232   H     0.02831   0.54469   0.30989   0.00000  Uiso   1.00
H233   H     0.05940   0.45519   0.18972   0.00000  Uiso   1.00
H234   H     0.30586   0.45517   0.18981   0.00000  Uiso   1.00
H235   H     0.28801   0.47381   0.41061   0.00000  Uiso   1.00
H236   H     0.30780   0.49769   0.48848   0.00000  Uiso   1.00
H237   H     0.13388   0.49263   0.08917   0.00000  Uiso   1.00
H238   H     0.05099   0.47838   0.41260   0.00000  Uiso   1.00
H239   H     0.02884   0.45381   0.00287   0.00000  Uiso   1.00
H240   H     0.22864   0.46144   0.36536   0.00000  Uiso   1.00
N241   N     0.04931   0.49999   0.24999   0.00000  Uiso   1.00
N242   N     0.28402   0.50002   0.25000   0.00000  Uiso   1.00
O243   O     0.12708   0.56011   0.25001   0.00000  Uiso   1.00
O244   O     0.20627   0.56012   0.25001   0.00000  Uiso   1.00
O245   O     0.10775   0.49998   0.32549   0.00000  Uiso   1.00
O246   O     0.18694   0.49999   0.32549   0.00000  Uiso   1.00
O247   O     0.12706   0.43988   0.25000   0.00000  Uiso   1.00
O248   O     0.20625   0.43989   0.25000   0.00000  Uiso   1.00
O249   O     0.14640   0.50001   0.17451   0.00000  Uiso   1.00
O250   O     0.22559   0.50002   0.17451   0.00000  Uiso   1.00
O251   O     0.08035   0.37223   0.30793   0.00000  Uiso   1.00
H252   H     0.08881   0.39785   0.32373   0.00000  Uiso   1.00
O253   O     0.26606   0.55063   0.31693   0.00000  Uiso   1.00
H254   H     0.28275   0.56645   0.33867   0.00000  Uiso   1.00
O255   O     0.08517   0.44395   0.06074   0.00000  Uiso   1.00
H256   H     0.11304   0.42847   0.06646   0.00000  Uiso   1.00
O257   O     0.25328   0.62597   0.20192   0.00000  Uiso   1.00
C258   C     0.25601   0.61884   0.14907   0.00000  Uiso   1.00
H259   H     0.25793   0.64858   0.12795   0.00000  Uiso   1.00
H260   H     0.22404   0.60072   0.14516   0.00000  Uiso   1.00
C261   C     0.30193   0.59420   0.12357   0.00000  Uiso   1.00
H262   H     0.30104   0.56440   0.14406   0.00000  Uiso   1.00
H263   H     0.30427   0.58792   0.08207   0.00000  Uiso   1.00
H264   H     0.00140   0.61185   0.12541   0.00000  Uiso   1.00
C265   C     0.50017   0.57924   0.24964   0.00000  Uiso   1.00
C266   C     0.48301   0.47232   0.48677   0.00000  Uiso   1.00
C267   C     0.49785   0.47516   0.43162   0.00000  Uiso   1.00
C268   C     0.51834   0.48070   0.01375   0.00000  Uiso   1.00
C269   C     0.56842   0.48324   0.48543   0.00000  Uiso   1.00
C270   C     0.58297   0.47532   0.43216   0.00000  Uiso   1.00
C271   C     0.54820   0.47043   0.40572   0.00000  Uiso   1.00
C272   C     0.50516   0.49001   0.06721   0.00000  Uiso   1.00
C273   C     0.59000   0.49920   0.06437   0.00000  Uiso   1.00
C274   C     0.46175   0.48178   0.40495   0.00000  Uiso   1.00
C275   C     0.54316   0.64588   0.22575   0.00000  Uiso   1.00
C276   C     0.47467   0.49464   0.34946   0.00000  Uiso   1.00
C277   C     0.54232   0.35527   0.22820   0.00000  Uiso   1.00
C278   C     0.49910   0.37614   0.25347   0.00000  Uiso   1.00
C279   C     0.45625   0.35389   0.27846   0.00000  Uiso   1.00
C280   C     0.45702   0.64459   0.27476   0.00000  Uiso   1.00
C281   C     0.50024   0.62384   0.24959   0.00000  Uiso   1.00
C282   C     0.63283   0.52519   0.28352   0.00000  Uiso   1.00
C283   C     0.34944   0.52489   0.28340   0.00000  Uiso   1.00
C284   C     0.36697   0.47515   0.21655   0.00000  Uiso   1.00
C285   C     0.65075   0.47513   0.21659   0.00000  Uiso   1.00
C286   C     0.49951   0.42077   0.25160   0.00000  Uiso   1.00
C287   C     0.52589   0.50011   0.14994   0.00000  Uiso   1.00
C288   C     0.60346   0.49355   0.01065   0.00000  Uiso   1.00
C289   C     0.54074   0.49700   0.09300   0.00000  Uiso   1.00
C290   C     0.41251   0.47563   0.43216   0.00000  Uiso   1.00
C291   C     0.39930   0.46315   0.48402   0.00000  Uiso   1.00
C292   C     0.43366   0.46115   0.01175   0.00000  Uiso   1.00
Cu293  Cu    0.45311   0.49999   0.25000   0.00000  Uiso   1.00
Cu294  Cu    0.54689   0.50001   0.25000   0.00000  Uiso   1.00
H295   H     0.61802   0.50559   0.08335   0.00000  Uiso   1.00
H296   H     0.57541   0.37209   0.20935   0.00000  Uiso   1.00
H297   H     0.42418   0.62754   0.29389   0.00000  Uiso   1.00
H298   H     0.36164   0.54469   0.30989   0.00000  Uiso   1.00
H299   H     0.39273   0.45519   0.18972   0.00000  Uiso   1.00
H300   H     0.63919   0.45517   0.18981   0.00000  Uiso   1.00
H301   H     0.62134   0.47381   0.41061   0.00000  Uiso   1.00
H302   H     0.64113   0.49769   0.48848   0.00000  Uiso   1.00
H303   H     0.46721   0.49263   0.08917   0.00000  Uiso   1.00
H304   H     0.38432   0.47838   0.41260   0.00000  Uiso   1.00
H305   H     0.36218   0.45381   0.00287   0.00000  Uiso   1.00
H306   H     0.56198   0.46144   0.36536   0.00000  Uiso   1.00
N307   N     0.38265   0.49999   0.24999   0.00000  Uiso   1.00
N308   N     0.61735   0.50002   0.25000   0.00000  Uiso   1.00
O309   O     0.46042   0.56011   0.25001   0.00000  Uiso   1.00
O310   O     0.53961   0.56012   0.25001   0.00000  Uiso   1.00
O311   O     0.44108   0.49998   0.32549   0.00000  Uiso   1.00
O312   O     0.52027   0.49999   0.32549   0.00000  Uiso   1.00
O313   O     0.46039   0.43988   0.25000   0.00000  Uiso   1.00
O314   O     0.53958   0.43989   0.25000   0.00000  Uiso   1.00
O315   O     0.47973   0.50001   0.17451   0.00000  Uiso   1.00
O316   O     0.55892   0.50002   0.17451   0.00000  Uiso   1.00
O317   O     0.41369   0.37223   0.30793   0.00000  Uiso   1.00
H318   H     0.42214   0.39785   0.32373   0.00000  Uiso   1.00
O319   O     0.59939   0.55063   0.31693   0.00000  Uiso   1.00
H320   H     0.61608   0.56645   0.33867   0.00000  Uiso   1.00
O321   O     0.41850   0.44395   0.06074   0.00000  Uiso   1.00
H322   H     0.44637   0.42847   0.06646   0.00000  Uiso   1.00
O323   O     0.58661   0.62597   0.20192   0.00000  Uiso   1.00
C324   C     0.58934   0.61884   0.14907   0.00000  Uiso   1.00
H325   H     0.59127   0.64858   0.12795   0.00000  Uiso   1.00
H326   H     0.55737   0.60072   0.14516   0.00000  Uiso   1.00
C327   C     0.63526   0.59420   0.12357   0.00000  Uiso   1.00
H328   H     0.63438   0.56440   0.14406   0.00000  Uiso   1.00
H329   H     0.63760   0.58792   0.08207   0.00000  Uiso   1.00
H330   H     0.33474   0.61185   0.12541   0.00000  Uiso   1.00
C331   C     0.83350   0.57924   0.24964   0.00000  Uiso   1.00
C332   C     0.81634   0.47232   0.48677   0.00000  Uiso   1.00
C333   C     0.83118   0.47516   0.43162   0.00000  Uiso   1.00
C334   C     0.85167   0.48070   0.01375   0.00000  Uiso   1.00
C335   C     0.90175   0.48324   0.48543   0.00000  Uiso   1.00
C336   C     0.91630   0.47532   0.43216   0.00000  Uiso   1.00
C337   C     0.88153   0.47043   0.40572   0.00000  Uiso   1.00
C338   C     0.83849   0.49001   0.06721   0.00000  Uiso   1.00
C339   C     0.92334   0.49920   0.06437   0.00000  Uiso   1.00
C340   C     0.79509   0.48178   0.40495   0.00000  Uiso   1.00
C341   C     0.87650   0.64588   0.22575   0.00000  Uiso   1.00
C342   C     0.80800   0.49464   0.34946   0.00000  Uiso   1.00
C343   C     0.87565   0.35527   0.22820   0.00000  Uiso   1.00
C344   C     0.83244   0.37614   0.25347   0.00000  Uiso   1.00
C345   C     0.78958   0.35389   0.27846   0.00000  Uiso   1.00
C346   C     0.79035   0.64459   0.27476   0.00000  Uiso   1.00
C347   C     0.83358   0.62384   0.24959   0.00000  Uiso   1.00
C348   C     0.96616   0.52519   0.28352   0.00000  Uiso   1.00
C349   C     0.68278   0.52489   0.28340   0.00000  Uiso   1.00
C350   C     0.70031   0.47515   0.21655   0.00000  Uiso   1.00
C351   C     0.98408   0.47513   0.21659   0.00000  Uiso   1.00
C352   C     0.83285   0.42077   0.25160   0.00000  Uiso   1.00
C353   C     0.85922   0.50011   0.14994   0.00000  Uiso   1.00
C354   C     0.93680   0.49355   0.01065   0.00000  Uiso   1.00
C355   C     0.87407   0.49700   0.09300   0.00000  Uiso   1.00
C356   C     0.74584   0.47563   0.43216   0.00000  Uiso   1.00
C357   C     0.73263   0.46315   0.48402   0.00000  Uiso   1.00
C358   C     0.76700   0.46115   0.01175   0.00000  Uiso   1.00
Cu359  Cu    0.78645   0.49999   0.25000   0.00000  Uiso   1.00
Cu360  Cu    0.88022   0.50001   0.25000   0.00000  Uiso   1.00
H361   H     0.95135   0.50559   0.08335   0.00000  Uiso   1.00
H362   H     0.90874   0.37209   0.20935   0.00000  Uiso   1.00
H363   H     0.75751   0.62754   0.29389   0.00000  Uiso   1.00
H364   H     0.69497   0.54469   0.30989   0.00000  Uiso   1.00
H365   H     0.72607   0.45519   0.18972   0.00000  Uiso   1.00
H366   H     0.97253   0.45517   0.18981   0.00000  Uiso   1.00
H367   H     0.95467   0.47381   0.41061   0.00000  Uiso   1.00
H368   H     0.97447   0.49769   0.48848   0.00000  Uiso   1.00
H369   H     0.80054   0.49263   0.08917   0.00000  Uiso   1.00
H370   H     0.71765   0.47838   0.41260   0.00000  Uiso   1.00
H371   H     0.69551   0.45381   0.00287   0.00000  Uiso   1.00
H372   H     0.89531   0.46144   0.36536   0.00000  Uiso   1.00
N373   N     0.71598   0.49999   0.24999   0.00000  Uiso   1.00
N374   N     0.95069   0.50002   0.25000   0.00000  Uiso   1.00
O375   O     0.79375   0.56011   0.25001   0.00000  Uiso   1.00
O376   O     0.87294   0.56012   0.25001   0.00000  Uiso   1.00
O377   O     0.77441   0.49998   0.32549   0.00000  Uiso   1.00
O378   O     0.85360   0.49999   0.32549   0.00000  Uiso   1.00
O379   O     0.79373   0.43988   0.25000   0.00000  Uiso   1.00
O380   O     0.87292   0.43989   0.25000   0.00000  Uiso   1.00
O381   O     0.81306   0.50001   0.17451   0.00000  Uiso   1.00
O382   O     0.89225   0.50002   0.17451   0.00000  Uiso   1.00
O383   O     0.74702   0.37223   0.30793   0.00000  Uiso   1.00
H384   H     0.75548   0.39785   0.32373   0.00000  Uiso   1.00
O385   O     0.93272   0.55063   0.31693   0.00000  Uiso   1.00
H386   H     0.94942   0.56645   0.33867   0.00000  Uiso   1.00
O387   O     0.75183   0.44395   0.06074   0.00000  Uiso   1.00
H388   H     0.77971   0.42847   0.06646   0.00000  Uiso   1.00
O389   O     0.91994   0.62597   0.20192   0.00000  Uiso   1.00
C390   C     0.92268   0.61884   0.14907   0.00000  Uiso   1.00
H391   H     0.92460   0.64858   0.12795   0.00000  Uiso   1.00
H392   H     0.89070   0.60072   0.14516   0.00000  Uiso   1.00
C393   C     0.96860   0.59420   0.12357   0.00000  Uiso   1.00
H394   H     0.96771   0.56440   0.14406   0.00000  Uiso   1.00
H395   H     0.97094   0.58792   0.08207   0.00000  Uiso   1.00
H396   H     0.66807   0.61185   0.12541   0.00000  Uiso   1.00
C397   C     0.16684   0.91257   0.24964   0.00000  Uiso   1.00
C398   C     0.14967   0.80565   0.48677   0.00000  Uiso   1.00
C399   C     0.16452   0.80849   0.43162   0.00000  Uiso   1.00
C400   C     0.18501   0.81403   0.01375   0.00000  Uiso   1.00
C401   C     0.23508   0.81657   0.48543   0.00000  Uiso   1.00
C402   C     0.24964   0.80866   0.43216   0.00000  Uiso   1.00
C403   C     0.21487   0.80377   0.40572   0.00000  Uiso   1.00
C404   C     0.17183   0.82334   0.06721   0.00000  Uiso   1.00
C405   C     0.25667   0.83253   0.06437   0.00000  Uiso   1.00
C406   C     0.12842   0.81512   0.40495   0.00000  Uiso   1.00
C407   C     0.20983   0.97922   0.22575   0.00000  Uiso   1.00
C408   C     0.14134   0.82797   0.34946   0.00000  Uiso   1.00
C409   C     0.20899   0.68860   0.22820   0.00000  Uiso   1.00
C410   C     0.16577   0.70947   0.25347   0.00000  Uiso   1.00
C411   C     0.12291   0.68723   0.27846   0.00000  Uiso   1.00
C412   C     0.12368   0.97793   0.27476   0.00000  Uiso   1.00
C413   C     0.16691   0.95717   0.24959   0.00000  Uiso   1.00
C414   C     0.29949   0.85852   0.28352   0.00000  Uiso   1.00
C415   C     0.01611   0.85823   0.28340   0.00000  Uiso   1.00
C416   C     0.03364   0.80849   0.21655   0.00000  Uiso   1.00
C417   C     0.31741   0.80847   0.21659   0.00000  Uiso   1.00
C418   C     0.16618   0.75410   0.25160   0.00000  Uiso   1.00
C419   C     0.19255   0.83345   0.14994   0.00000  Uiso   1.00
C420   C     0.27013   0.82689   0.01065   0.00000  Uiso   1.00
C421   C     0.20740   0.83033   0.09300   0.00000  Uiso   1.00
C422   C     0.07917   0.80896   0.43216   0.00000  Uiso   1.00
C423   C     0.06596   0.79649   0.48402   0.00000  Uiso   1.00
C424   C     0.10033   0.79449   0.01175   0.00000  Uiso   1.00
Cu425  Cu    0.11978   0.83333   0.25000   0.00000  Uiso   1.00
Cu426  Cu    0.21355   0.83334   0.25000   0.00000  Uiso   1.00
H427   H     0.28468   0.83892   0.08335   0.00000  Uiso   1.00
H428   H     0.24207   0.70542   0.20935   0.00000  Uiso   1.00
H429   H     0.09084   0.96088   0.29389   0.00000  Uiso   1.00
H430   H     0.02831   0.87802   0.30989   0.00000  Uiso   1.00
H431   H     0.05940   0.78853   0.18972   0.00000  Uiso   1.00
H432   H     0.30586   0.78850   0.18981   0.00000  Uiso   1.00
H433   H     0.28801   0.80714   0.41061   0.00000  Uiso   1.00
H434   H     0.30780   0.83102   0.48848   0.00000  Uiso   1.00
H435   H     0.13388   0.82597   0.08917   0.00000  Uiso   1.00
H436   H     0.05099   0.81171   0.41260   0.00000  Uiso   1.00
H437   H     0.02884   0.78714   0.00287   0.00000  Uiso   1.00
H438   H     0.22864   0.79477   0.36536   0.00000  Uiso   1.00
N439   N     0.04931   0.83332   0.24999   0.00000  Uiso   1.00
N440   N     0.28402   0.83335   0.25000   0.00000  Uiso   1.00
O441   O     0.12708   0.89345   0.25001   0.00000  Uiso   1.00
O442   O     0.20627   0.89346   0.25001   0.00000  Uiso   1.00
O443   O     0.10775   0.83332   0.32549   0.00000  Uiso   1.00
O444   O     0.18694   0.83333   0.32549   0.00000  Uiso   1.00
O445   O     0.12706   0.77321   0.25000   0.00000  Uiso   1.00
O446   O     0.20625   0.77322   0.25000   0.00000  Uiso   1.00
O447   O     0.14640   0.83334   0.17451   0.00000  Uiso   1.00
O448   O     0.22559   0.83335   0.17451   0.00000  Uiso   1.00
O449   O     0.08035   0.70557   0.30793   0.00000  Uiso   1.00
H450   H     0.08881   0.73118   0.32373   0.00000  Uiso   1.00
O451   O     0.26606   0.88397   0.31693   0.00000  Uiso   1.00
H452   H     0.28275   0.89978   0.33867   0.00000  Uiso   1.00
O453   O     0.08517   0.77729   0.06074   0.00000  Uiso   1.00
H454   H     0.11304   0.76180   0.06646   0.00000  Uiso   1.00
O455   O     0.25328   0.95930   0.20192   0.00000  Uiso   1.00
C456   C     0.25601   0.95217   0.14907   0.00000  Uiso   1.00
H457   H     0.25793   0.98191   0.12795   0.00000  Uiso   1.00
H458   H     0.22404   0.93406   0.14516   0.00000  Uiso   1.00
C459   C     0.30193   0.92753   0.12357   0.00000  Uiso   1.00
H460   H     0.30104   0.89773   0.14406   0.00000  Uiso   1.00
H461   H     0.30427   0.92125   0.08207   0.00000  Uiso   1.00
H462   H     0.00140   0.94518   0.12541   0.00000  Uiso   1.00
C463   C     0.50017   0.91257   0.24964   0.00000  Uiso   1.00
C464   C     0.48301   0.80565   0.48677   0.00000  Uiso   1.00
C465   C     0.49785   0.80849   0.43162   0.00000  Uiso   1.00
C466   C     0.51834   0.81403   0.01375   0.00000  Uiso   1.00
C467   C     0.56842   0.81657   0.48543   0.00000  Uiso   1.00
C468   C     0.58297   0.80866   0.43216   0.00000  Uiso   1.00
C469   C     0.54820   0.80377   0.40572   0.00000  Uiso   1.00
C470   C     0.50516   0.82334   0.06721   0.00000  Uiso   1.00
C471   C     0.59000   0.83253   0.06437   0.00000  Uiso   1.00
C472   C     0.46175   0.81512   0.40495   0.00000  Uiso   1.00
C473   C     0.54316   0.97922   0.22575   0.00000  Uiso   1.00
C474   C     0.47467   0.82797   0.34946   0.00000  Uiso   1.00
C475   C     0.54232   0.68860   0.22820   0.00000  Uiso   1.00
C476   C     0.49910   0.70947   0.25347   0.00000  Uiso   1.00
C477   C     0.45625   0.68723   0.27846   0.00000  Uiso   1.00
C478   C     0.45702   0.97793   0.27476   0.00000  Uiso   1.00
C479   C     0.50024   0.95717   0.24959   0.00000  Uiso   1.00
C480   C     0.63283   0.85852   0.28352   0.00000  Uiso   1.00
C481   C     0.34944   0.85823   0.28340   0.00000  Uiso   1.00
C482   C     0.36697   0.80849   0.21655   0.00000  Uiso   1.00
C483   C     0.65075   0.80847   0.21659   0.00000  Uiso   1.00
C484   C     0.49951   0.75410   0.25160   0.00000  Uiso   1.00
C485   C     0.52589   0.83345   0.14994   0.00000  Uiso   1.00
C486   C     0.60346   0.82689   0.01065   0.00000  Uiso   1.00
C487   C     0.54074   0.83033   0.09300   0.00000  Uiso   1.00
C488   C     0.41251   0.80896   0.43216   0.00000  Uiso   1.00
C489   C     0.39930   0.79649   0.48402   0.00000  Uiso   1.00
C490   C     0.43366   0.79449   0.01175   0.00000  Uiso   1.00
Cu491  Cu    0.45311   0.83333   0.25000   0.00000  Uiso   1.00
Cu492  Cu    0.54689   0.83334   0.25000   0.00000  Uiso   1.00
H493   H     0.61802   0.83892   0.08335   0.00000  Uiso   1.00
H494   H     0.57541   0.70542   0.20935   0.00000  Uiso   1.00
H495   H     0.42418   0.96088   0.29389   0.00000  Uiso   1.00
H496   H     0.36164   0.87802   0.30989   0.00000  Uiso   1.00
H497   H     0.39273   0.78853   0.18972   0.00000  Uiso   1.00
H498   H     0.63919   0.78850   0.18981   0.00000  Uiso   1.00
H499   H     0.62134   0.80714   0.41061   0.00000  Uiso   1.00
H500   H     0.64113   0.83102   0.48848   0.00000  Uiso   1.00
H501   H     0.46721   0.82597   0.08917   0.00000  Uiso   1.00
H502   H     0.38432   0.81171   0.41260   0.00000  Uiso   1.00
H503   H     0.36218   0.78714   0.00287   0.00000  Uiso   1.00
H504   H     0.56198   0.79477   0.36536   0.00000  Uiso   1.00
N505   N     0.38265   0.83332   0.24999   0.00000  Uiso   1.00
N506   N     0.61735   0.83335   0.25000   0.00000  Uiso   1.00
O507   O     0.46042   0.89345   0.25001   0.00000  Uiso   1.00
O508   O     0.53961   0.89346   0.25001   0.00000  Uiso   1.00
O509   O     0.44108   0.83332   0.32549   0.00000  Uiso   1.00
O510   O     0.52027   0.83333   0.32549   0.00000  Uiso   1.00
O511   O     0.46039   0.77321   0.25000   0.00000  Uiso   1.00
O512   O     0.53958   0.77322   0.25000   0.00000  Uiso   1.00
O513   O     0.47973   0.83334   0.17451   0.00000  Uiso   1.00
O514   O     0.55892   0.83335   0.17451   0.00000  Uiso   1.00
O515   O     0.41369   0.70557   0.30793   0.00000  Uiso   1.00
H516   H     0.42214   0.73118   0.32373   0.00000  Uiso   1.00
O517   O     0.59939   0.88397   0.31693   0.00000  Uiso   1.00
H518   H     0.61608   0.89978   0.33867   0.00000  Uiso   1.00
O519   O     0.41850   0.77729   0.06074   0.00000  Uiso   1.00
H520   H     0.44637   0.76180   0.06646   0.00000  Uiso   1.00
O521   O     0.58661   0.95930   0.20192   0.00000  Uiso   1.00
C522   C     0.58934   0.95217   0.14907   0.00000  Uiso   1.00
H523   H     0.59127   0.98191   0.12795   0.00000  Uiso   1.00
H524   H     0.55737   0.93406   0.14516   0.00000  Uiso   1.00
C525   C     0.63526   0.92753   0.12357   0.00000  Uiso   1.00
H526   H     0.63438   0.89773   0.14406   0.00000  Uiso   1.00
H527   H     0.63760   0.92125   0.08207   0.00000  Uiso   1.00
H528   H     0.33474   0.94518   0.12541   0.00000  Uiso   1.00
C529   C     0.83350   0.91257   0.24964   0.00000  Uiso   1.00
C530   C     0.81634   0.80565   0.48677   0.00000  Uiso   1.00
C531   C     0.83118   0.80849   0.43162   0.00000  Uiso   1.00
C532   C     0.85167   0.81403   0.01375   0.00000  Uiso   1.00
C533   C     0.90175   0.81657   0.48543   0.00000  Uiso   1.00
C534   C     0.91630   0.80866   0.43216   0.00000  Uiso   1.00
C535   C     0.88153   0.80377   0.40572   0.00000  Uiso   1.00
C536   C     0.83849   0.82334   0.06721   0.00000  Uiso   1.00
C537   C     0.92334   0.83253   0.06437   0.00000  Uiso   1.00
C538   C     0.79509   0.81512   0.40495   0.00000  Uiso   1.00
C539   C     0.87650   0.97922   0.22575   0.00000  Uiso   1.00
C540   C     0.80800   0.82797   0.34946   0.00000  Uiso   1.00
C541   C     0.87565   0.68860   0.22820   0.00000  Uiso   1.00
C542   C     0.83244   0.70947   0.25347   0.00000  Uiso   1.00
C543   C     0.78958   0.68723   0.27846   0.00000  Uiso   1.00
C544   C     0.79035   0.97793   0.27476   0.00000  Uiso   1.00
C545   C     0.83358   0.95717   0.24959   0.00000  Uiso   1.00
C546   C     0.96616   0.85852   0.28352   0.00000  Uiso   1.00
C547   C     0.68278   0.85823   0.28340   0.00000  Uiso   1.00
C548   C     0.70031   0.80849   0.21655   0.00000  Uiso   1.00
C549   C     0.98408   0.80847   0.21659   0.00000  Uiso   1.00
C550   C     0.83285   0.75410   0.25160   0.00000  Uiso   1.00
C551   C     0.85922   0.83345   0.14994   0.00000  Uiso   1.00
C552   C     0.93680   0.82689   0.01065   0.00000  Uiso   1.00
C553   C     0.87407   0.83033   0.09300   0.00000  Uiso   1.00
C554   C     0.74584   0.80896   0.43216   0.00000  Uiso   1.00
C555   C     0.73263   0.79649   0.48402   0.00000  Uiso   1.00
C556   C     0.76700   0.79449   0.01175   0.00000  Uiso   1.00
Cu557  Cu    0.78645   0.83333   0.25000   0.00000  Uiso   1.00
Cu558  Cu    0.88022   0.83334   0.25000   0.00000  Uiso   1.00
H559   H     0.95135   0.83892   0.08335   0.00000  Uiso   1.00
H560   H     0.90874   0.70542   0.20935   0.00000  Uiso   1.00
H561   H     0.75751   0.96088   0.29389   0.00000  Uiso   1.00
H562   H     0.69497   0.87802   0.30989   0.00000  Uiso   1.00
H563   H     0.72607   0.78853   0.18972   0.00000  Uiso   1.00
H564   H     0.97253   0.78850   0.18981   0.00000  Uiso   1.00
H565   H     0.95467   0.80714   0.41061   0.00000  Uiso   1.00
H566   H     0.97447   0.83102   0.48848   0.00000  Uiso   1.00
H567   H     0.80054   0.82597   0.08917   0.00000  Uiso   1.00
H568   H     0.71765   0.81171   0.41260   0.00000  Uiso   1.00
H569   H     0.69551   0.78714   0.00287   0.00000  Uiso   1.00
H570   H     0.89531   0.79477   0.36536   0.00000  Uiso   1.00
N571   N     0.71598   0.83332   0.24999   0.00000  Uiso   1.00
N572   N     0.95069   0.83335   0.25000   0.00000  Uiso   1.00
O573   O     0.79375   0.89345   0.25001   0.00000  Uiso   1.00
O574   O     0.87294   0.89346   0.25001   0.00000  Uiso   1.00
O575   O     0.77441   0.83332   0.32549   0.00000  Uiso   1.00
O576   O     0.85360   0.83333   0.32549   0.00000  Uiso   1.00
O577   O     0.79373   0.77321   0.25000   0.00000  Uiso   1.00
O578   O     0.87292   0.77322   0.25000   0.00000  Uiso   1.00
O579   O     0.81306   0.83334   0.17451   0.00000  Uiso   1.00
O580   O     0.89225   0.83335   0.17451   0.00000  Uiso   1.00
O581   O     0.74702   0.70557   0.30793   0.00000  Uiso   1.00
H582   H     0.75548   0.73118   0.32373   0.00000  Uiso   1.00
O583   O     0.93272   0.88397   0.31693   0.00000  Uiso   1.00
H584   H     0.94942   0.89978   0.33867   0.00000  Uiso   1.00
O585   O     0.75183   0.77729   0.06074   0.00000  Uiso   1.00
H586   H     0.77971   0.76180   0.06646   0.00000  Uiso   1.00
O587   O     0.91994   0.95930   0.20192   0.00000  Uiso   1.00
C588   C     0.92268   0.95217   0.14907   0.00000  Uiso   1.00
H589   H     0.92460   0.98191   0.12795   0.00000  Uiso   1.00
H590   H     0.89070   0.93406   0.14516   0.00000  Uiso   1.00
C591   C     0.96860   0.92753   0.12357   0.00000  Uiso   1.00
H592   H     0.96771   0.89773   0.14406   0.00000  Uiso   1.00
H593   H     0.97094   0.92125   0.08207   0.00000  Uiso   1.00
H594   H     0.66807   0.94518   0.12541   0.00000  Uiso   1.00
C595   C     0.16684   0.24591   0.74964   0.00000  Uiso   1.00
C596   C     0.14967   0.13899   0.98677   0.00000  Uiso   1.00
C597   C     0.16452   0.14182   0.93162   0.00000  Uiso   1.00
C598   C     0.18501   0.14737   0.51375   0.00000  Uiso   1.00
C599   C     0.23508   0.14990   0.98543   0.00000  Uiso   1.00
C600   C     0.24964   0.14199   0.93216   0.00000  Uiso   1.00
C601   C     0.21487   0.13710   0.90572   0.00000  Uiso   1.00
C602   C     0.17183   0.15668   0.56721   0.00000  Uiso   1.00
C603   C     0.25667   0.16587   0.56437   0.00000  Uiso   1.00
C604   C     0.12842   0.14845   0.90495   0.00000  Uiso   1.00
C605   C     0.20983   0.31255   0.72575   0.00000  Uiso   1.00
C606   C     0.14134   0.16131   0.84946   0.00000  Uiso   1.00
C607   C     0.20899   0.02193   0.72820   0.00000  Uiso   1.00
C608   C     0.16577   0.04281   0.75347   0.00000  Uiso   1.00
C609   C     0.12291   0.02056   0.77846   0.00000  Uiso   1.00
C610   C     0.12368   0.31126   0.77476   0.00000  Uiso   1.00
C611   C     0.16691   0.29051   0.74959   0.00000  Uiso   1.00
C612   C     0.29949   0.19185   0.78352   0.00000  Uiso   1.00
C613   C     0.01611   0.19156   0.78340   0.00000  Uiso   1.00
C614   C     0.03364   0.14182   0.71655   0.00000  Uiso   1.00
C615   C     0.31741   0.14180   0.71659   0.00000  Uiso   1.00
C616   C     0.16618   0.08744   0.75160   0.00000  Uiso   1.00
C617   C     0.19255   0.16678   0.64994   0.00000  Uiso   1.00
C618   C     0.27013   0.16022   0.51065   0.00000  Uiso   1.00
C619   C     0.20740   0.16367   0.59300   0.00000  Uiso   1.00
C620   C     0.07917   0.14229   0.93216   0.00000  Uiso   1.00
C621   C     0.06596   0.12982   0.98402   0.00000  Uiso   1.00
C622   C     0.10033   0.12782   0.51175   0.00000  Uiso   1.00
Cu623  Cu    0.11978   0.16666   0.75000   0.00000  Uiso   1.00
Cu624  Cu    0.21355   0.16667   0.75000   0.00000  Uiso   1.00
H625   H     0.28468   0.17226   0.58335   0.00000  Uiso   1.00
H626   H     0.24207   0.03876   0.70935   0.00000  Uiso   1.00
H627   H     0.09084   0.29421   0.79389   0.00000  Uiso   1.00
H628   H     0.02831   0.21136   0.80989   0.00000  Uiso   1.00
H629   H     0.05940   0.12186   0.68972   0.00000  Uiso   1.00
H630   H     0.30586   0.12184   0.68981   0.00000  Uiso   1.00
H631   H     0.28801   0.14047   0.91061   0.00000  Uiso   1.00
H632   H     0.30780   0.16436   0.98848   0.00000  Uiso   1.00
H633   H     0.13388   0.15930   0.58917   0.00000  Uiso   1.00
H634   H     0.05099   0.14505   0.91260   0.00000  Uiso   1.00
H635   H     0.02884   0.12048   0.50287   0.00000  Uiso   1.00
H636   H     0.22864   0.12810   0.86536   0.00000  Uiso   1.00
N637   N     0.04931   0.16666   0.74999   0.00000  Uiso   1.00
N638   N     0.28402   0.16669   0.75000   0.00000  Uiso   1.00
O639   O     0.12708   0.22678   0.75001   0.00000  Uiso   1.00
O640   O     0.20627   0.22679   0.75001   0.00000  Uiso   1.00
O641   O     0.10775   0.16665   0.82549   0.00000  Uiso   1.00
O642   O     0.18694   0.16666   0.82549   0.00000  Uiso   1.00
O643   O     0.12706   0.10654   0.75000   0.00000  Uiso   1.00
O644   O     0.20625   0.10655   0.75000   0.00000  Uiso   1.00
O645   O     0.14640   0.16667   0.67451   0.00000  Uiso   1.00
O646   O     0.22559   0.16668   0.67451   0.00000  Uiso   1.00
O647   O     0.08035   0.03890   0.80793   0.00000  Uiso   1.00
H648   H     0.08881   0.06451   0.82373   0.00000  Uiso   1.00
O649   O     0.26606   0.21730   0.81693   0.00000  Uiso   1.00
H650   H     0.28275   0.23312   0.83867   0.00000  Uiso   1.00
O651   O     0.08517   0.11062   0.56074   0.00000  Uiso   1.00
H652   H     0.11304   0.09513   0.56646   0.00000  Uiso   1.00
O653   O     0.25328   0.29263   0.70192   0.00000  Uiso   1.00
C654   C     0.25601   0.28551   0.64907   0.00000  Uiso   1.00
H655   H     0.25793   0.31524   0.62795   0.00000  Uiso   1.00
H656   H     0.22404   0.26739   0.64516   0.00000  Uiso   1.00
C657   C     0.30193   0.26086   0.62357   0.00000  Uiso   1.00
H658   H     0.30104   0.23107   0.64406   0.00000  Uiso   1.00
H659   H     0.30427   0.25458   0.58207   0.00000  Uiso   1.00
H660   H     0.00140   0.27851   0.62541   0.00000  Uiso   1.00
C661   C     0.50017   0.24591   0.74964   0.00000  Uiso   1.00
C662   C     0.48301   0.13899   0.98677   0.00000  Uiso   1.00
C663   C     0.49785   0.14182   0.93162   0.00000  Uiso   1.00
C664   C     0.51834   0.14737   0.51375   0.00000  Uiso   1.00
C665   C     0.56842   0.14990   0.98543   0.00000  Uiso   1.00
C666   C     0.58297   0.14199   0.93216   0.00000  Uiso   1.00
C667   C     0.54820   0.13710   0.90572   0.00000  Uiso   1.00
C668   C     0.50516   0.15668   0.56721   0.00000  Uiso   1.00
C669   C     0.59000   0.16587   0.56437   0.00000  Uiso   1.00
C670   C     0.46175   0.14845   0.90495   0.00000  Uiso   1.00
C671   C     0.54316   0.31255   0.72575   0.00000  Uiso   1.00
C672   C     0.47467   0.16131   0.84946   0.00000  Uiso   1.00
C673   C     0.54232   0.02193   0.72820   0.00000  Uiso   1.00
C674   C     0.49910   0.04281   0.75347   0.00000  Uiso   1.00
C675   C     0.45625   0.02056   0.77846   0.00000  Uiso   1.00
C676   C     0.45702   0.31126   0.77476   0.00000  Uiso   1.00
C677   C     0.50024   0.29051   0.74959   0.00000  Uiso   1.00
C678   C     0.63283   0.19185   0.78352   0.00000  Uiso   1.00
C679   C     0.34944   0.19156   0.78340   0.00000  Uiso   1.00
C680   C     0.36697   0.14182   0.71655   0.00000  Uiso   1.00
C681   C     0.65075   0.14180   0.71659   0.00000  Uiso   1.00
C682   C     0.49951   0.08744   0.75160   0.00000  Uiso   1.00
C683   C     0.52589   0.16678   0.64994   0.00000  Uiso   1.00
C684   C     0.60346   0.16022   0.51065   0.00000  Uiso   1.00
C685   C     0.54074   0.16367   0.59300   0.00000  Uiso   1.00
C686   C     0.41251   0.14229   0.93216   0.00000  Uiso   1.00
C687   C     0.39930   0.12982   0.98402   0.00000  Uiso   1.00
C688   C     0.43366   0.12782   0.51175   0.00000  Uiso   1.00
Cu689  Cu    0.45311   0.16666   0.75000   0.00000  Uiso   1.00
Cu690  Cu    0.54689   0.16667   0.75000   0.00000  Uiso   1.00
H691   H     0.61802   0.17226   0.58335   0.00000  Uiso   1.00
H692   H     0.57541   0.03876   0.70935   0.00000  Uiso   1.00
H693   H     0.42418   0.29421   0.79389   0.00000  Uiso   1.00
H694   H     0.36164   0.21136   0.80989   0.00000  Uiso   1.00
H695   H     0.39273   0.12186   0.68972   0.00000  Uiso   1.00
H696   H     0.63919   0.12184   0.68981   0.00000  Uiso   1.00
H697   H     0.62134   0.14047   0.91061   0.00000  Uiso   1.00
H698   H     0.64113   0.16436   0.98848   0.00000  Uiso   1.00
H699   H     0.46721   0.15930   0.58917   0.00000  Uiso   1.00
H700   H     0.38432   0.14505   0.91260   0.00000  Uiso   1.00
H701   H     0.36218   0.12048   0.50287   0.00000  Uiso   1.00
H702   H     0.56198   0.12810   0.86536   0.00000  Uiso   1.00
N703   N     0.38265   0.16666   0.74999   0.00000  Uiso   1.00
N704   N     0.61735   0.16669   0.75000   0.00000  Uiso   1.00
O705   O     0.46042   0.22678   0.75001   0.00000  Uiso   1.00
O706   O     0.53961   0.22679   0.75001   0.00000  Uiso   1.00
O707   O     0.44108   0.16665   0.82549   0.00000  Uiso   1.00
O708   O     0.52027   0.16666   0.82549   0.00000  Uiso   1.00
O709   O     0.46039   0.10654   0.75000   0.00000  Uiso   1.00
O710   O     0.53958   0.10655   0.75000   0.00000  Uiso   1.00
O711   O     0.47973   0.16667   0.67451   0.00000  Uiso   1.00
O712   O     0.55892   0.16668   0.67451   0.00000  Uiso   1.00
O713   O     0.41369   0.03890   0.80793   0.00000  Uiso   1.00
H714   H     0.42214   0.06451   0.82373   0.00000  Uiso   1.00
O715   O     0.59939   0.21730   0.81693   0.00000  Uiso   1.00
H716   H     0.61608   0.23312   0.83867   0.00000  Uiso   1.00
O717   O     0.41850   0.11062   0.56074   0.00000  Uiso   1.00
H718   H     0.44637   0.09513   0.56646   0.00000  Uiso   1.00
O719   O     0.58661   0.29263   0.70192   0.00000  Uiso   1.00
C720   C     0.58934   0.28551   0.64907   0.00000  Uiso   1.00
H721   H     0.59127   0.31524   0.62795   0.00000  Uiso   1.00
H722   H     0.55737   0.26739   0.64516   0.00000  Uiso   1.00
C723   C     0.63526   0.26086   0.62357   0.00000  Uiso   1.00
H724   H     0.63438   0.23107   0.64406   0.00000  Uiso   1.00
H725   H     0.63760   0.25458   0.58207   0.00000  Uiso   1.00
H726   H     0.33474   0.27851   0.62541   0.00000  Uiso   1.00
C727   C     0.83350   0.24591   0.74964   0.00000  Uiso   1.00
C728   C     0.81634   0.13899   0.98677   0.00000  Uiso   1.00
C729   C     0.83118   0.14182   0.93162   0.00000  Uiso   1.00
C730   C     0.85167   0.14737   0.51375   0.00000  Uiso   1.00
C731   C     0.90175   0.14990   0.98543   0.00000  Uiso   1.00
C732   C     0.91630   0.14199   0.93216   0.00000  Uiso   1.00
C733   C     0.88153   0.13710   0.90572   0.00000  Uiso   1.00
C734   C     0.83849   0.15668   0.56721   0.00000  Uiso   1.00
C735   C     0.92334   0.16587   0.56437   0.00000  Uiso   1.00
C736   C     0.79509   0.14845   0.90495   0.00000  Uiso   1.00
C737   C     0.87650   0.31255   0.72575   0.00000  Uiso   1.00
C738   C     0.80800   0.16131   0.84946   0.00000  Uiso   1.00
C739   C     0.87565   0.02193   0.72820   0.00000  Uiso   1.00
C740   C     0.83244   0.04281   0.75347   0.00000  Uiso   1.00
C741   C     0.78958   0.02056   0.77846   0.00000  Uiso   1.00
C742   C     0.79035   0.31126   0.77476   0.00000  Uiso   1.00
C743   C     0.83358   0.29051   0.74959   0.00000  Uiso   1.00
C744   C     0.96616   0.19185   0.78352   0.00000  Uiso   1.00
C745   C     0.68278   0.19156   0.78340   0.00000  Uiso   1.00
C746   C     0.70031   0.14182   0.71655   0.00000  Uiso   1.00
C747   C     0.98408   0.14180   0.71659   0.00000  Uiso   1.00
C748   C     0.83285   0.08744   0.75160   0.00000  Uiso   1.00
C749   C     0.85922   0.16678   0.64994   0.00000  Uiso   1.00
C750   C     0.93680   0.16022   0.51065   0.00000  Uiso   1.00
C751   C     0.87407   0.16367   0.59300   0.00000  Uiso   1.00
C752   C     0.74584   0.14229   0.93216   0.00000  Uiso   1.00
C753   C     0.73263   0.12982   0.98402   0.00000  Uiso   1.00
C754   C     0.76700   0.12782   0.51175   0.00000  Uiso   1.00
Cu755  Cu    0.78645   0.16666   0.75000   0.00000  Uiso   1.00
Cu756  Cu    0.88022   0.16667   0.75000   0.00000  Uiso   1.00
H757   H     0.95135   0.17226   0.58335   0.00000  Uiso   1.00
H758   H     0.90874   0.03876   0.70935   0.00000  Uiso   1.00
H759   H     0.75751   0.29421   0.79389   0.00000  Uiso   1.00
H760   H     0.69497   0.21136   0.80989   0.00000  Uiso   1.00
H761   H     0.72607   0.12186   0.68972   0.00000  Uiso   1.00
H762   H     0.97253   0.12184   0.68981   0.00000  Uiso   1.00
H763   H     0.95467   0.14047   0.91061   0.00000  Uiso   1.00
H764   H     0.97447   0.16436   0.98848   0.00000  Uiso   1.00
H765   H     0.80054   0.15930   0.58917   0.00000  Uiso   1.00
H766   H     0.71765   0.14505   0.91260   0.00000  Uiso   1.00
H767   H     0.69551   0.12048   0.50287   0.00000  Uiso   1.00
H768   H     0.89531   0.12810   0.86536   0.00000  Uiso   1.00
N769   N     0.71598   0.16666   0.74999   0.00000  Uiso   1.00
N770   N     0.95069   0.16669   0.75000   0.00000  Uiso   1.00
O771   O     0.79375   0.22678   0.75001   0.00000  Uiso   1.00
O772   O     0.87294   0.22679   0.75001   0.00000  Uiso   1.00
O773   O     0.77441   0.16665   0.82549   0.00000  Uiso   1.00
O774   O     0.85360   0.16666   0.82549   0.00000  Uiso   1.00
O775   O     0.79373   0.10654   0.75000   0.00000  Uiso   1.00
O776   O     0.87292   0.10655   0.75000   0.00000  Uiso   1.00
O777   O     0.81306   0.16667   0.67451   0.00000  Uiso   1.00
O778   O     0.89225   0.16668   0.67451   0.00000  Uiso   1.00
O779   O     0.74702   0.03890   0.80793   0.00000  Uiso   1.00
H780   H     0.75548   0.06451   0.82373   0.00000  Uiso   1.00
O781   O     0.93272   0.21730   0.81693   0.00000  Uiso   1.00
H782   H     0.94942   0.23312   0.83867   0.00000  Uiso   1.00
O783   O     0.75183   0.11062   0.56074   0.00000  Uiso   1.00
H784   H     0.77971   0.09513   0.56646   0.00000  Uiso   1.00
O785   O     0.91994   0.29263   0.70192   0.00000  Uiso   1.00
C786   C     0.92268   0.28551   0.64907   0.00000  Uiso   1.00
H787   H     0.92460   0.31524   0.62795   0.00000  Uiso   1.00
H788   H     0.89070   0.26739   0.64516   0.00000  Uiso   1.00
C789   C     0.96860   0.26086   0.62357   0.00000  Uiso   1.00
H790   H     0.96771   0.23107   0.64406   0.00000  Uiso   1.00
H791   H     0.97094   0.25458   0.58207   0.00000  Uiso   1.00
H792   H     0.66807   0.27851   0.62541   0.00000  Uiso   1.00
C793   C     0.16684   0.57924   0.74964   0.00000  Uiso   1.00
C794   C     0.14967   0.47232   0.98677   0.00000  Uiso   1.00
C795   C     0.16452   0.47516   0.93162   0.00000  Uiso   1.00
C796   C     0.18501   0.48070   0.51375   0.00000  Uiso   1.00
C797   C     0.23508   0.48324   0.98543   0.00000  Uiso   1.00
C798   C     0.24964   0.47532   0.93216   0.00000  Uiso   1.00
C799   C     0.21487   0.47043   0.90572   0.00000  Uiso   1.00
C800   C     0.17183   0.49001   0.56721   0.00000  Uiso   1.00
C801   C     0.25667   0.49920   0.56437   0.00000  Uiso   1.00
C802   C     0.12842   0.48178   0.90495   0.00000  Uiso   1.00
C803   C     0.20983   0.64588   0.72575   0.00000  Uiso   1.00
C804   C     0.14134   0.49464   0.84946   0.00000  Uiso   1.00
C805   C     0.20899   0.35527   0.72820   0.00000  Uiso   1.00
C806   C     0.16577   0.37614   0.75347   0.00000  Uiso   1.00
C807   C     0.12291   0.35389   0.77846   0.00000  Uiso   1.00
C808   C     0.12368   0.64459   0.77476   0.00000  Uiso   1.00
C809   C     0.16691   0.62384   0.74959   0.00000  Uiso   1.00
C810   C     0.29949   0.52519   0.78352   0.00000  Uiso   1.00
C811   C     0.01611   0.52489   0.78340   0.00000  Uiso   1.00
C812   C     0.03364   0.47515   0.71655   0.00000  Uiso   1.00
C813   C     0.31741   0.47513   0.71659   0.00000  Uiso   1.00
C814   C     0.16618   0.42077   0.75160   0.00000  Uiso   1.00
C815   C     0.19255   0.50011   0.64994   0.00000  Uiso   1.00
C816   C     0.27013   0.49355   0.51065   0.00000  Uiso   1.00
C817   C     0.20740   0.49700   0.59300   0.00000  Uiso   1.00
C818   C     0.07917   0.47563   0.93216   0.00000  Uiso   1.00
C819   C     0.06596   0.46315   0.98402   0.00000  Uiso   1.00
C820   C     0.10033   0.46115   0.51175   0.00000  Uiso   1.00
Cu821  Cu    0.11978   0.49999   0.75000   0.00000  Uiso   1.00
Cu822  Cu    0.21355   0.50001   0.75000   0.00000  Uiso   1.00
H823   H     0.28468   0.50559   0.58335   0.00000  Uiso   1.00
H824   H     0.24207   0.37209   0.70935   0.00000  Uiso   1.00
H825   H     0.09084   0.62754   0.79389   0.00000  Uiso   1.00
H826   H     0.02831   0.54469   0.80989   0.00000  Uiso   1.00
H827   H     0.05940   0.45519   0.68972   0.00000  Uiso   1.00
H828   H     0.30586   0.45517   0.68981   0.00000  Uiso   1.00
H829   H     0.28801   0.47381   0.91061   0.00000  Uiso   1.00
H830   H     0.30780   0.49769   0.98848   0.00000  Uiso   1.00
H831   H     0.13388   0.49263   0.58917   0.00000  Uiso   1.00
H832   H     0.05099   0.47838   0.91260   0.00000  Uiso   1.00
H833   H     0.02884   0.45381   0.50287   0.00000  Uiso   1.00
H834   H     0.22864   0.46144   0.86536   0.00000  Uiso   1.00
N835   N     0.04931   0.49999   0.74999   0.00000  Uiso   1.00
N836   N     0.28402   0.50002   0.75000   0.00000  Uiso   1.00
O837   O     0.12708   0.56011   0.75001   0.00000  Uiso   1.00
O838   O     0.20627   0.56012   0.75001   0.00000  Uiso   1.00
O839   O     0.10775   0.49998   0.82549   0.00000  Uiso   1.00
O840   O     0.18694   0.49999   0.82549   0.00000  Uiso   1.00
O841   O     0.12706   0.43988   0.75000   0.00000  Uiso   1.00
O842   O     0.20625   0.43989   0.75000   0.00000  Uiso   1.00
O843   O     0.14640   0.50001   0.67451   0.00000  Uiso   1.00
O844   O     0.22559   0.50002   0.67451   0.00000  Uiso   1.00
O845   O     0.08035   0.37223   0.80793   0.00000  Uiso   1.00
H846   H     0.08881   0.39785   0.82373   0.00000  Uiso   1.00
O847   O     0.26606   0.55063   0.81693   0.00000  Uiso   1.00
H848   H     0.28275   0.56645   0.83867   0.00000  Uiso   1.00
O849   O     0.08517   0.44395   0.56074   0.00000  Uiso   1.00
H850   H     0.11304   0.42847   0.56646   0.00000  Uiso   1.00
O851   O     0.25328   0.62597   0.70192   0.00000  Uiso   1.00
C852   C     0.25601   0.61884   0.64907   0.00000  Uiso   1.00
H853   H     0.25793   0.64858   0.62795   0.00000  Uiso   1.00
H854   H     0.22404   0.60072   0.64516   0.00000  Uiso   1.00
C855   C     0.30193   0.59420   0.62357   0.00000  Uiso   1.00
H856   H     0.30104   0.56440   0.64406   0.00000  Uiso   1.00
H857   H     0.30427   0.58792   0.58207   0.00000  Uiso   1.00
H858   H     0.00140   0.61185   0.62541   0.00000  Uiso   1.00
C859   C     0.50017   0.57924   0.74964   0.00000  Uiso   1.00
C860   C     0.48301   0.47232   0.98677   0.00000  Uiso   1.00
C861   C     0.49785   0.47516   0.93162   0.00000  Uiso   1.00
C862   C     0.51834   0.48070   0.51375   0.00000  Uiso   1.00
C863   C     0.56842   0.48324   0.98543   0.00000  Uiso   1.00
C864   C     0.58297   0.47532   0.93216   0.00000  Uiso   1.00
C865   C     0.54820   0.47043   0.90572   0.00000  Uiso   1.00
C866   C     0.50516   0.49001   0.56721   0.00000  Uiso   1.00
C867   C     0.59000   0.49920   0.56437   0.00000  Uiso   1.00
C868   C     0.46175   0.48178   0.90495   0.00000  Uiso   1.00
C869   C     0.54316   0.64588   0.72575   0.00000  Uiso   1.00
C870   C     0.47467   0.49464   0.84946   0.00000  Uiso   1.00
C871   C     0.54232   0.35527   0.72820   0.00000  Uiso   1.00
C872   C     0.49910   0.37614   0.75347   0.00000  Uiso   1.00
C873   C     0.45625   0.35389   0.77846   0.00000  Uiso   1.00
C874   C     0.45702   0.64459   0.77476   0.00000  Uiso   1.00
C875   C     0.50024   0.62384   0.74959   0.00000  Uiso   1.00
C876   C     0.63283   0.52519   0.78352   0.00000  Uiso   1.00
C877   C     0.34944   0.52489   0.78340   0.00000  Uiso   1.00
C878   C     0.36697   0.47515   0.71655   0.00000  Uiso   1.00
C879   C     0.65075   0.47513   0.71659   0.00000  Uiso   1.00
C880   C     0.49951   0.42077   0.75160   0.00000  Uiso   1.00
C881   C     0.52589   0.50011   0.64994   0.00000  Uiso   1.00
C882   C     0.60346   0.49355   0.51065   0.00000  Uiso   1.00
C883   C     0.54074   0.49700   0.59300   0.00000  Uiso   1.00
C884   C     0.41251   0.47563   0.93216   0.00000  Uiso   1.00
C885   C     0.39930   0.46315   0.98402   0.00000  Uiso   1.00
C886   C     0.43366   0.46115   0.51175   0.00000  Uiso   1.00
Cu887  Cu    0.45311   0.49999   0.75000   0.00000  Uiso   1.00
Cu888  Cu    0.54689   0.50001   0.75000   0.00000  Uiso   1.00
H889   H     0.61802   0.50559   0.58335   0.00000  Uiso   1.00
H890   H     0.57541   0.37209   0.70935   0.00000  Uiso   1.00
H891   H     0.42418   0.62754   0.79389   0.00000  Uiso   1.00
H892   H     0.36164   0.54469   0.80989   0.00000  Uiso   1.00
H893   H     0.39273   0.45519   0.68972   0.00000  Uiso   1.00
H894   H     0.63919   0.45517   0.68981   0.00000  Uiso   1.00
H895   H     0.62134   0.47381   0.91061   0.00000  Uiso   1.00
H896   H     0.64113   0.49769   0.98848   0.00000  Uiso   1.00
H897   H     0.46721   0.49263   0.58917   0.00000  Uiso   1.00
H898   H     0.38432   0.47838   0.91260   0.00000  Uiso   1.00
H899   H     0.36218   0.45381   0.50287   0.00000  Uiso   1.00
H900   H     0.56198   0.46144   0.86536   0.00000  Uiso   1.00
N901   N     0.38265   0.49999   0.74999   0.00000  Uiso   1.00
N902   N     0.61735   0.50002   0.75000   0.00000  Uiso   1.00
O903   O     0.46042   0.56011   0.75001   0.00000  Uiso   1.00
O904   O     0.53961   0.56012   0.75001   0.00000  Uiso   1.00
O905   O     0.44108   0.49998   0.82549   0.00000  Uiso   1.00
O906   O     0.52027   0.49999   0.82549   0.00000  Uiso   1.00
O907   O     0.46039   0.43988   0.75000   0.00000  Uiso   1.00
O908   O     0.53958   0.43989   0.75000   0.00000  Uiso   1.00
O909   O     0.47973   0.50001   0.67451   0.00000  Uiso   1.00
O910   O     0.55892   0.50002   0.67451   0.00000  Uiso   1.00
O911   O     0.41369   0.37223   0.80793   0.00000  Uiso   1.00
H912   H     0.42214   0.39785   0.82373   0.00000  Uiso   1.00
O913   O     0.59939   0.55063   0.81693   0.00000  Uiso   1.00
H914   H     0.61608   0.56645   0.83867   0.00000  Uiso   1.00
O915   O     0.41850   0.44395   0.56074   0.00000  Uiso   1.00
H916   H     0.44637   0.42847   0.56646   0.00000  Uiso   1.00
O917   O     0.58661   0.62597   0.70192   0.00000  Uiso   1.00
C918   C     0.58934   0.61884   0.64907   0.00000  Uiso   1.00
H919   H     0.59127   0.64858   0.62795   0.00000  Uiso   1.00
H920   H     0.55737   0.60072   0.64516   0.00000  Uiso   1.00
C921   C     0.63526   0.59420   0.62357   0.00000  Uiso   1.00
H922   H     0.63438   0.56440   0.64406   0.00000  Uiso   1.00
H923   H     0.63760   0.58792   0.58207   0.00000  Uiso   1.00
H924   H     0.33474   0.61185   0.62541   0.00000  Uiso   1.00
C925   C     0.83350   0.57924   0.74964   0.00000  Uiso   1.00
C926   C     0.81634   0.47232   0.98677   0.00000  Uiso   1.00
C927   C     0.83118   0.47516   0.93162   0.00000  Uiso   1.00
C928   C     0.85167   0.48070   0.51375   0.00000  Uiso   1.00
C929   C     0.90175   0.48324   0.98543   0.00000  Uiso   1.00
C930   C     0.91630   0.47532   0.93216   0.00000  Uiso   1.00
C931   C     0.88153   0.47043   0.90572   0.00000  Uiso   1.00
C932   C     0.83849   0.49001   0.56721   0.00000  Uiso   1.00
C933   C     0.92334   0.49920   0.56437   0.00000  Uiso   1.00
C934   C     0.79509   0.48178   0.90495   0.00000  Uiso   1.00
C935   C     0.87650   0.64588   0.72575   0.00000  Uiso   1.00
C936   C     0.80800   0.49464   0.84946   0.00000  Uiso   1.00
C937   C     0.87565   0.35527   0.72820   0.00000  Uiso   1.00
C938   C     0.83244   0.37614   0.75347   0.00000  Uiso   1.00
C939   C     0.78958   0.35389   0.77846   0.00000  Uiso   1.00
C940   C     0.79035   0.64459   0.77476   0.00000  Uiso   1.00
C941   C     0.83358   0.62384   0.74959   0.00000  Uiso   1.00
C942   C     0.96616   0.52519   0.78352   0.00000  Uiso   1.00
C943   C     0.68278   0.52489   0.78340   0.00000  Uiso   1.00
C944   C     0.70031   0.47515   0.71655   0.00000  Uiso   1.00
C945   C     0.98408   0.47513   0.71659   0.00000  Uiso   1.00
C946   C     0.83285   0.42077   0.75160   0.00000  Uiso   1.00
C947   C     0.85922   0.50011   0.64994   0.00000  Uiso   1.00
C948   C     0.93680   0.49355   0.51065   0.00000  Uiso   1.00
C949   C     0.87407   0.49700   0.59300   0.00000  Uiso   1.00
C950   C     0.74584   0.47563   0.93216   0.00000  Uiso   1.00
C951   C     0.73263   0.46315   0.98402   0.00000  Uiso   1.00
C952   C     0.76700   0.46115   0.51175   0.00000  Uiso   1.00
Cu953  Cu    0.78645   0.49999   0.75000   0.00000  Uiso   1.00
Cu954  Cu    0.88022   0.50001   0.75000   0.00000  Uiso   1.00
H955   H     0.95135   0.50559   0.58335   0.00000  Uiso   1.00
H956   H     0.90874   0.37209   0.70935   0.00000  Uiso   1.00
H957   H     0.75751   0.62754   0.79389   0.00000  Uiso   1.00
H958   H     0.69497   0.54469   0.80989   0.00000  Uiso   1.00
H959   H     0.72607   0.45519   0.68972   0.00000  Uiso   1.00
H960   H     0.97253   0.45517   0.68981   0.00000  Uiso   1.00
H961   H     0.95467   0.47381   0.91061   0.00000  Uiso   1.00
H962   H     0.97447   0.49769   0.98848   0.00000  Uiso   1.00
H963   H     0.80054   0.49263   0.58917   0.00000  Uiso   1.00
H964   H     0.71765   0.47838   0.91260   0.00000  Uiso   1.00
H965   H     0.69551   0.45381   0.50287   0.00000  Uiso   1.00
H966   H     0.89531   0.46144   0.86536   0.00000  Uiso   1.00
N967   N     0.71598   0.49999   0.74999   0.00000  Uiso   1.00
N968   N     0.95069   0.50002   0.75000   0.00000  Uiso   1.00
O969   O     0.79375   0.56011   0.75001   0.00000  Uiso   1.00
O970   O     0.87294   0.56012   0.75001   0.00000  Uiso   1.00
O971   O     0.77441   0.49998   0.82549   0.00000  Uiso   1.00
O972   O     0.85360   0.49999   0.82549   0.00000  Uiso   1.00
O973   O     0.79373   0.43988   0.75000   0.00000  Uiso   1.00
O974   O     0.87292   0.43989   0.75000   0.00000  Uiso   1.00
O975   O     0.81306   0.50001   0.67451   0.00000  Uiso   1.00
O976   O     0.89225   0.50002   0.67451   0.00000  Uiso   1.00
O977   O     0.74702   0.37223   0.80793   0.00000  Uiso   1.00
H978   H     0.75548   0.39785   0.82373   0.00000  Uiso   1.00
O979   O     0.93272   0.55063   0.81693   0.00000  Uiso   1.00
H980   H     0.94942   0.56645   0.83867   0.00000  Uiso   1.00
O981   O     0.75183   0.44395   0.56074   0.00000  Uiso   1.00
H982   H     0.77971   0.42847   0.56646   0.00000  Uiso   1.00
O983   O     0.91994   0.62597   0.70192   0.00000  Uiso   1.00
C984   C     0.92268   0.61884   0.64907   0.00000  Uiso   1.00
H985   H     0.92460   0.64858   0.62795   0.00000  Uiso   1.00
H986   H     0.89070   0.60072   0.64516   0.00000  Uiso   1.00
C987   C     0.96860   0.59420   0.62357   0.00000  Uiso   1.00
H988   H     0.96771   0.56440   0.64406   0.00000  Uiso   1.00
H989   H     0.97094   0.58792   0.58207   0.00000  Uiso   1.00
H990   H     0.66807   0.61185   0.62541   0.00000  Uiso   1.00
C991   C     0.16684   0.91257   0.74964   0.00000  Uiso   1.00
C992   C     0.14967   0.80565   0.98677   0.00000  Uiso   1.00
C993   C     0.16452   0.80849   0.93162   0.00000  Uiso   1.00
C994   C     0.18501   0.81403   0.51375   0.00000  Uiso   1.00
C995   C     0.23508   0.81657   0.98543   0.00000  Uiso   1.00
C996   C     0.24964   0.80866   0.93216   0.00000  Uiso   1.00
C997   C     0.21487   0.80377   0.90572   0.00000  Uiso   1.00
C998   C     0.17183   0.82334   0.56721   0.00000  Uiso   1.00
C999   C     0.25667   0.83253   0.56437   0.00000  Uiso   1.00
C1000  C     0.12842   0.81512   0.90495   0.00000  Uiso   1.00
C1001  C     0.20983   0.97922   0.72575   0.00000  Uiso   1.00
C1002  C     0.14134   0.82797   0.84946   0.00000  Uiso   1.00
C1003  C     0.20899   0.68860   0.72820   0.00000  Uiso   1.00
C1004  C     0.16577   0.70947   0.75347   0.00000  Uiso   1.00
C1005  C     0.12291   0.68723   0.77846   0.00000  Uiso   1.00
C1006  C     0.12368   0.97793   0.77476   0.00000  Uiso   1.00
C1007  C     0.16691   0.95717   0.74959   0.00000  Uiso   1.00
C1008  C     0.29949   0.85852   0.78352   0.00000  Uiso   1.00
C1009  C     0.01611   0.85823   0.78340   0.00000  Uiso   1.00
C1010  C     0.03364   0.80849   0.71655   0.00000  Uiso   1.00
C1011  C     0.31741   0.80847   0.71659   0.00000  Uiso   1.00
C1012  C     0.16618   0.75410   0.75160   0.00000  Uiso   1.00
C1013  C     0.19255   0.83345   0.64994   0.00000  Uiso   1.00
C1014  C     0.27013   0.82689   0.51065   0.00000  Uiso   1.00
C1015  C     0.20740   0.83033   0.59300   0.00000  Uiso   1.00
C1016  C     0.07917   0.80896   0.93216   0.00000  Uiso   1.00
C1017  C     0.06596   0.79649   0.98402   0.00000  Uiso   1.00
C1018  C     0.10033   0.79449   0.51175   0.00000  Uiso   1.00
Cu1019 Cu    0.11978   0.83333   0.75000   0.00000  Uiso   1.00
Cu1020 Cu    0.21355   0.83334   0.75000   0.00000  Uiso   1.00
H1021  H     0.28468   0.83892   0.58335   0.00000  Uiso   1.00
H1022  H     0.24207   0.70542   0.70935   0.00000  Uiso   1.00
H1023  H     0.09084   0.96088   0.79389   0.00000  Uiso   1.00
H1024  H     0.02831   0.87802   0.80989   0.00000  Uiso   1.00
H1025  H     0.05940   0.78853   0.68972   0.00000  Uiso   1.00
H1026  H     0.30586   0.78850   0.68981   0.00000  Uiso   1.00
H1027  H     0.28801   0.80714   0.91061   0.00000  Uiso   1.00
H1028  H     0.30780   0.83102   0.98848   0.00000  Uiso   1.00
H1029  H     0.13388   0.82597   0.58917   0.00000  Uiso   1.00
H1030  H     0.05099   0.81171   0.91260   0.00000  Uiso   1.00
H1031  H     0.02884   0.78714   0.50287   0.00000  Uiso   1.00
H1032  H     0.22864   0.79477   0.86536   0.00000  Uiso   1.00
N1033  N     0.04931   0.83332   0.74999   0.00000  Uiso   1.00
N1034  N     0.28402   0.83335   0.75000   0.00000  Uiso   1.00
O1035  O     0.12708   0.89345   0.75001   0.00000  Uiso   1.00
O1036  O     0.20627   0.89346   0.75001   0.00000  Uiso   1.00
O1037  O     0.10775   0.83332   0.82549   0.00000  Uiso   1.00
O1038  O     0.18694   0.83333   0.82549   0.00000  Uiso   1.00
O1039  O     0.12706   0.77321   0.75000   0.00000  Uiso   1.00
O1040  O     0.20625   0.77322   0.75000   0.00000  Uiso   1.00
O1041  O     0.14640   0.83334   0.67451   0.00000  Uiso   1.00
O1042  O     0.22559   0.83335   0.67451   0.00000  Uiso   1.00
O1043  O     0.08035   0.70557   0.80793   0.00000  Uiso   1.00
H1044  H     0.08881   0.73118   0.82373   0.00000  Uiso   1.00
O1045  O     0.26606   0.88397   0.81693   0.00000  Uiso   1.00
H1046  H     0.28275   0.89978   0.83867   0.00000  Uiso   1.00
O1047  O     0.08517   0.77729   0.56074   0.00000  Uiso   1.00
H1048  H     0.11304   0.76180   0.56646   0.00000  Uiso   1.00
O1049  O     0.25328   0.95930   0.70192   0.00000  Uiso   1.00
C1050  C     0.25601   0.95217   0.64907   0.00000  Uiso   1.00
H1051  H     0.25793   0.98191   0.62795   0.00000  Uiso   1.00
H1052  H     0.22404   0.93406   0.64516   0.00000  Uiso   1.00
C1053  C     0.30193   0.92753   0.62357   0.00000  Uiso   1.00
H1054  H     0.30104   0.89773   0.64406   0.00000  Uiso   1.00
H1055  H     0.30427   0.92125   0.58207   0.00000  Uiso   1.00
H1056  H     0.00140   0.94518   0.62541   0.00000  Uiso   1.00
C1057  C     0.50017   0.91257   0.74964   0.00000  Uiso   1.00
C1058  C     0.48301   0.80565   0.98677   0.00000  Uiso   1.00
C1059  C     0.49785   0.80849   0.93162   0.00000  Uiso   1.00
C1060  C     0.51834   0.81403   0.51375   0.00000  Uiso   1.00
C1061  C     0.56842   0.81657   0.98543   0.00000  Uiso   1.00
C1062  C     0.58297   0.80866   0.93216   0.00000  Uiso   1.00
C1063  C     0.54820   0.80377   0.90572   0.00000  Uiso   1.00
C1064  C     0.50516   0.82334   0.56721   0.00000  Uiso   1.00
C1065  C     0.59000   0.83253   0.56437   0.00000  Uiso   1.00
C1066  C     0.46175   0.81512   0.90495   0.00000  Uiso   1.00
C1067  C     0.54316   0.97922   0.72575   0.00000  Uiso   1.00
C1068  C     0.47467   0.82797   0.84946   0.00000  Uiso   1.00
C1069  C     0.54232   0.68860   0.72820   0.00000  Uiso   1.00
C1070  C     0.49910   0.70947   0.75347   0.00000  Uiso   1.00
C1071  C     0.45625   0.68723   0.77846   0.00000  Uiso   1.00
C1072  C     0.45702   0.97793   0.77476   0.00000  Uiso   1.00
C1073  C     0.50024   0.95717   0.74959   0.00000  Uiso   1.00
C1074  C     0.63283   0.85852   0.78352   0.00000  Uiso   1.00
C1075  C     0.34944   0.85823   0.78340   0.00000  Uiso   1.00
C1076  C     0.36697   0.80849   0.71655   0.00000  Uiso   1.00
C1077  C     0.65075   0.80847   0.71659   0.00000  Uiso   1.00
C1078  C     0.49951   0.75410   0.75160   0.00000  Uiso   1.00
C1079  C     0.52589   0.83345   0.64994   0.00000  Uiso   1.00
C1080  C     0.60346   0.82689   0.51065   0.00000  Uiso   1.00
C1081  C     0.54074   0.83033   0.59300   0.00000  Uiso   1.00
C1082  C     0.41251   0.80896   0.93216   0.00000  Uiso   1.00
C1083  C     0.39930   0.79649   0.98402   0.00000  Uiso   1.00
C1084  C     0.43366   0.79449   0.51175   0.00000  Uiso   1.00
Cu1085 Cu    0.45311   0.83333   0.75000   0.00000  Uiso   1.00
Cu1086 Cu    0.54689   0.83334   0.75000   0.00000  Uiso   1.00
H1087  H     0.61802   0.83892   0.58335   0.00000  Uiso   1.00
H1088  H     0.57541   0.70542   0.70935   0.00000  Uiso   1.00
H1089  H     0.42418   0.96088   0.79389   0.00000  Uiso   1.00
H1090  H     0.36164   0.87802   0.80989   0.00000  Uiso   1.00
H1091  H     0.39273   0.78853   0.68972   0.00000  Uiso   1.00
H1092  H     0.63919   0.78850   0.68981   0.00000  Uiso   1.00
H1093  H     0.62134   0.80714   0.91061   0.00000  Uiso   1.00
H1094  H     0.64113   0.83102   0.98848   0.00000  Uiso   1.00
H1095  H     0.46721   0.82597   0.58917   0.00000  Uiso   1.00
H1096  H     0.38432   0.81171   0.91260   0.00000  Uiso   1.00
H1097  H     0.36218   0.78714   0.50287   0.00000  Uiso   1.00
H1098  H     0.56198   0.79477   0.86536   0.00000  Uiso   1.00
N1099  N     0.38265   0.83332   0.74999   0.00000  Uiso   1.00
N1100  N     0.61735   0.83335   0.75000   0.00000  Uiso   1.00
O1101  O     0.46042   0.89345   0.75001   0.00000  Uiso   1.00
O1102  O     0.53961   0.89346   0.75001   0.00000  Uiso   1.00
O1103  O     0.44108   0.83332   0.82549   0.00000  Uiso   1.00
O1104  O     0.52027   0.83333   0.82549   0.00000  Uiso   1.00
O1105  O     0.46039   0.77321   0.75000   0.00000  Uiso   1.00
O1106  O     0.53958   0.77322   0.75000   0.00000  Uiso   1.00
O1107  O     0.47973   0.83334   0.67451   0.00000  Uiso   1.00
O1108  O     0.55892   0.83335   0.67451   0.00000  Uiso   1.00
O1109  O     0.41369   0.70557   0.80793   0.00000  Uiso   1.00
H1110  H     0.42214   0.73118   0.82373   0.00000  Uiso   1.00
O1111  O     0.59939   0.88397   0.81693   0.00000  Uiso   1.00
H1112  H     0.61608   0.89978   0.83867   0.00000  Uiso   1.00
O1113  O     0.41850   0.77729   0.56074   0.00000  Uiso   1.00
H1114  H     0.44637   0.76180   0.56646   0.00000  Uiso   1.00
O1115  O     0.58661   0.95930   0.70192   0.00000  Uiso   1.00
C1116  C     0.58934   0.95217   0.64907   0.00000  Uiso   1.00
H1117  H     0.59127   0.98191   0.62795   0.00000  Uiso   1.00
H1118  H     0.55737   0.93406   0.64516   0.00000  Uiso   1.00
C1119  C     0.63526   0.92753   0.62357   0.00000  Uiso   1.00
H1120  H     0.63438   0.89773   0.64406   0.00000  Uiso   1.00
H1121  H     0.63760   0.92125   0.58207   0.00000  Uiso   1.00
H1122  H     0.33474   0.94518   0.62541   0.00000  Uiso   1.00
C1123  C     0.83350   0.91257   0.74964   0.00000  Uiso   1.00
C1124  C     0.81634   0.80565   0.98677   0.00000  Uiso   1.00
C1125  C     0.83118   0.80849   0.93162   0.00000  Uiso   1.00
C1126  C     0.85167   0.81403   0.51375   0.00000  Uiso   1.00
C1127  C     0.90175   0.81657   0.98543   0.00000  Uiso   1.00
C1128  C     0.91630   0.80866   0.93216   0.00000  Uiso   1.00
C1129  C     0.88153   0.80377   0.90572   0.00000  Uiso   1.00
C1130  C     0.83849   0.82334   0.56721   0.00000  Uiso   1.00
C1131  C     0.92334   0.83253   0.56437   0.00000  Uiso   1.00
C1132  C     0.79509   0.81512   0.90495   0.00000  Uiso   1.00
C1133  C     0.87650   0.97922   0.72575   0.00000  Uiso   1.00
C1134  C     0.80800   0.82797   0.84946   0.00000  Uiso   1.00
C1135  C     0.87565   0.68860   0.72820   0.00000  Uiso   1.00
C1136  C     0.83244   0.70947   0.75347   0.00000  Uiso   1.00
C1137  C     0.78958   0.68723   0.77846   0.00000  Uiso   1.00
C1138  C     0.79035   0.97793   0.77476   0.00000  Uiso   1.00
C1139  C     0.83358   0.95717   0.74959   0.00000  Uiso   1.00
C1140  C     0.96616   0.85852   0.78352   0.00000  Uiso   1.00
C1141  C     0.68278   0.85823   0.78340   0.00000  Uiso   1.00
C1142  C     0.70031   0.80849   0.71655   0.00000  Uiso   1.00
C1143  C     0.98408   0.80847   0.71659   0.00000  Uiso   1.00
C1144  C     0.83285   0.75410   0.75160   0.00000  Uiso   1.00
C1145  C     0.85922   0.83345   0.64994   0.00000  Uiso   1.00
C1146  C     0.93680   0.82689   0.51065   0.00000  Uiso   1.00
C1147  C     0.87407   0.83033   0.59300   0.00000  Uiso   1.00
C1148  C     0.74584   0.80896   0.93216   0.00000  Uiso   1.00
C1149  C     0.73263   0.79649   0.98402   0.00000  Uiso   1.00
C1150  C     0.76700   0.79449   0.51175   0.00000  Uiso   1.00
Cu1151 Cu    0.78645   0.83333   0.75000   0.00000  Uiso   1.00
Cu1152 Cu    0.88022   0.83334   0.75000   0.00000  Uiso   1.00
H1153  H     0.95135   0.83892   0.58335   0.00000  Uiso   1.00
H1154  H     0.90874   0.70542   0.70935   0.00000  Uiso   1.00
H1155  H     0.75751   0.96088   0.79389   0.00000  Uiso   1.00
H1156  H     0.69497   0.87802   0.80989   0.00000  Uiso   1.00
H1157  H     0.72607   0.78853   0.68972   0.00000  Uiso   1.00
H1158  H     0.97253   0.78850   0.68981   0.00000  Uiso   1.00
H1159  H     0.95467   0.80714   0.91061   0.00000  Uiso   1.00
H1160  H     0.97447   0.83102   0.98848   0.00000  Uiso   1.00
H1161  H     0.80054   0.82597   0.58917   0.00000  Uiso   1.00
H1162  H     0.71765   0.81171   0.91260   0.00000  Uiso   1.00
H1163  H     0.69551   0.78714   0.50287   0.00000  Uiso   1.00
H1164  H     0.89531   0.79477   0.86536   0.00000  Uiso   1.00
N1165  N     0.71598   0.83332   0.74999   0.00000  Uiso   1.00
N1166  N     0.95069   0.83335   0.75000   0.00000  Uiso   1.00
O1167  O     0.79375   0.89345   0.75001   0.00000  Uiso   1.00
O1168  O     0.87294   0.89346   0.75001   0.00000  Uiso   1.00
O1169  O     0.77441   0.83332   0.82549   0.00000  Uiso   1.00
O1170  O     0.85360   0.83333   0.82549   0.00000  Uiso   1.00
O1171  O     0.79373   0.77321   0.75000   0.00000  Uiso   1.00
O1172  O     0.87292   0.77322   0.75000   0.00000  Uiso   1.00
O1173  O     0.81306   0.83334   0.67451   0.00000  Uiso   1.00
O1174  O     0.89225   0.83335   0.67451   0.00000  Uiso   1.00
O1175  O     0.74702   0.70557   0.80793   0.00000  Uiso   1.00
H1176  H     0.75548   0.73118   0.82373   0.00000  Uiso   1.00
O1177  O     0.93272   0.88397   0.81693   0.00000  Uiso   1.00
H1178  H     0.94942   0.89978   0.83867   0.00000  Uiso   1.00
O1179  O     0.75183   0.77729   0.56074   0.00000  Uiso   1.00
H1180  H     0.77971   0.76180   0.56646   0.00000  Uiso   1.00
O1181  O     0.91994   0.95930   0.70192   0.00000  Uiso   1.00
C1182  C     0.92268   0.95217   0.64907   0.00000  Uiso   1.00
H1183  H     0.92460   0.98191   0.62795   0.00000  Uiso   1.00
H1184  H     0.89070   0.93406   0.64516   0.00000  Uiso   1.00
C1185  C     0.96860   0.92753   0.62357   0.00000  Uiso   1.00
H1186  H     0.96771   0.89773   0.64406   0.00000  Uiso   1.00
H1187  H     0.97094   0.92125   0.58207   0.00000  Uiso   1.00
H1188  H     0.66807   0.94518   0.62541   0.00000  Uiso   1.00
loop_
_geom_bond_atom_site_label_1
_geom_bond_atom_site_label_2
_geom_bond_distance
_geom_bond_site_symmetry_2
_ccdc_geom_bond_type
C1     O45     1.291   .     A
C1     O46     1.290   .     A
C1     C17     1.447   .     S
C2     C3      1.417   .     A
C2     C598    1.424   .     S
C2     C622    1.425   .     S
C3     C10     1.430   .     A
C3     C7      1.416   .     A
C4     C8      1.402   .     A
C4     C596    1.424   1_554 S
C4     C599    1.418   1_554 S
C5     C6      1.388   .     A
C5     C598    1.418   .     S
C5     C618    1.397   .     S
C6     C7      1.383   .     A
C6     H37     1.085   .     S
C7     H42     1.077   .     S
C8     H39     1.079   .     S
C8     C25     1.400   .     A
C9     C24     1.389   .     A
C9     C25     1.399   .     A
C9     H31     1.083   .     S
C10    C26     1.402   .     A
C10    C12     1.486   .     S
C11    O59     1.383   .     S
C11    C17     1.406   .     A
C11    C211    1.387   .     S
C12    O48     1.290   .     A
C12    O47     1.311   .     A
C13    H32     1.084   .     S
C13    C14     1.401   .     A
C13    C407    1.387   1_545 S
C14    C22     1.449   .     S
C14    C15     1.415   .     A
C15    O53     1.380   .     S
C15    C412    1.385   1_545 S
C16    H33     1.084   .     S
C16    C17     1.398   .     A
C16    C213    1.385   .     S
C18    N44     1.372   .     A
C18    O55     1.378   .     S
C18    C85     1.427   .     S
C19    N43     1.364   .     A
C19    H34     1.082   .     S
C19    C150    1.427   1_455 S
C20    N43     1.367   .     A
C20    H35     1.082   .     S
C20    C153    1.416   1_455 S
C21    N44     1.367   .     A
C21    H36     1.082   .     S
C21    C86     1.416   .     S
C22    O50     1.291   .     A
C22    O49     1.291   .     A
C23    O52     1.296   .     A
C23    C25     1.463   .     S
C23    O51     1.295   .     A
C24    C599    1.397   1_554 S
C24    H632    1.079   1_554 S
C26    C27     1.392   .     A
C26    H40     1.083   .     S
C27    C622    1.392   .     S
C27    H635    1.080   .     S
C28    O57     1.379   .     S
C28    C621    1.392   1_554 S
C28    C596    1.425   1_554 S
Cu29   O49     1.961   .     S
Cu29   N43     2.015   .     S
Cu29   O47     1.950   .     S
Cu29   Cu30    2.681   .     S
Cu29   O51     1.944   .     S
Cu29   O45     1.961   .     S
Cu30   N44     2.014   .     S
Cu30   O48     1.944   .     S
Cu30   O50     1.961   .     S
Cu30   O52     1.950   .     S
Cu30   O46     1.961   .     S
H38    C618    1.079   .     S
H41    C621    1.080   1_554 S
O53    H54     0.990   .     S
O55    H56     0.992   .     S
O57    H58     0.991   .     S
O59    C60     1.412   .     S
C60    C63     1.521   .     S
C60    H62     1.115   .     S
C60    H61     1.114   .     S
C63    H65     1.111   .     S
C63    H64     1.111   .     S
C63    H132    1.111   .     S
H66    C195    1.111   1_455 S
C67    O111    1.291   .     A
C67    O112    1.290   .     A
C67    C83     1.447   .     S
C68    C69     1.417   .     A
C68    C664    1.424   .     S
C68    C688    1.425   .     S
C69    C76     1.430   .     A
C69    C73     1.416   .     A
C70    C74     1.402   .     A
C70    C662    1.424   1_554 S
C70    C665    1.418   1_554 S
C71    C72     1.388   .     A
C71    C664    1.418   .     S
C71    C684    1.397   .     S
C72    C73     1.383   .     A
C72    H103    1.085   .     S
C73    H108    1.077   .     S
C74    H105    1.079   .     S
C74    C91     1.400   .     A
C75    C90     1.389   .     A
C75    C91     1.399   .     A
C75    H97     1.083   .     S
C76    C92     1.402   .     A
C76    C78     1.486   .     S
C77    O125    1.383   .     S
C77    C83     1.406   .     A
C77    C277    1.387   .     S
C78    O114    1.290   .     A
C78    O113    1.311   .     A
C79    H98     1.084   .     S
C79    C80     1.401   .     A
C79    C473    1.387   1_545 S
C80    C88     1.449   .     S
C80    C81     1.415   .     A
C81    O119    1.380   .     S
C81    C478    1.385   1_545 S
C82    H99     1.084   .     S
C82    C83     1.398   .     A
C82    C279    1.385   .     S
C84    N110    1.372   .     A
C84    O121    1.378   .     S
C84    C151    1.427   .     S
C85    N109    1.364   .     A
C85    H100    1.082   .     S
C86    N109    1.367   .     A
C86    H101    1.082   .     S
C87    N110    1.367   .     A
C87    H102    1.082   .     S
C87    C152    1.416   .     S
C88    O116    1.291   .     A
C88    O115    1.291   .     A
C89    O118    1.296   .     A
C89    C91     1.463   .     S
C89    O117    1.295   .     A
C90    C665    1.397   1_554 S
C90    H698    1.079   1_554 S
C92    C93     1.392   .     A
C92    H106    1.083   .     S
C93    C688    1.392   .     S
C93    H701    1.080   .     S
C94    O123    1.379   .     S
C94    C687    1.392   1_554 S
C94    C662    1.425   1_554 S
Cu95   O115    1.961   .     S
Cu95   N109    2.015   .     S
Cu95   O113    1.950   .     S
Cu95   Cu96    2.681   .     S
Cu95   O117    1.944   .     S
Cu95   O111    1.961   .     S
Cu96   N110    2.014   .     S
Cu96   O114    1.944   .     S
Cu96   O116    1.961   .     S
Cu96   O118    1.950   .     S
Cu96   O112    1.961   .     S
H104   C684    1.079   .     S
H107   C687    1.080   1_554 S
O119   H120    0.990   .     S
O121   H122    0.992   .     S
O123   H124    0.991   .     S
O125   C126    1.412   .     S
C126   C129    1.521   .     S
C126   H128    1.115   .     S
C126   H127    1.114   .     S
C129   H131    1.111   .     S
C129   H130    1.111   .     S
C129   H198    1.111   .     S
C133   O177    1.291   .     A
C133   O178    1.290   .     A
C133   C149    1.447   .     S
C134   C135    1.417   .     A
C134   C730    1.424   .     S
C134   C754    1.425   .     S
C135   C142    1.430   .     A
C135   C139    1.416   .     A
C136   C140    1.402   .     A
C136   C728    1.424   1_554 S
C136   C731    1.418   1_554 S
C137   C138    1.388   .     A
C137   C730    1.418   .     S
C137   C750    1.397   .     S
C138   C139    1.383   .     A
C138   H169    1.085   .     S
C139   H174    1.077   .     S
C140   H171    1.079   .     S
C140   C157    1.400   .     A
C141   C156    1.389   .     A
C141   C157    1.399   .     A
C141   H163    1.083   .     S
C142   C158    1.402   .     A
C142   C144    1.486   .     S
C143   O191    1.383   .     S
C143   C149    1.406   .     A
C143   C343    1.387   .     S
C144   O180    1.290   .     A
C144   O179    1.311   .     A
C145   H164    1.084   .     S
C145   C146    1.401   .     A
C145   C539    1.387   1_545 S
C146   C154    1.449   .     S
C146   C147    1.415   .     A
C147   O185    1.380   .     S
C147   C544    1.385   1_545 S
C148   H165    1.084   .     S
C148   C149    1.398   .     A
C148   C345    1.385   .     S
C150   N176    1.372   .     A
C150   O187    1.378   .     S
C150   C19     1.427   1_655 S
C151   N175    1.364   .     A
C151   H166    1.082   .     S
C152   N175    1.367   .     A
C152   H167    1.082   .     S
C153   N176    1.367   .     A
C153   H168    1.082   .     S
C153   C20     1.416   1_655 S
C154   O182    1.291   .     A
C154   O181    1.291   .     A
C155   O184    1.296   .     A
C155   C157    1.463   .     S
C155   O183    1.295   .     A
C156   C731    1.397   1_554 S
C156   H764    1.079   1_554 S
C158   C159    1.392   .     A
C158   H172    1.083   .     S
C159   C754    1.392   .     S
C159   H767    1.080   .     S
C160   O189    1.379   .     S
C160   C753    1.392   1_554 S
C160   C728    1.425   1_554 S
Cu161  O181    1.961   .     S
Cu161  N175    2.015   .     S
Cu161  O179    1.950   .     S
Cu161  Cu162   2.681   .     S
Cu161  O183    1.944   .     S
Cu161  O177    1.961   .     S
Cu162  N176    2.014   .     S
Cu162  O180    1.944   .     S
Cu162  O182    1.961   .     S
Cu162  O184    1.950   .     S
Cu162  O178    1.961   .     S
H170   C750    1.079   .     S
H173   C753    1.080   1_554 S
O185   H186    0.990   .     S
O187   H188    0.992   .     S
O189   H190    0.991   .     S
O191   C192    1.412   .     S
C192   C195    1.521   .     S
C192   H194    1.115   .     S
C192   H193    1.114   .     S
C195   H197    1.111   .     S
C195   H196    1.111   .     S
C195   H66     1.111   1_655 S
C199   O243    1.291   .     A
C199   O244    1.290   .     A
C199   C215    1.447   .     S
C200   C201    1.417   .     A
C200   C796    1.424   .     S
C200   C820    1.425   .     S
C201   C208    1.430   .     A
C201   C205    1.416   .     A
C202   C206    1.402   .     A
C202   C794    1.424   1_554 S
C202   C797    1.418   1_554 S
C203   C204    1.388   .     A
C203   C796    1.418   .     S
C203   C816    1.397   .     S
C204   C205    1.383   .     A
C204   H235    1.085   .     S
C205   H240    1.077   .     S
C206   H237    1.079   .     S
C206   C223    1.400   .     A
C207   C222    1.389   .     A
C207   C223    1.399   .     A
C207   H229    1.083   .     S
C208   C224    1.402   .     A
C208   C210    1.486   .     S
C209   O257    1.383   .     S
C209   C215    1.406   .     A
C209   C409    1.387   .     S
C210   O246    1.290   .     A
C210   O245    1.311   .     A
C211   H230    1.084   .     S
C211   C212    1.401   .     A
C212   C220    1.449   .     S
C212   C213    1.415   .     A
C213   O251    1.380   .     S
C214   H231    1.084   .     S
C214   C215    1.398   .     A
C214   C411    1.385   .     S
C216   N242    1.372   .     A
C216   O253    1.378   .     S
C216   C283    1.427   .     S
C217   N241    1.364   .     A
C217   H232    1.082   .     S
C217   C348    1.427   1_455 S
C218   N241    1.367   .     A
C218   H233    1.082   .     S
C218   C351    1.416   1_455 S
C219   N242    1.367   .     A
C219   H234    1.082   .     S
C219   C284    1.416   .     S
C220   O248    1.291   .     A
C220   O247    1.291   .     A
C221   O250    1.296   .     A
C221   C223    1.463   .     S
C221   O249    1.295   .     A
C222   C797    1.397   1_554 S
C222   H830    1.079   1_554 S
C224   C225    1.392   .     A
C224   H238    1.083   .     S
C225   C820    1.392   .     S
C225   H833    1.080   .     S
C226   O255    1.379   .     S
C226   C819    1.392   1_554 S
C226   C794    1.425   1_554 S
Cu227  O247    1.961   .     S
Cu227  N241    2.015   .     S
Cu227  O245    1.950   .     S
Cu227  Cu228   2.681   .     S
Cu227  O249    1.944   .     S
Cu227  O243    1.961   .     S
Cu228  N242    2.014   .     S
Cu228  O246    1.944   .     S
Cu228  O248    1.961   .     S
Cu228  O250    1.950   .     S
Cu228  O244    1.961   .     S
H236   C816    1.079   .     S
H239   C819    1.080   1_554 S
O251   H252    0.990   .     S
O253   H254    0.992   .     S
O255   H256    0.991   .     S
O257   C258    1.412   .     S
C258   C261    1.521   .     S
C258   H260    1.115   .     S
C258   H259    1.114   .     S
C261   H263    1.111   .     S
C261   H262    1.111   .     S
C261   H330    1.111   .     S
H264   C393    1.111   1_455 S
C265   O309    1.291   .     A
C265   O310    1.290   .     A
C265   C281    1.447   .     S
C266   C267    1.417   .     A
C266   C862    1.424   .     S
C266   C886    1.425   .     S
C267   C274    1.430   .     A
C267   C271    1.416   .     A
C268   C272    1.402   .     A
C268   C860    1.424   1_554 S
C268   C863    1.418   1_554 S
C269   C270    1.388   .     A
C269   C862    1.418   .     S
C269   C882    1.397   .     S
C270   C271    1.383   .     A
C270   H301    1.085   .     S
C271   H306    1.077   .     S
C272   H303    1.079   .     S
C272   C289    1.400   .     A
C273   C288    1.389   .     A
C273   C289    1.399   .     A
C273   H295    1.083   .     S
C274   C290    1.402   .     A
C274   C276    1.486   .     S
C275   O323    1.383   .     S
C275   C281    1.406   .     A
C275   C475    1.387   .     S
C276   O312    1.290   .     A
C276   O311    1.311   .     A
C277   H296    1.084   .     S
C277   C278    1.401   .     A
C278   C286    1.449   .     S
C278   C279    1.415   .     A
C279   O317    1.380   .     S
C280   H297    1.084   .     S
C280   C281    1.398   .     A
C280   C477    1.385   .     S
C282   N308    1.372   .     A
C282   O319    1.378   .     S
C282   C349    1.427   .     S
C283   N307    1.364   .     A
C283   H298    1.082   .     S
C284   N307    1.367   .     A
C284   H299    1.082   .     S
C285   N308    1.367   .     A
C285   H300    1.082   .     S
C285   C350    1.416   .     S
C286   O314    1.291   .     A
C286   O313    1.291   .     A
C287   O316    1.296   .     A
C287   C289    1.463   .     S
C287   O315    1.295   .     A
C288   C863    1.397   1_554 S
C288   H896    1.079   1_554 S
C290   C291    1.392   .     A
C290   H304    1.083   .     S
C291   C886    1.392   .     S
C291   H899    1.080   .     S
C292   O321    1.379   .     S
C292   C885    1.392   1_554 S
C292   C860    1.425   1_554 S
Cu293  O313    1.961   .     S
Cu293  N307    2.015   .     S
Cu293  O311    1.950   .     S
Cu293  Cu294   2.681   .     S
Cu293  O315    1.944   .     S
Cu293  O309    1.961   .     S
Cu294  N308    2.014   .     S
Cu294  O312    1.944   .     S
Cu294  O314    1.961   .     S
Cu294  O316    1.950   .     S
Cu294  O310    1.961   .     S
H302   C882    1.079   .     S
H305   C885    1.080   1_554 S
O317   H318    0.990   .     S
O319   H320    0.992   .     S
O321   H322    0.991   .     S
O323   C324    1.412   .     S
C324   C327    1.521   .     S
C324   H326    1.115   .     S
C324   H325    1.114   .     S
C327   H329    1.111   .     S
C327   H328    1.111   .     S
C327   H396    1.111   .     S
C331   O375    1.291   .     A
C331   O376    1.290   .     A
C331   C347    1.447   .     S
C332   C333    1.417   .     A
C332   C928    1.424   .     S
C332   C952    1.425   .     S
C333   C340    1.430   .     A
C333   C337    1.416   .     A
C334   C338    1.402   .     A
C334   C926    1.424   1_554 S
C334   C929    1.418   1_554 S
C335   C336    1.388   .     A
C335   C928    1.418   .     S
C335   C948    1.397   .     S
C336   C337    1.383   .     A
C336   H367    1.085   .     S
C337   H372    1.077   .     S
C338   H369    1.079   .     S
C338   C355    1.400   .     A
C339   C354    1.389   .     A
C339   C355    1.399   .     A
C339   H361    1.083   .     S
C340   C356    1.402   .     A
C340   C342    1.486   .     S
C341   O389    1.383   .     S
C341   C347    1.406   .     A
C341   C541    1.387   .     S
C342   O378    1.290   .     A
C342   O377    1.311   .     A
C343   H362    1.084   .     S
C343   C344    1.401   .     A
C344   C352    1.449   .     S
C344   C345    1.415   .     A
C345   O383    1.380   .     S
C346   H363    1.084   .     S
C346   C347    1.398   .     A
C346   C543    1.385   .     S
C348   N374    1.372   .     A
C348   O385    1.378   .     S
C348   C217    1.427   1_655 S
C349   N373    1.364   .     A
C349   H364    1.082   .     S
C350   N373    1.367   .     A
C350   H365    1.082   .     S
C351   N374    1.367   .     A
C351   H366    1.082   .     S
C351   C218    1.416   1_655 S
C352   O380    1.291   .     A
C352   O379    1.291   .     A
C353   O382    1.296   .     A
C353   C355    1.463   .     S
C353   O381    1.295   .     A
C354   C929    1.397   1_554 S
C354   H962    1.079   1_554 S
C356   C357    1.392   .     A
C356   H370    1.083   .     S
C357   C952    1.392   .     S
C357   H965    1.080   .     S
C358   O387    1.379   .     S
C358   C951    1.392   1_554 S
C358   C926    1.425   1_554 S
Cu359  O379    1.961   .     S
Cu359  N373    2.015   .     S
Cu359  O377    1.950   .     S
Cu359  Cu360   2.681   .     S
Cu359  O381    1.944   .     S
Cu359  O375    1.961   .     S
Cu360  N374    2.014   .     S
Cu360  O378    1.944   .     S
Cu360  O380    1.961   .     S
Cu360  O382    1.950   .     S
Cu360  O376    1.961   .     S
H368   C948    1.079   .     S
H371   C951    1.080   1_554 S
O383   H384    0.990   .     S
O385   H386    0.992   .     S
O387   H388    0.991   .     S
O389   C390    1.412   .     S
C390   C393    1.521   .     S
C390   H392    1.115   .     S
C390   H391    1.114   .     S
C393   H395    1.111   .     S
C393   H394    1.111   .     S
C393   H264    1.111   1_655 S
C397   O441    1.291   .     A
C397   O442    1.290   .     A
C397   C413    1.447   .     S
C398   C399    1.417   .     A
C398   C994    1.424   .     S
C398   C1018   1.425   .     S
C399   C406    1.430   .     A
C399   C403    1.416   .     A
C400   C404    1.402   .     A
C400   C992    1.424   1_554 S
C400   C995    1.418   1_554 S
C401   C402    1.388   .     A
C401   C994    1.418   .     S
C401   C1014   1.397   .     S
C402   C403    1.383   .     A
C402   H433    1.085   .     S
C403   H438    1.077   .     S
C404   H435    1.079   .     S
C404   C421    1.400   .     A
C405   C420    1.389   .     A
C405   C421    1.399   .     A
C405   H427    1.083   .     S
C406   C422    1.402   .     A
C406   C408    1.486   .     S
C407   O455    1.383   .     S
C407   C413    1.406   .     A
C407   C13     1.387   1_565 S
C408   O444    1.290   .     A
C408   O443    1.311   .     A
C409   H428    1.084   .     S
C409   C410    1.401   .     A
C410   C418    1.449   .     S
C410   C411    1.415   .     A
C411   O449    1.380   .     S
C412   H429    1.084   .     S
C412   C413    1.398   .     A
C412   C15     1.385   1_565 S
C414   N440    1.372   .     A
C414   O451    1.378   .     S
C414   C481    1.427   .     S
C415   N439    1.364   .     A
C415   H430    1.082   .     S
C415   C546    1.427   1_455 S
C416   N439    1.367   .     A
C416   H431    1.082   .     S
C416   C549    1.416   1_455 S
C417   N440    1.367   .     A
C417   H432    1.082   .     S
C417   C482    1.416   .     S
C418   O446    1.291   .     A
C418   O445    1.291   .     A
C419   O448    1.296   .     A
C419   C421    1.463   .     S
C419   O447    1.295   .     A
C420   C995    1.397   1_554 S
C420   H1028   1.079   1_554 S
C422   C423    1.392   .     A
C422   H436    1.083   .     S
C423   C1018   1.392   .     S
C423   H1031   1.080   .     S
C424   O453    1.379   .     S
C424   C1017   1.392   1_554 S
C424   C992    1.425   1_554 S
Cu425  O445    1.961   .     S
Cu425  N439    2.015   .     S
Cu425  O443    1.950   .     S
Cu425  Cu426   2.681   .     S
Cu425  O447    1.944   .     S
Cu425  O441    1.961   .     S
Cu426  N440    2.014   .     S
Cu426  O444    1.944   .     S
Cu426  O446    1.961   .     S
Cu426  O448    1.950   .     S
Cu426  O442    1.961   .     S
H434   C1014   1.079   .     S
H437   C1017   1.080   1_554 S
O449   H450    0.990   .     S
O451   H452    0.992   .     S
O453   H454    0.991   .     S
O455   C456    1.412   .     S
C456   C459    1.521   .     S
C456   H458    1.115   .     S
C456   H457    1.114   .     S
C459   H461    1.111   .     S
C459   H460    1.111   .     S
C459   H528    1.111   .     S
H462   C591    1.111   1_455 S
C463   O507    1.291   .     A
C463   O508    1.290   .     A
C463   C479    1.447   .     S
C464   C465    1.417   .     A
C464   C1060   1.424   .     S
C464   C1084   1.425   .     S
C465   C472    1.430   .     A
C465   C469    1.416   .     A
C466   C470    1.402   .     A
C466   C1058   1.424   1_554 S
C466   C1061   1.418   1_554 S
C467   C468    1.388   .     A
C467   C1060   1.418   .     S
C467   C1080   1.397   .     S
C468   C469    1.383   .     A
C468   H499    1.085   .     S
C469   H504    1.077   .     S
C470   H501    1.079   .     S
C470   C487    1.400   .     A
C471   C486    1.389   .     A
C471   C487    1.399   .     A
C471   H493    1.083   .     S
C472   C488    1.402   .     A
C472   C474    1.486   .     S
C473   O521    1.383   .     S
C473   C479    1.406   .     A
C473   C79     1.387   1_565 S
C474   O510    1.290   .     A
C474   O509    1.311   .     A
C475   H494    1.084   .     S
C475   C476    1.401   .     A
C476   C484    1.449   .     S
C476   C477    1.415   .     A
C477   O515    1.380   .     S
C478   H495    1.084   .     S
C478   C479    1.398   .     A
C478   C81     1.385   1_565 S
C480   N506    1.372   .     A
C480   O517    1.378   .     S
C480   C547    1.427   .     S
C481   N505    1.364   .     A
C481   H496    1.082   .     S
C482   N505    1.367   .     A
C482   H497    1.082   .     S
C483   N506    1.367   .     A
C483   H498    1.082   .     S
C483   C548    1.416   .     S
C484   O512    1.291   .     A
C484   O511    1.291   .     A
C485   O514    1.296   .     A
C485   C487    1.463   .     S
C485   O513    1.295   .     A
C486   C1061   1.397   1_554 S
C486   H1094   1.079   1_554 S
C488   C489    1.392   .     A
C488   H502    1.083   .     S
C489   C1084   1.392   .     S
C489   H1097   1.080   .     S
C490   O519    1.379   .     S
C490   C1083   1.392   1_554 S
C490   C1058   1.425   1_554 S
Cu491  O511    1.961   .     S
Cu491  N505    2.015   .     S
Cu491  O509    1.950   .     S
Cu491  Cu492   2.681   .     S
Cu491  O513    1.944   .     S
Cu491  O507    1.961   .     S
Cu492  N506    2.014   .     S
Cu492  O510    1.944   .     S
Cu492  O512    1.961   .     S
Cu492  O514    1.950   .     S
Cu492  O508    1.961   .     S
H500   C1080   1.079   .     S
H503   C1083   1.080   1_554 S
O515   H516    0.990   .     S
O517   H518    0.992   .     S
O519   H520    0.991   .     S
O521   C522    1.412   .     S
C522   C525    1.521   .     S
C522   H524    1.115   .     S
C522   H523    1.114   .     S
C525   H527    1.111   .     S
C525   H526    1.111   .     S
C525   H594    1.111   .     S
C529   O573    1.291   .     A
C529   O574    1.290   .     A
C529   C545    1.447   .     S
C530   C531    1.417   .     A
C530   C1126   1.424   .     S
C530   C1150   1.425   .     S
C531   C538    1.430   .     A
C531   C535    1.416   .     A
C532   C536    1.402   .     A
C532   C1124   1.424   1_554 S
C532   C1127   1.418   1_554 S
C533   C534    1.388   .     A
C533   C1126   1.418   .     S
C533   C1146   1.397   .     S
C534   C535    1.383   .     A
C534   H565    1.085   .     S
C535   H570    1.077   .     S
C536   H567    1.079   .     S
C536   C553    1.400   .     A
C537   C552    1.389   .     A
C537   C553    1.399   .     A
C537   H559    1.083   .     S
C538   C554    1.402   .     A
C538   C540    1.486   .     S
C539   O587    1.383   .     S
C539   C545    1.406   .     A
C539   C145    1.387   1_565 S
C540   O576    1.290   .     A
C540   O575    1.311   .     A
C541   H560    1.084   .     S
C541   C542    1.401   .     A
C542   C550    1.449   .     S
C542   C543    1.415   .     A
C543   O581    1.380   .     S
C544   H561    1.084   .     S
C544   C545    1.398   .     A
C544   C147    1.385   1_565 S
C546   N572    1.372   .     A
C546   O583    1.378   .     S
C546   C415    1.427   1_655 S
C547   N571    1.364   .     A
C547   H562    1.082   .     S
C548   N571    1.367   .     A
C548   H563    1.082   .     S
C549   N572    1.367   .     A
C549   H564    1.082   .     S
C549   C416    1.416   1_655 S
C550   O578    1.291   .     A
C550   O577    1.291   .     A
C551   O580    1.296   .     A
C551   C553    1.463   .     S
C551   O579    1.295   .     A
C552   C1127   1.397   1_554 S
C552   H1160   1.079   1_554 S
C554   C555    1.392   .     A
C554   H568    1.083   .     S
C555   C1150   1.392   .     S
C555   H1163   1.080   .     S
C556   O585    1.379   .     S
C556   C1149   1.392   1_554 S
C556   C1124   1.425   1_554 S
Cu557  O577    1.961   .     S
Cu557  N571    2.015   .     S
Cu557  O575    1.950   .     S
Cu557  Cu558   2.681   .     S
Cu557  O579    1.944   .     S
Cu557  O573    1.961   .     S
Cu558  N572    2.014   .     S
Cu558  O576    1.944   .     S
Cu558  O578    1.961   .     S
Cu558  O580    1.950   .     S
Cu558  O574    1.961   .     S
H566   C1146   1.079   .     S
H569   C1149   1.080   1_554 S
O581   H582    0.990   .     S
O583   H584    0.992   .     S
O585   H586    0.991   .     S
O587   C588    1.412   .     S
C588   C591    1.521   .     S
C588   H590    1.115   .     S
C588   H589    1.114   .     S
C591   H593    1.111   .     S
C591   H592    1.111   .     S
C591   H462    1.111   1_655 S
C595   O639    1.291   .     A
C595   O640    1.290   .     A
C595   C611    1.447   .     S
C596   C597    1.417   .     A
C596   C4      1.424   1_556 S
C596   C28     1.425   1_556 S
C597   C604    1.430   .     A
C597   C601    1.416   .     A
C598   C602    1.402   .     A
C599   C600    1.388   .     A
C599   C4      1.418   1_556 S
C599   C24     1.397   1_556 S
C600   C601    1.383   .     A
C600   H631    1.085   .     S
C601   H636    1.077   .     S
C602   H633    1.079   .     S
C602   C619    1.400   .     A
C603   C618    1.389   .     A
C603   C619    1.399   .     A
C603   H625    1.083   .     S
C604   C620    1.402   .     A
C604   C606    1.486   .     S
C605   O653    1.383   .     S
C605   C611    1.406   .     A
C605   C805    1.387   .     S
C606   O642    1.290   .     A
C606   O641    1.311   .     A
C607   H626    1.084   .     S
C607   C608    1.401   .     A
C607   C1001   1.387   1_545 S
C608   C616    1.449   .     S
C608   C609    1.415   .     A
C609   O647    1.380   .     S
C609   C1006   1.385   1_545 S
C610   H627    1.084   .     S
C610   C611    1.398   .     A
C610   C807    1.385   .     S
C612   N638    1.372   .     A
C612   O649    1.378   .     S
C612   C679    1.427   .     S
C613   N637    1.364   .     A
C613   H628    1.082   .     S
C613   C744    1.427   1_455 S
C614   N637    1.367   .     A
C614   H629    1.082   .     S
C614   C747    1.416   1_455 S
C615   N638    1.367   .     A
C615   H630    1.082   .     S
C615   C680    1.416   .     S
C616   O644    1.291   .     A
C616   O643    1.291   .     A
C617   O646    1.296   .     A
C617   C619    1.463   .     S
C617   O645    1.295   .     A
C620   C621    1.392   .     A
C620   H634    1.083   .     S
C621   C28     1.392   1_556 S
C621   H41     1.080   1_556 S
C622   O651    1.379   .     S
Cu623  O643    1.961   .     S
Cu623  N637    2.015   .     S
Cu623  O641    1.950   .     S
Cu623  Cu624   2.681   .     S
Cu623  O645    1.944   .     S
Cu623  O639    1.961   .     S
Cu624  N638    2.014   .     S
Cu624  O642    1.944   .     S
Cu624  O644    1.961   .     S
Cu624  O646    1.950   .     S
Cu624  O640    1.961   .     S
H632   C24     1.079   1_556 S
O647   H648    0.990   .     S
O649   H650    0.992   .     S
O651   H652    0.991   .     S
O653   C654    1.412   .     S
C654   C657    1.521   .     S
C654   H656    1.115   .     S
C654   H655    1.114   .     S
C657   H659    1.111   .     S
C657   H658    1.111   .     S
C657   H726    1.111   .     S
H660   C789    1.111   1_455 S
C661   O705    1.291   .     A
C661   O706    1.290   .     A
C661   C677    1.447   .     S
C662   C663    1.417   .     A
C662   C70     1.424   1_556 S
C662   C94     1.425   1_556 S
C663   C670    1.430   .     A
C663   C667    1.416   .     A
C664   C668    1.402   .     A
C665   C666    1.388   .     A
C665   C70     1.418   1_556 S
C665   C90     1.397   1_556 S
C666   C667    1.383   .     A
C666   H697    1.085   .     S
C667   H702    1.077   .     S
C668   H699    1.079   .     S
C668   C685    1.400   .     A
C669   C684    1.389   .     A
C669   C685    1.399   .     A
C669   H691    1.083   .     S
C670   C686    1.402   .     A
C670   C672    1.486   .     S
C671   O719    1.383   .     S
C671   C677    1.406   .     A
C671   C871    1.387   .     S
C672   O708    1.290   .     A
C672   O707    1.311   .     A
C673   H692    1.084   .     S
C673   C674    1.401   .     A
C673   C1067   1.387   1_545 S
C674   C682    1.449   .     S
C674   C675    1.415   .     A
C675   O713    1.380   .     S
C675   C1072   1.385   1_545 S
C676   H693    1.084   .     S
C676   C677    1.398   .     A
C676   C873    1.385   .     S
C678   N704    1.372   .     A
C678   O715    1.378   .     S
C678   C745    1.427   .     S
C679   N703    1.364   .     A
C679   H694    1.082   .     S
C680   N703    1.367   .     A
C680   H695    1.082   .     S
C681   N704    1.367   .     A
C681   H696    1.082   .     S
C681   C746    1.416   .     S
C682   O710    1.291   .     A
C682   O709    1.291   .     A
C683   O712    1.296   .     A
C683   C685    1.463   .     S
C683   O711    1.295   .     A
C686   C687    1.392   .     A
C686   H700    1.083   .     S
C687   C94     1.392   1_556 S
C687   H107    1.080   1_556 S
C688   O717    1.379   .     S
Cu689  O709    1.961   .     S
Cu689  N703    2.015   .     S
Cu689  O707    1.950   .     S
Cu689  Cu690   2.681   .     S
Cu689  O711    1.944   .     S
Cu689  O705    1.961   .     S
Cu690  N704    2.014   .     S
Cu690  O708    1.944   .     S
Cu690  O710    1.961   .     S
Cu690  O712    1.950   .     S
Cu690  O706    1.961   .     S
H698   C90     1.079   1_556 S
O713   H714    0.990   .     S
O715   H716    0.992   .     S
O717   H718    0.991   .     S
O719   C720    1.412   .     S
C720   C723    1.521   .     S
C720   H722    1.115   .     S
C720   H721    1.114   .     S
C723   H725    1.111   .     S
C723   H724    1.111   .     S
C723   H792    1.111   .     S
C727   O771    1.291   .     A
C727   O772    1.290   .     A
C727   C743    1.447   .     S
C728   C729    1.417   .     A
C728   C136    1.424   1_556 S
C728   C160    1.425   1_556 S
C729   C736    1.430   .     A
C729   C733    1.416   .     A
C730   C734    1.402   .     A
C731   C732    1.388   .     A
C731   C136    1.418   1_556 S
C731   C156    1.397   1_556 S
C732   C733    1.383   .     A
C732   H763    1.085   .     S
C733   H768    1.077   .     S
C734   H765    1.079   .     S
C734   C751    1.400   .     A
C735   C750    1.389   .     A
C735   C751    1.399   .     A
C735   H757    1.083   .     S
C736   C752    1.402   .     A
C736   C738    1.486   .     S
C737   O785    1.383   .     S
C737   C743    1.406   .     A
C737   C937    1.387   .     S
C738   O774    1.290   .     A
C738   O773    1.311   .     A
C739   H758    1.084   .     S
C739   C740    1.401   .     A
C739   C1133   1.387   1_545 S
C740   C748    1.449   .     S
C740   C741    1.415   .     A
C741   O779    1.380   .     S
C741   C1138   1.385   1_545 S
C742   H759    1.084   .     S
C742   C743    1.398   .     A
C742   C939    1.385   .     S
C744   N770    1.372   .     A
C744   O781    1.378   .     S
C744   C613    1.427   1_655 S
C745   N769    1.364   .     A
C745   H760    1.082   .     S
C746   N769    1.367   .     A
C746   H761    1.082   .     S
C747   N770    1.367   .     A
C747   H762    1.082   .     S
C747   C614    1.416   1_655 S
C748   O776    1.291   .     A
C748   O775    1.291   .     A
C749   O778    1.296   .     A
C749   C751    1.463   .     S
C749   O777    1.295   .     A
C752   C753    1.392   .     A
C752   H766    1.083   .     S
C753   C160    1.392   1_556 S
C753   H173    1.080   1_556 S
C754   O783    1.379   .     S
Cu755  O775    1.961   .     S
Cu755  N769    2.015   .     S
Cu755  O773    1.950   .     S
Cu755  Cu756   2.681   .     S
Cu755  O777    1.944   .     S
Cu755  O771    1.961   .     S
Cu756  N770    2.014   .     S
Cu756  O774    1.944   .     S
Cu756  O776    1.961   .     S
Cu756  O778    1.950   .     S
Cu756  O772    1.961   .     S
H764   C156    1.079   1_556 S
O779   H780    0.990   .     S
O781   H782    0.992   .     S
O783   H784    0.991   .     S
O785   C786    1.412   .     S
C786   C789    1.521   .     S
C786   H788    1.115   .     S
C786   H787    1.114   .     S
C789   H791    1.111   .     S
C789   H790    1.111   .     S
C789   H660    1.111   1_655 S
C793   O837    1.291   .     A
C793   O838    1.290   .     A
C793   C809    1.447   .     S
C794   C795    1.417   .     A
C794   C202    1.424   1_556 S
C794   C226    1.425   1_556 S
C795   C802    1.430   .     A
C795   C799    1.416   .     A
C796   C800    1.402   .     A
C797   C798    1.388   .     A
C797   C202    1.418   1_556 S
C797   C222    1.397   1_556 S
C798   C799    1.383   .     A
C798   H829    1.085   .     S
C799   H834    1.077   .     S
C800   H831    1.079   .     S
C800   C817    1.400   .     A
C801   C816    1.389   .     A
C801   C817    1.399   .     A
C801   H823    1.083   .     S
C802   C818    1.402   .     A
C802   C804    1.486   .     S
C803   O851    1.383   .     S
C803   C809    1.406   .     A
C803   C1003   1.387   .     S
C804   O840    1.290   .     A
C804   O839    1.311   .     A
C805   H824    1.084   .     S
C805   C806    1.401   .     A
C806   C814    1.449   .     S
C806   C807    1.415   .     A
C807   O845    1.380   .     S
C808   H825    1.084   .     S
C808   C809    1.398   .     A
C808   C1005   1.385   .     S
C810   N836    1.372   .     A
C810   O847    1.378   .     S
C810   C877    1.427   .     S
C811   N835    1.364   .     A
C811   H826    1.082   .     S
C811   C942    1.427   1_455 S
C812   N835    1.367   .     A
C812   H827    1.082   .     S
C812   C945    1.416   1_455 S
C813   N836    1.367   .     A
C813   H828    1.082   .     S
C813   C878    1.416   .     S
C814   O842    1.291   .     A
C814   O841    1.291   .     A
C815   O844    1.296   .     A
C815   C817    1.463   .     S
C815   O843    1.295   .     A
C818   C819    1.392   .     A
C818   H832    1.083   .     S
C819   C226    1.392   1_556 S
C819   H239    1.080   1_556 S
C820   O849    1.379   .     S
Cu821  O841    1.961   .     S
Cu821  N835    2.015   .     S
Cu821  O839    1.950   .     S
Cu821  Cu822   2.681   .     S
Cu821  O843    1.944   .     S
Cu821  O837    1.961   .     S
Cu822  N836    2.014   .     S
Cu822  O840    1.944   .     S
Cu822  O842    1.961   .     S
Cu822  O844    1.950   .     S
Cu822  O838    1.961   .     S
H830   C222    1.079   1_556 S
O845   H846    0.990   .     S
O847   H848    0.992   .     S
O849   H850    0.991   .     S
O851   C852    1.412   .     S
C852   C855    1.521   .     S
C852   H854    1.115   .     S
C852   H853    1.114   .     S
C855   H857    1.111   .     S
C855   H856    1.111   .     S
C855   H924    1.111   .     S
H858   C987    1.111   1_455 S
C859   O903    1.291   .     A
C859   O904    1.290   .     A
C859   C875    1.447   .     S
C860   C861    1.417   .     A
C860   C268    1.424   1_556 S
C860   C292    1.425   1_556 S
C861   C868    1.430   .     A
C861   C865    1.416   .     A
C862   C866    1.402   .     A
C863   C864    1.388   .     A
C863   C268    1.418   1_556 S
C863   C288    1.397   1_556 S
C864   C865    1.383   .     A
C864   H895    1.085   .     S
C865   H900    1.077   .     S
C866   H897    1.079   .     S
C866   C883    1.400   .     A
C867   C882    1.389   .     A
C867   C883    1.399   .     A
C867   H889    1.083   .     S
C868   C884    1.402   .     A
C868   C870    1.486   .     S
C869   O917    1.383   .     S
C869   C875    1.406   .     A
C869   C1069   1.387   .     S
C870   O906    1.290   .     A
C870   O905    1.311   .     A
C871   H890    1.084   .     S
C871   C872    1.401   .     A
C872   C880    1.449   .     S
C872   C873    1.415   .     A
C873   O911    1.380   .     S
C874   H891    1.084   .     S
C874   C875    1.398   .     A
C874   C1071   1.385   .     S
C876   N902    1.372   .     A
C876   O913    1.378   .     S
C876   C943    1.427   .     S
C877   N901    1.364   .     A
C877   H892    1.082   .     S
C878   N901    1.367   .     A
C878   H893    1.082   .     S
C879   N902    1.367   .     A
C879   H894    1.082   .     S
C879   C944    1.416   .     S
C880   O908    1.291   .     A
C880   O907    1.291   .     A
C881   O910    1.296   .     A
C881   C883    1.463   .     S
C881   O909    1.295   .     A
C884   C885    1.392   .     A
C884   H898    1.083   .     S
C885   C292    1.392   1_556 S
C885   H305    1.080   1_556 S
C886   O915    1.379   .     S
Cu887  O907    1.961   .     S
Cu887  N901    2.015   .     S
Cu887  O905    1.950   .     S
Cu887  Cu888   2.681   .     S
Cu887  O909    1.944   .     S
Cu887  O903    1.961   .     S
Cu888  N902    2.014   .     S
Cu888  O906    1.944   .     S
Cu888  O908    1.961   .     S
Cu888  O910    1.950   .     S
Cu888  O904    1.961   .     S
H896   C288    1.079   1_556 S
O911   H912    0.990   .     S
O913   H914    0.992   .     S
O915   H916    0.991   .     S
O917   C918    1.412   .     S
C918   C921    1.521   .     S
C918   H920    1.115   .     S
C918   H919    1.114   .     S
C921   H923    1.111   .     S
C921   H922    1.111   .     S
C921   H990    1.111   .     S
C925   O969    1.291   .     A
C925   O970    1.290   .     A
C925   C941    1.447   .     S
C926   C927    1.417   .     A
C926   C334    1.424   1_556 S
C926   C358    1.425   1_556 S
C927   C934    1.430   .     A
C927   C931    1.416   .     A
C928   C932    1.402   .     A
C929   C930    1.388   .     A
C929   C334    1.418   1_556 S
C929   C354    1.397   1_556 S
C930   C931    1.383   .     A
C930   H961    1.085   .     S
C931   H966    1.077   .     S
C932   H963    1.079   .     S
C932   C949    1.400   .     A
C933   C948    1.389   .     A
C933   C949    1.399   .     A
C933   H955    1.083   .     S
C934   C950    1.402   .     A
C934   C936    1.486   .     S
C935   O983    1.383   .     S
C935   C941    1.406   .     A
C935   C1135   1.387   .     S
C936   O972    1.290   .     A
C936   O971    1.311   .     A
C937   H956    1.084   .     S
C937   C938    1.401   .     A
C938   C946    1.449   .     S
C938   C939    1.415   .     A
C939   O977    1.380   .     S
C940   H957    1.084   .     S
C940   C941    1.398   .     A
C940   C1137   1.385   .     S
C942   N968    1.372   .     A
C942   O979    1.378   .     S
C942   C811    1.427   1_655 S
C943   N967    1.364   .     A
C943   H958    1.082   .     S
C944   N967    1.367   .     A
C944   H959    1.082   .     S
C945   N968    1.367   .     A
C945   H960    1.082   .     S
C945   C812    1.416   1_655 S
C946   O974    1.291   .     A
C946   O973    1.291   .     A
C947   O976    1.296   .     A
C947   C949    1.463   .     S
C947   O975    1.295   .     A
C950   C951    1.392   .     A
C950   H964    1.083   .     S
C951   C358    1.392   1_556 S
C951   H371    1.080   1_556 S
C952   O981    1.379   .     S
Cu953  O973    1.961   .     S
Cu953  N967    2.015   .     S
Cu953  O971    1.950   .     S
Cu953  Cu954   2.681   .     S
Cu953  O975    1.944   .     S
Cu953  O969    1.961   .     S
Cu954  N968    2.014   .     S
Cu954  O972    1.944   .     S
Cu954  O974    1.961   .     S
Cu954  O976    1.950   .     S
Cu954  O970    1.961   .     S
H962   C354    1.079   1_556 S
O977   H978    0.990   .     S
O979   H980    0.992   .     S
O981   H982    0.991   .     S
O983   C984    1.412   .     S
C984   C987    1.521   .     S
C984   H986    1.115   .     S
C984   H985    1.114   .     S
C987   H989    1.111   .     S
C987   H988    1.111   .     S
C987   H858    1.111   1_655 S
C991   O1035   1.291   .     A
C991   O1036   1.290   .     A
C991   C1007   1.447   .     S
C992   C993    1.417   .     A
C992   C400    1.424   1_556 S
C992   C424    1.425   1_556 S
C993   C1000   1.430   .     A
C993   C997    1.416   .     A
C994   C998    1.402   .     A
C995   C996    1.388   .     A
C995   C400    1.418   1_556 S
C995   C420    1.397   1_556 S
C996   C997    1.383   .     A
C996   H1027   1.085   .     S
C997   H1032   1.077   .     S
C998   H1029   1.079   .     S
C998   C1015   1.400   .     A
C999   C1014   1.389   .     A
C999   C1015   1.399   .     A
C999   H1021   1.083   .     S
C1000  C1016   1.402   .     A
C1000  C1002   1.486   .     S
C1001  O1049   1.383   .     S
C1001  C1007   1.406   .     A
C1001  C607    1.387   1_565 S
C1002  O1038   1.290   .     A
C1002  O1037   1.311   .     A
C1003  H1022   1.084   .     S
C1003  C1004   1.401   .     A
C1004  C1012   1.449   .     S
C1004  C1005   1.415   .     A
C1005  O1043   1.380   .     S
C1006  H1023   1.084   .     S
C1006  C1007   1.398   .     A
C1006  C609    1.385   1_565 S
C1008  N1034   1.372   .     A
C1008  O1045   1.378   .     S
C1008  C1075   1.427   .     S
C1009  N1033   1.364   .     A
C1009  H1024   1.082   .     S
C1009  C1140   1.427   1_455 S
C1010  N1033   1.367   .     A
C1010  H1025   1.082   .     S
C1010  C1143   1.416   1_455 S
C1011  N1034   1.367   .     A
C1011  H1026   1.082   .     S
C1011  C1076   1.416   .     S
C1012  O1040   1.291   .     A
C1012  O1039   1.291   .     A
C1013  O1042   1.296   .     A
C1013  C1015   1.463   .     S
C1013  O1041   1.295   .     A
C1016  C1017   1.392   .     A
C1016  H1030   1.083   .     S
C1017  C424    1.392   1_556 S
C1017  H437    1.080   1_556 S
C1018  O1047   1.379   .     S
Cu1019 O1039   1.961   .     S
Cu1019 N1033   2.015   .     S
Cu1019 O1037   1.950   .     S
Cu1019 Cu1020  2.681   .     S
Cu1019 O1041   1.944   .     S
Cu1019 O1035   1.961   .     S
Cu1020 N1034   2.014   .     S
Cu1020 O1038   1.944   .     S
Cu1020 O1040   1.961   .     S
Cu1020 O1042   1.950   .     S
Cu1020 O1036   1.961   .     S
H1028  C420    1.079   1_556 S
O1043  H1044   0.990   .     S
O1045  H1046   0.992   .     S
O1047  H1048   0.991   .     S
O1049  C1050   1.412   .     S
C1050  C1053   1.521   .     S
C1050  H1052   1.115   .     S
C1050  H1051   1.114   .     S
C1053  H1055   1.111   .     S
C1053  H1054   1.111   .     S
C1053  H1122   1.111   .     S
H1056  C1185   1.111   1_455 S
C1057  O1101   1.291   .     A
C1057  O1102   1.290   .     A
C1057  C1073   1.447   .     S
C1058  C1059   1.417   .     A
C1058  C466    1.424   1_556 S
C1058  C490    1.425   1_556 S
C1059  C1066   1.430   .     A
C1059  C1063   1.416   .     A
C1060  C1064   1.402   .     A
C1061  C1062   1.388   .     A
C1061  C466    1.418   1_556 S
C1061  C486    1.397   1_556 S
C1062  C1063   1.383   .     A
C1062  H1093   1.085   .     S
C1063  H1098   1.077   .     S
C1064  H1095   1.079   .     S
C1064  C1081   1.400   .     A
C1065  C1080   1.389   .     A
C1065  C1081   1.399   .     A
C1065  H1087   1.083   .     S
C1066  C1082   1.402   .     A
C1066  C1068   1.486   .     S
C1067  O1115   1.383   .     S
C1067  C1073   1.406   .     A
C1067  C673    1.387   1_565 S
C1068  O1104   1.290   .     A
C1068  O1103   1.311   .     A
C1069  H1088   1.084   .     S
C1069  C1070   1.401   .     A
C1070  C1078   1.449   .     S
C1070  C1071   1.415   .     A
C1071  O1109   1.380   .     S
C1072  H1089   1.084   .     S
C1072  C1073   1.398   .     A
C1072  C675    1.385   1_565 S
C1074  N1100   1.372   .     A
C1074  O1111   1.378   .     S
C1074  C1141   1.427   .     S
C1075  N1099   1.364   .     A
C1075  H1090   1.082   .     S
C1076  N1099   1.367   .     A
C1076  H1091   1.082   .     S
C1077  N1100   1.367   .     A
C1077  H1092   1.082   .     S
C1077  C1142   1.416   .     S
C1078  O1106   1.291   .     A
C1078  O1105   1.291   .     A
C1079  O1108   1.296   .     A
C1079  C1081   1.463   .     S
C1079  O1107   1.295   .     A
C1082  C1083   1.392   .     A
C1082  H1096   1.083   .     S
C1083  C490    1.392   1_556 S
C1083  H503    1.080   1_556 S
C1084  O1113   1.379   .     S
Cu1085 O1105   1.961   .     S
Cu1085 N1099   2.015   .     S
Cu1085 O1103   1.950   .     S
Cu1085 Cu1086  2.681   .     S
Cu1085 O1107   1.944   .     S
Cu1085 O1101   1.961   .     S
Cu1086 N1100   2.014   .     S
Cu1086 O1104   1.944   .     S
Cu1086 O1106   1.961   .     S
Cu1086 O1108   1.950   .     S
Cu1086 O1102   1.961   .     S
H1094  C486    1.079   1_556 S
O1109  H1110   0.990   .     S
O1111  H1112   0.992   .     S
O1113  H1114   0.991   .     S
O1115  C1116   1.412   .     S
C1116  C1119   1.521   .     S
C1116  H1118   1.115   .     S
C1116  H1117   1.114   .     S
C1119  H1121   1.111   .     S
C1119  H1120   1.111   .     S
C1119  H1188   1.111   .     S
C1123  O1167   1.291   .     A
C1123  O1168   1.290   .     A
C1123  C1139   1.447   .     S
C1124  C1125   1.417   .     A
C1124  C532    1.424   1_556 S
C1124  C556    1.425   1_556 S
C1125  C1132   1.430   .     A
C1125  C1129   1.416   .     A
C1126  C1130   1.402   .     A
C1127  C1128   1.388   .     A
C1127  C532    1.418   1_556 S
C1127  C552    1.397   1_556 S
C1128  C1129   1.383   .     A
C1128  H1159   1.085   .     S
C1129  H1164   1.077   .     S
C1130  H1161   1.079   .     S
C1130  C1147   1.400   .     A
C1131  C1146   1.389   .     A
C1131  C1147   1.399   .     A
C1131  H1153   1.083   .     S
C1132  C1148   1.402   .     A
C1132  C1134   1.486   .     S
C1133  O1181   1.383   .     S
C1133  C1139   1.406   .     A
C1133  C739    1.387   1_565 S
C1134  O1170   1.290   .     A
C1134  O1169   1.311   .     A
C1135  H1154   1.084   .     S
C1135  C1136   1.401   .     A
C1136  C1144   1.449   .     S
C1136  C1137   1.415   .     A
C1137  O1175   1.380   .     S
C1138  H1155   1.084   .     S
C1138  C1139   1.398   .     A
C1138  C741    1.385   1_565 S
C1140  N1166   1.372   .     A
C1140  O1177   1.378   .     S
C1140  C1009   1.427   1_655 S
C1141  N1165   1.364   .     A
C1141  H1156   1.082   .     S
C1142  N1165   1.367   .     A
C1142  H1157   1.082   .     S
C1143  N1166   1.367   .     A
C1143  H1158   1.082   .     S
C1143  C1010   1.416   1_655 S
C1144  O1172   1.291   .     A
C1144  O1171   1.291   .     A
C1145  O1174   1.296   .     A
C1145  C1147   1.463   .     S
C1145  O1173   1.295   .     A
C1148  C1149   1.392   .     A
C1148  H1162   1.083   .     S
C1149  C556    1.392   1_556 S
C1149  H569    1.080   1_556 S
C1150  O1179   1.379   .     S
Cu1151 O1171   1.961   .     S
Cu1151 N1165   2.015   .     S
Cu1151 O1169   1.950   .     S
Cu1151 Cu1152  2.681   .     S
Cu1151 O1173   1.944   .     S
Cu1151 O1167   1.961   .     S
Cu1152 N1166   2.014   .     S
Cu1152 O1170   1.944   .     S
Cu1152 O1172   1.961   .     S
Cu1152 O1174   1.950   .     S
Cu1152 O1168   1.961   .     S
H1160  C552    1.079   1_556 S
O1175  H1176   0.990   .     S
O1177  H1178   0.992   .     S
O1179  H1180   0.991   .     S
O1181  C1182   1.412   .     S
C1182  C1185   1.521   .     S
C1182  H1184   1.115   .     S
C1182  H1183   1.114   .     S
C1185  H1187   1.111   .     S
C1185  H1186   1.111   .     S
C1185  H1056   1.111   1_655 S
