data_str_m2_o1_o1_pcu_sym.71
_audit_creation_date              2020-01-03
_audit_creation_method            'Materials Studio'
_symmetry_space_group_name_H-M    'P1'
_symmetry_Int_Tables_number       1
_symmetry_cell_setting            triclinic
loop_
_symmetry_equiv_pos_as_xyz
  x,y,z
_cell_length_a                    31.6688
_cell_length_b                    29.5635
_cell_length_c                    29.0229
_cell_angle_alpha                 90.0001
_cell_angle_beta                  90.0000
_cell_angle_gamma                 90.0000
loop_
_atom_site_label
_atom_site_type_symbol
_atom_site_fract_x
_atom_site_fract_y
_atom_site_fract_z
_atom_site_U_iso_or_equiv
_atom_site_adp_type
_atom_site_occupancy
C1     C     0.05958   0.19088   0.16674   0.00000  Uiso   1.00
C2     C     0.00207   0.28974   0.30884   0.00000  Uiso   1.00
C3     C     0.49793   0.28974   0.02449   0.00000  Uiso   1.00
C4     C     0.49793   0.21026   0.30884   0.00000  Uiso   1.00
C5     C     0.25207   0.46026   0.02449   0.00000  Uiso   1.00
C6     C     0.25207   0.03974   0.30884   0.00000  Uiso   1.00
C7     C     0.24793   0.03974   0.02449   0.00000  Uiso   1.00
C8     C     0.24793   0.46026   0.30884   0.00000  Uiso   1.00
C9     C     0.39083   0.14117   0.12439   0.00000  Uiso   1.00
C10    C     0.10970   0.35836   0.20795   0.00000  Uiso   1.00
C11    C     0.10917   0.35883   0.12438   0.00000  Uiso   1.00
C12    C     0.44042   0.30912   0.16674   0.00000  Uiso   1.00
C13    C     0.39030   0.14164   0.20795   0.00000  Uiso   1.00
C14    C     0.10917   0.14117   0.20895   0.00000  Uiso   1.00
C15    C     0.39030   0.35836   0.12538   0.00000  Uiso   1.00
C16    C     0.39083   0.35883   0.20895   0.00000  Uiso   1.00
C17    C     0.10970   0.14164   0.12538   0.00000  Uiso   1.00
C18    C     0.14083   0.39117   0.12438   0.00000  Uiso   1.00
C19    C     0.35970   0.10836   0.20795   0.00000  Uiso   1.00
C20    C     0.35917   0.10883   0.12439   0.00000  Uiso   1.00
C21    C     0.14030   0.39164   0.20795   0.00000  Uiso   1.00
C22    C     0.35917   0.39117   0.20895   0.00000  Uiso   1.00
C23    C     0.44042   0.19088   0.16660   0.00000  Uiso   1.00
C24    C     0.14030   0.10836   0.12538   0.00000  Uiso   1.00
C25    C     0.14083   0.10883   0.20895   0.00000  Uiso   1.00
C26    C     0.35970   0.39164   0.12538   0.00000  Uiso   1.00
C27    C     0.09334   0.34238   0.16628   0.00000  Uiso   1.00
C28    C     0.40666   0.15762   0.16628   0.00000  Uiso   1.00
C29    C     0.40666   0.34238   0.16705   0.00000  Uiso   1.00
C30    C     0.09334   0.15762   0.16705   0.00000  Uiso   1.00
C31    C     0.34334   0.09238   0.16628   0.00000  Uiso   1.00
C32    C     0.15666   0.40762   0.16628   0.00000  Uiso   1.00
C33    C     0.15666   0.09238   0.16705   0.00000  Uiso   1.00
C34    C     0.05958   0.30912   0.16660   0.00000  Uiso   1.00
C35    C     0.34334   0.40762   0.16705   0.00000  Uiso   1.00
C36    C     0.01213   0.16625   0.04654   0.00000  Uiso   1.00
C37    C     0.01213   0.33375   0.28679   0.00000  Uiso   1.00
C38    C     0.48787   0.33375   0.04654   0.00000  Uiso   1.00
C39    C     0.48787   0.16625   0.28679   0.00000  Uiso   1.00
C40    C     0.26213   0.41625   0.04654   0.00000  Uiso   1.00
C41    C     0.26213   0.08375   0.28679   0.00000  Uiso   1.00
C42    C     0.23787   0.08375   0.04654   0.00000  Uiso   1.00
C43    C     0.23787   0.41625   0.28679   0.00000  Uiso   1.00
C44    C     0.30958   0.44088   0.16674   0.00000  Uiso   1.00
C45    C     0.19042   0.05912   0.16674   0.00000  Uiso   1.00
C46    C     0.19042   0.44088   0.16660   0.00000  Uiso   1.00
C47    C     0.30958   0.05912   0.16660   0.00000  Uiso   1.00
C48    C     0.00207   0.21026   0.02449   0.00000  Uiso   1.00
Cu49   Cu    0.00000   0.25000   0.21355   0.00000  Uiso   1.00
Cu50   Cu    0.00000   0.25000   0.11978   0.00000  Uiso   1.00
Cu51   Cu    0.25000   0.00000   0.21355   0.00000  Uiso   1.00
Cu52   Cu    0.25000   0.00000   0.11978   0.00000  Uiso   1.00
H53    H     0.40268   0.15328   0.09164   0.00000  Uiso   1.00
H54    H     0.34900   0.09515   0.24056   0.00000  Uiso   1.00
H55    H     0.34732   0.09672   0.09164   0.00000  Uiso   1.00
H56    H     0.15100   0.40485   0.24056   0.00000  Uiso   1.00
H57    H     0.34732   0.40328   0.24170   0.00000  Uiso   1.00
H58    H     0.15100   0.09515   0.09278   0.00000  Uiso   1.00
H59    H     0.15268   0.09672   0.24170   0.00000  Uiso   1.00
H60    H     0.34900   0.40485   0.09278   0.00000  Uiso   1.00
H61    H     0.04923   0.11076   0.04526   0.00000  Uiso   1.00
H62    H     0.04923   0.38924   0.28808   0.00000  Uiso   1.00
H63    H     0.45077   0.38924   0.04526   0.00000  Uiso   1.00
H64    H     0.09900   0.34515   0.24056   0.00000  Uiso   1.00
H65    H     0.45077   0.11076   0.28808   0.00000  Uiso   1.00
H66    H     0.29923   0.36076   0.04525   0.00000  Uiso   1.00
H67    H     0.29923   0.13924   0.28808   0.00000  Uiso   1.00
H68    H     0.20076   0.13924   0.04525   0.00000  Uiso   1.00
H69    H     0.20077   0.36076   0.28808   0.00000  Uiso   1.00
H70    H     0.09732   0.34672   0.09164   0.00000  Uiso   1.00
H71    H     0.40100   0.15485   0.24056   0.00000  Uiso   1.00
H72    H     0.09732   0.15328   0.24170   0.00000  Uiso   1.00
H73    H     0.40100   0.34515   0.09278   0.00000  Uiso   1.00
H74    H     0.40268   0.34672   0.24170   0.00000  Uiso   1.00
H75    H     0.09901   0.15485   0.09278   0.00000  Uiso   1.00
H76    H     0.15268   0.40328   0.09164   0.00000  Uiso   1.00
N77    N     0.00000   0.25000   0.28402   0.00000  Uiso   1.00
N78    N     0.00000   0.25000   0.04931   0.00000  Uiso   1.00
N79    N     0.25000   0.00000   0.28402   0.00000  Uiso   1.00
N80    N     0.25000   0.00000   0.04931   0.00000  Uiso   1.00
O81    O     0.04509   0.20491   0.20625   0.00000  Uiso   1.00
O82    O     0.20492   0.04509   0.12709   0.00000  Uiso   1.00
O83    O     0.20492   0.04509   0.20625   0.00000  Uiso   1.00
O84    O     0.29509   0.45491   0.12709   0.00000  Uiso   1.00
O85    O     0.20492   0.45491   0.12709   0.00000  Uiso   1.00
O86    O     0.29509   0.04509   0.20625   0.00000  Uiso   1.00
O87    O     0.29509   0.04509   0.12709   0.00000  Uiso   1.00
O88    O     0.20492   0.45491   0.20625   0.00000  Uiso   1.00
O89    O     0.48828   0.14905   0.07442   0.00000  Uiso   1.00
O90    O     0.04687   0.14172   0.03044   0.00000  Uiso   1.00
O91    O     0.48828   0.35095   0.25891   0.00000  Uiso   1.00
O92    O     0.45492   0.29509   0.12709   0.00000  Uiso   1.00
O93    O     0.04687   0.35828   0.30290   0.00000  Uiso   1.00
O94    O     0.01172   0.35095   0.07442   0.00000  Uiso   1.00
O95    O     0.45313   0.35828   0.03044   0.00000  Uiso   1.00
O96    O     0.01172   0.14905   0.25891   0.00000  Uiso   1.00
O97    O     0.45314   0.14172   0.30290   0.00000  Uiso   1.00
O98    O     0.23829   0.39905   0.07442   0.00000  Uiso   1.00
O99    O     0.29687   0.39172   0.03043   0.00000  Uiso   1.00
O100   O     0.23828   0.10095   0.25891   0.00000  Uiso   1.00
O101   O     0.29687   0.10828   0.30290   0.00000  Uiso   1.00
O102   O     0.26171   0.10095   0.07443   0.00000  Uiso   1.00
O103   O     0.45492   0.29509   0.20625   0.00000  Uiso   1.00
O104   O     0.20313   0.10828   0.03043   0.00000  Uiso   1.00
O105   O     0.26172   0.39905   0.25891   0.00000  Uiso   1.00
O106   O     0.20313   0.39172   0.30290   0.00000  Uiso   1.00
O107   O     0.04509   0.20491   0.12709   0.00000  Uiso   1.00
O108   O     0.45492   0.20491   0.12709   0.00000  Uiso   1.00
O109   O     0.04509   0.29509   0.20625   0.00000  Uiso   1.00
O110   O     0.04509   0.29509   0.12709   0.00000  Uiso   1.00
O111   O     0.45492   0.20491   0.20625   0.00000  Uiso   1.00
O112   O     0.29509   0.45491   0.20625   0.00000  Uiso   1.00
C113   C     0.55958   0.19088   0.16674   0.00000  Uiso   1.00
C114   C     0.50207   0.28974   0.30884   0.00000  Uiso   1.00
C115   C     0.99793   0.28974   0.02449   0.00000  Uiso   1.00
C116   C     0.99793   0.21026   0.30884   0.00000  Uiso   1.00
C117   C     0.75207   0.46026   0.02449   0.00000  Uiso   1.00
C118   C     0.75207   0.03974   0.30884   0.00000  Uiso   1.00
C119   C     0.74793   0.03974   0.02449   0.00000  Uiso   1.00
C120   C     0.74793   0.46026   0.30884   0.00000  Uiso   1.00
C121   C     0.89083   0.14117   0.12439   0.00000  Uiso   1.00
C122   C     0.60970   0.35836   0.20795   0.00000  Uiso   1.00
C123   C     0.60917   0.35883   0.12438   0.00000  Uiso   1.00
C124   C     0.94042   0.30912   0.16674   0.00000  Uiso   1.00
C125   C     0.89030   0.14164   0.20795   0.00000  Uiso   1.00
C126   C     0.60917   0.14117   0.20895   0.00000  Uiso   1.00
C127   C     0.89030   0.35836   0.12538   0.00000  Uiso   1.00
C128   C     0.89083   0.35883   0.20895   0.00000  Uiso   1.00
C129   C     0.60970   0.14164   0.12538   0.00000  Uiso   1.00
C130   C     0.64083   0.39117   0.12438   0.00000  Uiso   1.00
C131   C     0.85970   0.10836   0.20795   0.00000  Uiso   1.00
C132   C     0.85917   0.10883   0.12439   0.00000  Uiso   1.00
C133   C     0.64030   0.39164   0.20795   0.00000  Uiso   1.00
C134   C     0.85917   0.39117   0.20895   0.00000  Uiso   1.00
C135   C     0.94042   0.19088   0.16660   0.00000  Uiso   1.00
C136   C     0.64030   0.10836   0.12538   0.00000  Uiso   1.00
C137   C     0.64083   0.10883   0.20895   0.00000  Uiso   1.00
C138   C     0.85970   0.39164   0.12538   0.00000  Uiso   1.00
C139   C     0.59334   0.34238   0.16628   0.00000  Uiso   1.00
C140   C     0.90666   0.15762   0.16628   0.00000  Uiso   1.00
C141   C     0.90666   0.34238   0.16705   0.00000  Uiso   1.00
C142   C     0.59334   0.15762   0.16705   0.00000  Uiso   1.00
C143   C     0.84334   0.09238   0.16628   0.00000  Uiso   1.00
C144   C     0.65666   0.40762   0.16628   0.00000  Uiso   1.00
C145   C     0.65666   0.09238   0.16705   0.00000  Uiso   1.00
C146   C     0.55958   0.30912   0.16660   0.00000  Uiso   1.00
C147   C     0.84334   0.40762   0.16705   0.00000  Uiso   1.00
C148   C     0.51213   0.16625   0.04654   0.00000  Uiso   1.00
C149   C     0.51213   0.33375   0.28679   0.00000  Uiso   1.00
C150   C     0.98787   0.33375   0.04654   0.00000  Uiso   1.00
C151   C     0.98787   0.16625   0.28679   0.00000  Uiso   1.00
C152   C     0.76213   0.41625   0.04654   0.00000  Uiso   1.00
C153   C     0.76213   0.08375   0.28679   0.00000  Uiso   1.00
C154   C     0.73787   0.08375   0.04654   0.00000  Uiso   1.00
C155   C     0.73787   0.41625   0.28679   0.00000  Uiso   1.00
C156   C     0.80958   0.44088   0.16674   0.00000  Uiso   1.00
C157   C     0.69042   0.05912   0.16674   0.00000  Uiso   1.00
C158   C     0.69042   0.44088   0.16660   0.00000  Uiso   1.00
C159   C     0.80958   0.05912   0.16660   0.00000  Uiso   1.00
C160   C     0.50207   0.21026   0.02449   0.00000  Uiso   1.00
Cu161  Cu    0.50000   0.25000   0.21355   0.00000  Uiso   1.00
Cu162  Cu    0.50000   0.25000   0.11978   0.00000  Uiso   1.00
Cu163  Cu    0.75000   0.00000   0.21355   0.00000  Uiso   1.00
Cu164  Cu    0.75000   0.00000   0.11978   0.00000  Uiso   1.00
H165   H     0.90268   0.15328   0.09164   0.00000  Uiso   1.00
H166   H     0.84900   0.09515   0.24056   0.00000  Uiso   1.00
H167   H     0.84732   0.09672   0.09164   0.00000  Uiso   1.00
H168   H     0.65100   0.40485   0.24056   0.00000  Uiso   1.00
H169   H     0.84732   0.40328   0.24170   0.00000  Uiso   1.00
H170   H     0.65100   0.09515   0.09278   0.00000  Uiso   1.00
H171   H     0.65268   0.09672   0.24170   0.00000  Uiso   1.00
H172   H     0.84900   0.40485   0.09278   0.00000  Uiso   1.00
H173   H     0.54923   0.11076   0.04526   0.00000  Uiso   1.00
H174   H     0.54923   0.38924   0.28808   0.00000  Uiso   1.00
H175   H     0.95077   0.38924   0.04526   0.00000  Uiso   1.00
H176   H     0.59900   0.34515   0.24056   0.00000  Uiso   1.00
H177   H     0.95077   0.11076   0.28808   0.00000  Uiso   1.00
H178   H     0.79923   0.36076   0.04525   0.00000  Uiso   1.00
H179   H     0.79923   0.13924   0.28808   0.00000  Uiso   1.00
H180   H     0.70076   0.13924   0.04525   0.00000  Uiso   1.00
H181   H     0.70077   0.36076   0.28808   0.00000  Uiso   1.00
H182   H     0.59732   0.34672   0.09164   0.00000  Uiso   1.00
H183   H     0.90100   0.15485   0.24056   0.00000  Uiso   1.00
H184   H     0.59732   0.15328   0.24170   0.00000  Uiso   1.00
H185   H     0.90100   0.34515   0.09278   0.00000  Uiso   1.00
H186   H     0.90268   0.34672   0.24170   0.00000  Uiso   1.00
H187   H     0.59901   0.15485   0.09278   0.00000  Uiso   1.00
H188   H     0.65268   0.40328   0.09164   0.00000  Uiso   1.00
N189   N     0.50000   0.25000   0.28402   0.00000  Uiso   1.00
N190   N     0.50000   0.25000   0.04931   0.00000  Uiso   1.00
N191   N     0.75000   0.00000   0.28402   0.00000  Uiso   1.00
N192   N     0.75000   0.00000   0.04931   0.00000  Uiso   1.00
O193   O     0.54509   0.20491   0.20625   0.00000  Uiso   1.00
O194   O     0.70492   0.04509   0.12709   0.00000  Uiso   1.00
O195   O     0.70492   0.04509   0.20625   0.00000  Uiso   1.00
O196   O     0.79509   0.45491   0.12709   0.00000  Uiso   1.00
O197   O     0.70492   0.45491   0.12709   0.00000  Uiso   1.00
O198   O     0.79509   0.04509   0.20625   0.00000  Uiso   1.00
O199   O     0.79509   0.04509   0.12709   0.00000  Uiso   1.00
O200   O     0.70492   0.45491   0.20625   0.00000  Uiso   1.00
O201   O     0.98828   0.14905   0.07442   0.00000  Uiso   1.00
O202   O     0.54687   0.14172   0.03044   0.00000  Uiso   1.00
O203   O     0.98828   0.35095   0.25891   0.00000  Uiso   1.00
O204   O     0.95492   0.29509   0.12709   0.00000  Uiso   1.00
O205   O     0.54687   0.35828   0.30290   0.00000  Uiso   1.00
O206   O     0.51172   0.35095   0.07442   0.00000  Uiso   1.00
O207   O     0.95313   0.35828   0.03044   0.00000  Uiso   1.00
O208   O     0.51172   0.14905   0.25891   0.00000  Uiso   1.00
O209   O     0.95314   0.14172   0.30290   0.00000  Uiso   1.00
O210   O     0.73829   0.39905   0.07442   0.00000  Uiso   1.00
O211   O     0.79687   0.39172   0.03043   0.00000  Uiso   1.00
O212   O     0.73828   0.10095   0.25891   0.00000  Uiso   1.00
O213   O     0.79687   0.10828   0.30290   0.00000  Uiso   1.00
O214   O     0.76171   0.10095   0.07443   0.00000  Uiso   1.00
O215   O     0.95492   0.29509   0.20625   0.00000  Uiso   1.00
O216   O     0.70313   0.10828   0.03043   0.00000  Uiso   1.00
O217   O     0.76172   0.39905   0.25891   0.00000  Uiso   1.00
O218   O     0.70313   0.39172   0.30290   0.00000  Uiso   1.00
O219   O     0.54509   0.20491   0.12709   0.00000  Uiso   1.00
O220   O     0.95492   0.20491   0.12709   0.00000  Uiso   1.00
O221   O     0.54509   0.29509   0.20625   0.00000  Uiso   1.00
O222   O     0.54509   0.29509   0.12709   0.00000  Uiso   1.00
O223   O     0.95492   0.20491   0.20625   0.00000  Uiso   1.00
O224   O     0.79509   0.45491   0.20625   0.00000  Uiso   1.00
C225   C     0.05958   0.69088   0.16674   0.00000  Uiso   1.00
C226   C     0.00207   0.78974   0.30884   0.00000  Uiso   1.00
C227   C     0.49793   0.78974   0.02449   0.00000  Uiso   1.00
C228   C     0.49793   0.71026   0.30884   0.00000  Uiso   1.00
C229   C     0.25207   0.96026   0.02449   0.00000  Uiso   1.00
C230   C     0.25207   0.53974   0.30884   0.00000  Uiso   1.00
C231   C     0.24793   0.53974   0.02449   0.00000  Uiso   1.00
C232   C     0.24793   0.96026   0.30884   0.00000  Uiso   1.00
C233   C     0.39083   0.64117   0.12439   0.00000  Uiso   1.00
C234   C     0.10970   0.85836   0.20795   0.00000  Uiso   1.00
C235   C     0.10917   0.85883   0.12438   0.00000  Uiso   1.00
C236   C     0.44042   0.80912   0.16674   0.00000  Uiso   1.00
C237   C     0.39030   0.64164   0.20795   0.00000  Uiso   1.00
C238   C     0.10917   0.64117   0.20895   0.00000  Uiso   1.00
C239   C     0.39030   0.85836   0.12538   0.00000  Uiso   1.00
C240   C     0.39083   0.85883   0.20895   0.00000  Uiso   1.00
C241   C     0.10970   0.64164   0.12538   0.00000  Uiso   1.00
C242   C     0.14083   0.89117   0.12438   0.00000  Uiso   1.00
C243   C     0.35970   0.60836   0.20795   0.00000  Uiso   1.00
C244   C     0.35917   0.60883   0.12439   0.00000  Uiso   1.00
C245   C     0.14030   0.89164   0.20795   0.00000  Uiso   1.00
C246   C     0.35917   0.89117   0.20895   0.00000  Uiso   1.00
C247   C     0.44042   0.69088   0.16660   0.00000  Uiso   1.00
C248   C     0.14030   0.60836   0.12538   0.00000  Uiso   1.00
C249   C     0.14083   0.60883   0.20895   0.00000  Uiso   1.00
C250   C     0.35970   0.89164   0.12538   0.00000  Uiso   1.00
C251   C     0.09334   0.84238   0.16628   0.00000  Uiso   1.00
C252   C     0.40666   0.65762   0.16628   0.00000  Uiso   1.00
C253   C     0.40666   0.84238   0.16705   0.00000  Uiso   1.00
C254   C     0.09334   0.65762   0.16705   0.00000  Uiso   1.00
C255   C     0.34334   0.59238   0.16628   0.00000  Uiso   1.00
C256   C     0.15666   0.90762   0.16628   0.00000  Uiso   1.00
C257   C     0.15666   0.59238   0.16705   0.00000  Uiso   1.00
C258   C     0.05958   0.80912   0.16660   0.00000  Uiso   1.00
C259   C     0.34334   0.90762   0.16705   0.00000  Uiso   1.00
C260   C     0.01213   0.66625   0.04654   0.00000  Uiso   1.00
C261   C     0.01213   0.83375   0.28679   0.00000  Uiso   1.00
C262   C     0.48787   0.83375   0.04654   0.00000  Uiso   1.00
C263   C     0.48787   0.66625   0.28679   0.00000  Uiso   1.00
C264   C     0.26213   0.91625   0.04654   0.00000  Uiso   1.00
C265   C     0.26213   0.58375   0.28679   0.00000  Uiso   1.00
C266   C     0.23787   0.58375   0.04654   0.00000  Uiso   1.00
C267   C     0.23787   0.91625   0.28679   0.00000  Uiso   1.00
C268   C     0.30958   0.94088   0.16674   0.00000  Uiso   1.00
C269   C     0.19042   0.55912   0.16674   0.00000  Uiso   1.00
C270   C     0.19042   0.94088   0.16660   0.00000  Uiso   1.00
C271   C     0.30958   0.55912   0.16660   0.00000  Uiso   1.00
C272   C     0.00207   0.71026   0.02449   0.00000  Uiso   1.00
Cu273  Cu    0.00000   0.75000   0.21355   0.00000  Uiso   1.00
Cu274  Cu    0.00000   0.75000   0.11978   0.00000  Uiso   1.00
Cu275  Cu    0.25000   0.50000   0.21355   0.00000  Uiso   1.00
Cu276  Cu    0.25000   0.50000   0.11978   0.00000  Uiso   1.00
H277   H     0.40268   0.65328   0.09164   0.00000  Uiso   1.00
H278   H     0.34900   0.59515   0.24056   0.00000  Uiso   1.00
H279   H     0.34732   0.59672   0.09164   0.00000  Uiso   1.00
H280   H     0.15100   0.90485   0.24056   0.00000  Uiso   1.00
H281   H     0.34732   0.90328   0.24170   0.00000  Uiso   1.00
H282   H     0.15100   0.59515   0.09278   0.00000  Uiso   1.00
H283   H     0.15268   0.59672   0.24170   0.00000  Uiso   1.00
H284   H     0.34900   0.90485   0.09278   0.00000  Uiso   1.00
H285   H     0.04923   0.61076   0.04526   0.00000  Uiso   1.00
H286   H     0.04923   0.88924   0.28808   0.00000  Uiso   1.00
H287   H     0.45077   0.88924   0.04526   0.00000  Uiso   1.00
H288   H     0.09900   0.84515   0.24056   0.00000  Uiso   1.00
H289   H     0.45077   0.61076   0.28808   0.00000  Uiso   1.00
H290   H     0.29923   0.86076   0.04525   0.00000  Uiso   1.00
H291   H     0.29923   0.63924   0.28808   0.00000  Uiso   1.00
H292   H     0.20076   0.63924   0.04525   0.00000  Uiso   1.00
H293   H     0.20077   0.86076   0.28808   0.00000  Uiso   1.00
H294   H     0.09732   0.84672   0.09164   0.00000  Uiso   1.00
H295   H     0.40100   0.65485   0.24056   0.00000  Uiso   1.00
H296   H     0.09732   0.65328   0.24170   0.00000  Uiso   1.00
H297   H     0.40100   0.84515   0.09278   0.00000  Uiso   1.00
H298   H     0.40268   0.84672   0.24170   0.00000  Uiso   1.00
H299   H     0.09901   0.65485   0.09278   0.00000  Uiso   1.00
H300   H     0.15268   0.90328   0.09164   0.00000  Uiso   1.00
N301   N     0.00000   0.75000   0.28402   0.00000  Uiso   1.00
N302   N     0.00000   0.75000   0.04931   0.00000  Uiso   1.00
N303   N     0.25000   0.50000   0.28402   0.00000  Uiso   1.00
N304   N     0.25000   0.50000   0.04931   0.00000  Uiso   1.00
O305   O     0.04509   0.70491   0.20625   0.00000  Uiso   1.00
O306   O     0.20492   0.54509   0.12709   0.00000  Uiso   1.00
O307   O     0.20492   0.54509   0.20625   0.00000  Uiso   1.00
O308   O     0.29509   0.95491   0.12709   0.00000  Uiso   1.00
O309   O     0.20492   0.95491   0.12709   0.00000  Uiso   1.00
O310   O     0.29509   0.54509   0.20625   0.00000  Uiso   1.00
O311   O     0.29509   0.54509   0.12709   0.00000  Uiso   1.00
O312   O     0.20492   0.95491   0.20625   0.00000  Uiso   1.00
O313   O     0.48828   0.64905   0.07442   0.00000  Uiso   1.00
O314   O     0.04687   0.64172   0.03044   0.00000  Uiso   1.00
O315   O     0.48828   0.85095   0.25891   0.00000  Uiso   1.00
O316   O     0.45492   0.79509   0.12709   0.00000  Uiso   1.00
O317   O     0.04687   0.85828   0.30290   0.00000  Uiso   1.00
O318   O     0.01172   0.85095   0.07442   0.00000  Uiso   1.00
O319   O     0.45313   0.85828   0.03044   0.00000  Uiso   1.00
O320   O     0.01172   0.64905   0.25891   0.00000  Uiso   1.00
O321   O     0.45314   0.64172   0.30290   0.00000  Uiso   1.00
O322   O     0.23829   0.89905   0.07442   0.00000  Uiso   1.00
O323   O     0.29687   0.89172   0.03043   0.00000  Uiso   1.00
O324   O     0.23828   0.60095   0.25891   0.00000  Uiso   1.00
O325   O     0.29687   0.60828   0.30290   0.00000  Uiso   1.00
O326   O     0.26171   0.60095   0.07443   0.00000  Uiso   1.00
O327   O     0.45492   0.79509   0.20625   0.00000  Uiso   1.00
O328   O     0.20313   0.60828   0.03043   0.00000  Uiso   1.00
O329   O     0.26172   0.89905   0.25891   0.00000  Uiso   1.00
O330   O     0.20313   0.89172   0.30290   0.00000  Uiso   1.00
O331   O     0.04509   0.70491   0.12709   0.00000  Uiso   1.00
O332   O     0.45492   0.70491   0.12709   0.00000  Uiso   1.00
O333   O     0.04509   0.79509   0.20625   0.00000  Uiso   1.00
O334   O     0.04509   0.79509   0.12709   0.00000  Uiso   1.00
O335   O     0.45492   0.70491   0.20625   0.00000  Uiso   1.00
O336   O     0.29509   0.95491   0.20625   0.00000  Uiso   1.00
C337   C     0.55958   0.69088   0.16674   0.00000  Uiso   1.00
C338   C     0.50207   0.78974   0.30884   0.00000  Uiso   1.00
C339   C     0.99793   0.78974   0.02449   0.00000  Uiso   1.00
C340   C     0.99793   0.71026   0.30884   0.00000  Uiso   1.00
C341   C     0.75207   0.96026   0.02449   0.00000  Uiso   1.00
C342   C     0.75207   0.53974   0.30884   0.00000  Uiso   1.00
C343   C     0.74793   0.53974   0.02449   0.00000  Uiso   1.00
C344   C     0.74793   0.96026   0.30884   0.00000  Uiso   1.00
C345   C     0.89083   0.64117   0.12439   0.00000  Uiso   1.00
C346   C     0.60970   0.85836   0.20795   0.00000  Uiso   1.00
C347   C     0.60917   0.85883   0.12438   0.00000  Uiso   1.00
C348   C     0.94042   0.80912   0.16674   0.00000  Uiso   1.00
C349   C     0.89030   0.64164   0.20795   0.00000  Uiso   1.00
C350   C     0.60917   0.64117   0.20895   0.00000  Uiso   1.00
C351   C     0.89030   0.85836   0.12538   0.00000  Uiso   1.00
C352   C     0.89083   0.85883   0.20895   0.00000  Uiso   1.00
C353   C     0.60970   0.64164   0.12538   0.00000  Uiso   1.00
C354   C     0.64083   0.89117   0.12438   0.00000  Uiso   1.00
C355   C     0.85970   0.60836   0.20795   0.00000  Uiso   1.00
C356   C     0.85917   0.60883   0.12439   0.00000  Uiso   1.00
C357   C     0.64030   0.89164   0.20795   0.00000  Uiso   1.00
C358   C     0.85917   0.89117   0.20895   0.00000  Uiso   1.00
C359   C     0.94042   0.69088   0.16660   0.00000  Uiso   1.00
C360   C     0.64030   0.60836   0.12538   0.00000  Uiso   1.00
C361   C     0.64083   0.60883   0.20895   0.00000  Uiso   1.00
C362   C     0.85970   0.89164   0.12538   0.00000  Uiso   1.00
C363   C     0.59334   0.84238   0.16628   0.00000  Uiso   1.00
C364   C     0.90666   0.65762   0.16628   0.00000  Uiso   1.00
C365   C     0.90666   0.84238   0.16705   0.00000  Uiso   1.00
C366   C     0.59334   0.65762   0.16705   0.00000  Uiso   1.00
C367   C     0.84334   0.59238   0.16628   0.00000  Uiso   1.00
C368   C     0.65666   0.90762   0.16628   0.00000  Uiso   1.00
C369   C     0.65666   0.59238   0.16705   0.00000  Uiso   1.00
C370   C     0.55958   0.80912   0.16660   0.00000  Uiso   1.00
C371   C     0.84334   0.90762   0.16705   0.00000  Uiso   1.00
C372   C     0.51213   0.66625   0.04654   0.00000  Uiso   1.00
C373   C     0.51213   0.83375   0.28679   0.00000  Uiso   1.00
C374   C     0.98787   0.83375   0.04654   0.00000  Uiso   1.00
C375   C     0.98787   0.66625   0.28679   0.00000  Uiso   1.00
C376   C     0.76213   0.91625   0.04654   0.00000  Uiso   1.00
C377   C     0.76213   0.58375   0.28679   0.00000  Uiso   1.00
C378   C     0.73787   0.58375   0.04654   0.00000  Uiso   1.00
C379   C     0.73787   0.91625   0.28679   0.00000  Uiso   1.00
C380   C     0.80958   0.94088   0.16674   0.00000  Uiso   1.00
C381   C     0.69042   0.55912   0.16674   0.00000  Uiso   1.00
C382   C     0.69042   0.94088   0.16660   0.00000  Uiso   1.00
C383   C     0.80958   0.55912   0.16660   0.00000  Uiso   1.00
C384   C     0.50207   0.71026   0.02449   0.00000  Uiso   1.00
Cu385  Cu    0.50000   0.75000   0.21355   0.00000  Uiso   1.00
Cu386  Cu    0.50000   0.75000   0.11978   0.00000  Uiso   1.00
Cu387  Cu    0.75000   0.50000   0.21355   0.00000  Uiso   1.00
Cu388  Cu    0.75000   0.50000   0.11978   0.00000  Uiso   1.00
H389   H     0.90268   0.65328   0.09164   0.00000  Uiso   1.00
H390   H     0.84900   0.59515   0.24056   0.00000  Uiso   1.00
H391   H     0.84732   0.59672   0.09164   0.00000  Uiso   1.00
H392   H     0.65100   0.90485   0.24056   0.00000  Uiso   1.00
H393   H     0.84732   0.90328   0.24170   0.00000  Uiso   1.00
H394   H     0.65100   0.59515   0.09278   0.00000  Uiso   1.00
H395   H     0.65268   0.59672   0.24170   0.00000  Uiso   1.00
H396   H     0.84900   0.90485   0.09278   0.00000  Uiso   1.00
H397   H     0.54923   0.61076   0.04526   0.00000  Uiso   1.00
H398   H     0.54923   0.88924   0.28808   0.00000  Uiso   1.00
H399   H     0.95077   0.88924   0.04526   0.00000  Uiso   1.00
H400   H     0.59900   0.84515   0.24056   0.00000  Uiso   1.00
H401   H     0.95077   0.61076   0.28808   0.00000  Uiso   1.00
H402   H     0.79923   0.86076   0.04525   0.00000  Uiso   1.00
H403   H     0.79923   0.63924   0.28808   0.00000  Uiso   1.00
H404   H     0.70076   0.63924   0.04525   0.00000  Uiso   1.00
H405   H     0.70077   0.86076   0.28808   0.00000  Uiso   1.00
H406   H     0.59732   0.84672   0.09164   0.00000  Uiso   1.00
H407   H     0.90100   0.65485   0.24056   0.00000  Uiso   1.00
H408   H     0.59732   0.65328   0.24170   0.00000  Uiso   1.00
H409   H     0.90100   0.84515   0.09278   0.00000  Uiso   1.00
H410   H     0.90268   0.84672   0.24170   0.00000  Uiso   1.00
H411   H     0.59901   0.65485   0.09278   0.00000  Uiso   1.00
H412   H     0.65268   0.90328   0.09164   0.00000  Uiso   1.00
N413   N     0.50000   0.75000   0.28402   0.00000  Uiso   1.00
N414   N     0.50000   0.75000   0.04931   0.00000  Uiso   1.00
N415   N     0.75000   0.50000   0.28402   0.00000  Uiso   1.00
N416   N     0.75000   0.50000   0.04931   0.00000  Uiso   1.00
O417   O     0.54509   0.70491   0.20625   0.00000  Uiso   1.00
O418   O     0.70492   0.54509   0.12709   0.00000  Uiso   1.00
O419   O     0.70492   0.54509   0.20625   0.00000  Uiso   1.00
O420   O     0.79509   0.95491   0.12709   0.00000  Uiso   1.00
O421   O     0.70492   0.95491   0.12709   0.00000  Uiso   1.00
O422   O     0.79509   0.54509   0.20625   0.00000  Uiso   1.00
O423   O     0.79509   0.54509   0.12709   0.00000  Uiso   1.00
O424   O     0.70492   0.95491   0.20625   0.00000  Uiso   1.00
O425   O     0.98828   0.64905   0.07442   0.00000  Uiso   1.00
O426   O     0.54687   0.64172   0.03044   0.00000  Uiso   1.00
O427   O     0.98828   0.85095   0.25891   0.00000  Uiso   1.00
O428   O     0.95492   0.79509   0.12709   0.00000  Uiso   1.00
O429   O     0.54687   0.85828   0.30290   0.00000  Uiso   1.00
O430   O     0.51172   0.85095   0.07442   0.00000  Uiso   1.00
O431   O     0.95313   0.85828   0.03044   0.00000  Uiso   1.00
O432   O     0.51172   0.64905   0.25891   0.00000  Uiso   1.00
O433   O     0.95314   0.64172   0.30290   0.00000  Uiso   1.00
O434   O     0.73829   0.89905   0.07442   0.00000  Uiso   1.00
O435   O     0.79687   0.89172   0.03043   0.00000  Uiso   1.00
O436   O     0.73828   0.60095   0.25891   0.00000  Uiso   1.00
O437   O     0.79687   0.60828   0.30290   0.00000  Uiso   1.00
O438   O     0.76171   0.60095   0.07443   0.00000  Uiso   1.00
O439   O     0.95492   0.79509   0.20625   0.00000  Uiso   1.00
O440   O     0.70313   0.60828   0.03043   0.00000  Uiso   1.00
O441   O     0.76172   0.89905   0.25891   0.00000  Uiso   1.00
O442   O     0.70313   0.89172   0.30290   0.00000  Uiso   1.00
O443   O     0.54509   0.70491   0.12709   0.00000  Uiso   1.00
O444   O     0.95492   0.70491   0.12709   0.00000  Uiso   1.00
O445   O     0.54509   0.79509   0.20625   0.00000  Uiso   1.00
O446   O     0.54509   0.79509   0.12709   0.00000  Uiso   1.00
O447   O     0.95492   0.70491   0.20625   0.00000  Uiso   1.00
O448   O     0.79509   0.95491   0.20625   0.00000  Uiso   1.00
C449   C     0.05958   0.19088   0.50007   0.00000  Uiso   1.00
C450   C     0.00207   0.28974   0.64217   0.00000  Uiso   1.00
C451   C     0.49793   0.28974   0.35783   0.00000  Uiso   1.00
C452   C     0.49793   0.21026   0.64217   0.00000  Uiso   1.00
C453   C     0.25207   0.46026   0.35783   0.00000  Uiso   1.00
C454   C     0.25207   0.03974   0.64217   0.00000  Uiso   1.00
C455   C     0.24793   0.03974   0.35783   0.00000  Uiso   1.00
C456   C     0.24793   0.46026   0.64217   0.00000  Uiso   1.00
C457   C     0.39083   0.14117   0.45772   0.00000  Uiso   1.00
C458   C     0.10970   0.35836   0.54129   0.00000  Uiso   1.00
C459   C     0.10917   0.35883   0.45772   0.00000  Uiso   1.00
C460   C     0.44042   0.30912   0.50007   0.00000  Uiso   1.00
C461   C     0.39030   0.14164   0.54129   0.00000  Uiso   1.00
C462   C     0.10917   0.14117   0.54228   0.00000  Uiso   1.00
C463   C     0.39030   0.35836   0.45871   0.00000  Uiso   1.00
C464   C     0.39083   0.35883   0.54228   0.00000  Uiso   1.00
C465   C     0.10970   0.14164   0.45871   0.00000  Uiso   1.00
C466   C     0.14083   0.39117   0.45772   0.00000  Uiso   1.00
C467   C     0.35970   0.10836   0.54129   0.00000  Uiso   1.00
C468   C     0.35917   0.10883   0.45772   0.00000  Uiso   1.00
C469   C     0.14030   0.39164   0.54129   0.00000  Uiso   1.00
C470   C     0.35917   0.39117   0.54228   0.00000  Uiso   1.00
C471   C     0.44042   0.19088   0.49993   0.00000  Uiso   1.00
C472   C     0.14030   0.10836   0.45871   0.00000  Uiso   1.00
C473   C     0.14083   0.10883   0.54228   0.00000  Uiso   1.00
C474   C     0.35970   0.39164   0.45871   0.00000  Uiso   1.00
C475   C     0.09334   0.34238   0.49961   0.00000  Uiso   1.00
C476   C     0.40666   0.15762   0.49961   0.00000  Uiso   1.00
C477   C     0.40666   0.34238   0.50039   0.00000  Uiso   1.00
C478   C     0.09334   0.15762   0.50039   0.00000  Uiso   1.00
C479   C     0.34334   0.09238   0.49961   0.00000  Uiso   1.00
C480   C     0.15666   0.40762   0.49961   0.00000  Uiso   1.00
C481   C     0.15666   0.09238   0.50039   0.00000  Uiso   1.00
C482   C     0.05958   0.30912   0.49993   0.00000  Uiso   1.00
C483   C     0.34334   0.40762   0.50039   0.00000  Uiso   1.00
C484   C     0.01213   0.16625   0.37987   0.00000  Uiso   1.00
C485   C     0.01213   0.33375   0.62013   0.00000  Uiso   1.00
C486   C     0.48787   0.33375   0.37988   0.00000  Uiso   1.00
C487   C     0.48787   0.16625   0.62013   0.00000  Uiso   1.00
C488   C     0.26213   0.41625   0.37987   0.00000  Uiso   1.00
C489   C     0.26213   0.08375   0.62013   0.00000  Uiso   1.00
C490   C     0.23787   0.08375   0.37987   0.00000  Uiso   1.00
C491   C     0.23787   0.41625   0.62013   0.00000  Uiso   1.00
C492   C     0.30958   0.44088   0.50007   0.00000  Uiso   1.00
C493   C     0.19042   0.05912   0.50007   0.00000  Uiso   1.00
C494   C     0.19042   0.44088   0.49993   0.00000  Uiso   1.00
C495   C     0.30958   0.05912   0.49993   0.00000  Uiso   1.00
C496   C     0.00207   0.21026   0.35783   0.00000  Uiso   1.00
Cu497  Cu    0.00000   0.25000   0.54689   0.00000  Uiso   1.00
Cu498  Cu    0.00000   0.25000   0.45311   0.00000  Uiso   1.00
Cu499  Cu    0.25000   0.00000   0.54689   0.00000  Uiso   1.00
Cu500  Cu    0.25000   0.00000   0.45311   0.00000  Uiso   1.00
H501   H     0.40268   0.15328   0.42497   0.00000  Uiso   1.00
H502   H     0.34900   0.09515   0.57389   0.00000  Uiso   1.00
H503   H     0.34732   0.09672   0.42497   0.00000  Uiso   1.00
H504   H     0.15100   0.40485   0.57389   0.00000  Uiso   1.00
H505   H     0.34732   0.40328   0.57503   0.00000  Uiso   1.00
H506   H     0.15100   0.09515   0.42611   0.00000  Uiso   1.00
H507   H     0.15268   0.09672   0.57503   0.00000  Uiso   1.00
H508   H     0.34900   0.40485   0.42611   0.00000  Uiso   1.00
H509   H     0.04923   0.11076   0.37859   0.00000  Uiso   1.00
H510   H     0.04923   0.38924   0.62141   0.00000  Uiso   1.00
H511   H     0.45077   0.38924   0.37859   0.00000  Uiso   1.00
H512   H     0.09900   0.34515   0.57389   0.00000  Uiso   1.00
H513   H     0.45077   0.11076   0.62141   0.00000  Uiso   1.00
H514   H     0.29923   0.36076   0.37859   0.00000  Uiso   1.00
H515   H     0.29923   0.13924   0.62141   0.00000  Uiso   1.00
H516   H     0.20076   0.13924   0.37859   0.00000  Uiso   1.00
H517   H     0.20077   0.36076   0.62141   0.00000  Uiso   1.00
H518   H     0.09732   0.34672   0.42497   0.00000  Uiso   1.00
H519   H     0.40100   0.15485   0.57389   0.00000  Uiso   1.00
H520   H     0.09732   0.15328   0.57503   0.00000  Uiso   1.00
H521   H     0.40100   0.34515   0.42611   0.00000  Uiso   1.00
H522   H     0.40268   0.34672   0.57503   0.00000  Uiso   1.00
H523   H     0.09901   0.15485   0.42611   0.00000  Uiso   1.00
H524   H     0.15268   0.40328   0.42497   0.00000  Uiso   1.00
N525   N     0.00000   0.25000   0.61736   0.00000  Uiso   1.00
N526   N     0.00000   0.25000   0.38264   0.00000  Uiso   1.00
N527   N     0.25000   0.00000   0.61736   0.00000  Uiso   1.00
N528   N     0.25000   0.00000   0.38264   0.00000  Uiso   1.00
O529   O     0.04509   0.20491   0.53958   0.00000  Uiso   1.00
O530   O     0.20492   0.04509   0.46042   0.00000  Uiso   1.00
O531   O     0.20492   0.04509   0.53958   0.00000  Uiso   1.00
O532   O     0.29509   0.45491   0.46042   0.00000  Uiso   1.00
O533   O     0.20492   0.45491   0.46042   0.00000  Uiso   1.00
O534   O     0.29509   0.04509   0.53958   0.00000  Uiso   1.00
O535   O     0.29509   0.04509   0.46042   0.00000  Uiso   1.00
O536   O     0.20492   0.45491   0.53958   0.00000  Uiso   1.00
O537   O     0.48828   0.14905   0.40776   0.00000  Uiso   1.00
O538   O     0.04687   0.14172   0.36377   0.00000  Uiso   1.00
O539   O     0.48828   0.35095   0.59224   0.00000  Uiso   1.00
O540   O     0.45492   0.29509   0.46042   0.00000  Uiso   1.00
O541   O     0.04687   0.35828   0.63623   0.00000  Uiso   1.00
O542   O     0.01172   0.35095   0.40776   0.00000  Uiso   1.00
O543   O     0.45313   0.35828   0.36377   0.00000  Uiso   1.00
O544   O     0.01172   0.14905   0.59224   0.00000  Uiso   1.00
O545   O     0.45314   0.14172   0.63623   0.00000  Uiso   1.00
O546   O     0.23829   0.39905   0.40776   0.00000  Uiso   1.00
O547   O     0.29687   0.39172   0.36377   0.00000  Uiso   1.00
O548   O     0.23828   0.10095   0.59224   0.00000  Uiso   1.00
O549   O     0.29687   0.10828   0.63623   0.00000  Uiso   1.00
O550   O     0.26171   0.10095   0.40776   0.00000  Uiso   1.00
O551   O     0.45492   0.29509   0.53958   0.00000  Uiso   1.00
O552   O     0.20313   0.10828   0.36376   0.00000  Uiso   1.00
O553   O     0.26172   0.39905   0.59224   0.00000  Uiso   1.00
O554   O     0.20313   0.39172   0.63623   0.00000  Uiso   1.00
O555   O     0.04509   0.20491   0.46042   0.00000  Uiso   1.00
O556   O     0.45492   0.20491   0.46042   0.00000  Uiso   1.00
O557   O     0.04509   0.29509   0.53958   0.00000  Uiso   1.00
O558   O     0.04509   0.29509   0.46042   0.00000  Uiso   1.00
O559   O     0.45492   0.20491   0.53958   0.00000  Uiso   1.00
O560   O     0.29509   0.45491   0.53958   0.00000  Uiso   1.00
C561   C     0.55958   0.19088   0.50007   0.00000  Uiso   1.00
C562   C     0.50207   0.28974   0.64217   0.00000  Uiso   1.00
C563   C     0.99793   0.28974   0.35783   0.00000  Uiso   1.00
C564   C     0.99793   0.21026   0.64217   0.00000  Uiso   1.00
C565   C     0.75207   0.46026   0.35783   0.00000  Uiso   1.00
C566   C     0.75207   0.03974   0.64217   0.00000  Uiso   1.00
C567   C     0.74793   0.03974   0.35783   0.00000  Uiso   1.00
C568   C     0.74793   0.46026   0.64217   0.00000  Uiso   1.00
C569   C     0.89083   0.14117   0.45772   0.00000  Uiso   1.00
C570   C     0.60970   0.35836   0.54129   0.00000  Uiso   1.00
C571   C     0.60917   0.35883   0.45772   0.00000  Uiso   1.00
C572   C     0.94042   0.30912   0.50007   0.00000  Uiso   1.00
C573   C     0.89030   0.14164   0.54129   0.00000  Uiso   1.00
C574   C     0.60917   0.14117   0.54228   0.00000  Uiso   1.00
C575   C     0.89030   0.35836   0.45871   0.00000  Uiso   1.00
C576   C     0.89083   0.35883   0.54228   0.00000  Uiso   1.00
C577   C     0.60970   0.14164   0.45871   0.00000  Uiso   1.00
C578   C     0.64083   0.39117   0.45772   0.00000  Uiso   1.00
C579   C     0.85970   0.10836   0.54129   0.00000  Uiso   1.00
C580   C     0.85917   0.10883   0.45772   0.00000  Uiso   1.00
C581   C     0.64030   0.39164   0.54129   0.00000  Uiso   1.00
C582   C     0.85917   0.39117   0.54228   0.00000  Uiso   1.00
C583   C     0.94042   0.19088   0.49993   0.00000  Uiso   1.00
C584   C     0.64030   0.10836   0.45871   0.00000  Uiso   1.00
C585   C     0.64083   0.10883   0.54228   0.00000  Uiso   1.00
C586   C     0.85970   0.39164   0.45871   0.00000  Uiso   1.00
C587   C     0.59334   0.34238   0.49961   0.00000  Uiso   1.00
C588   C     0.90666   0.15762   0.49961   0.00000  Uiso   1.00
C589   C     0.90666   0.34238   0.50039   0.00000  Uiso   1.00
C590   C     0.59334   0.15762   0.50039   0.00000  Uiso   1.00
C591   C     0.84334   0.09238   0.49961   0.00000  Uiso   1.00
C592   C     0.65666   0.40762   0.49961   0.00000  Uiso   1.00
C593   C     0.65666   0.09238   0.50039   0.00000  Uiso   1.00
C594   C     0.55958   0.30912   0.49993   0.00000  Uiso   1.00
C595   C     0.84334   0.40762   0.50039   0.00000  Uiso   1.00
C596   C     0.51213   0.16625   0.37987   0.00000  Uiso   1.00
C597   C     0.51213   0.33375   0.62013   0.00000  Uiso   1.00
C598   C     0.98787   0.33375   0.37988   0.00000  Uiso   1.00
C599   C     0.98787   0.16625   0.62013   0.00000  Uiso   1.00
C600   C     0.76213   0.41625   0.37987   0.00000  Uiso   1.00
C601   C     0.76213   0.08375   0.62013   0.00000  Uiso   1.00
C602   C     0.73787   0.08375   0.37987   0.00000  Uiso   1.00
C603   C     0.73787   0.41625   0.62013   0.00000  Uiso   1.00
C604   C     0.80958   0.44088   0.50007   0.00000  Uiso   1.00
C605   C     0.69042   0.05912   0.50007   0.00000  Uiso   1.00
C606   C     0.69042   0.44088   0.49993   0.00000  Uiso   1.00
C607   C     0.80958   0.05912   0.49993   0.00000  Uiso   1.00
C608   C     0.50207   0.21026   0.35783   0.00000  Uiso   1.00
Cu609  Cu    0.50000   0.25000   0.54689   0.00000  Uiso   1.00
Cu610  Cu    0.50000   0.25000   0.45311   0.00000  Uiso   1.00
Cu611  Cu    0.75000   0.00000   0.54689   0.00000  Uiso   1.00
Cu612  Cu    0.75000   0.00000   0.45311   0.00000  Uiso   1.00
H613   H     0.90268   0.15328   0.42497   0.00000  Uiso   1.00
H614   H     0.84900   0.09515   0.57389   0.00000  Uiso   1.00
H615   H     0.84732   0.09672   0.42497   0.00000  Uiso   1.00
H616   H     0.65100   0.40485   0.57389   0.00000  Uiso   1.00
H617   H     0.84732   0.40328   0.57503   0.00000  Uiso   1.00
H618   H     0.65100   0.09515   0.42611   0.00000  Uiso   1.00
H619   H     0.65268   0.09672   0.57503   0.00000  Uiso   1.00
H620   H     0.84900   0.40485   0.42611   0.00000  Uiso   1.00
H621   H     0.54923   0.11076   0.37859   0.00000  Uiso   1.00
H622   H     0.54923   0.38924   0.62141   0.00000  Uiso   1.00
H623   H     0.95077   0.38924   0.37859   0.00000  Uiso   1.00
H624   H     0.59900   0.34515   0.57389   0.00000  Uiso   1.00
H625   H     0.95077   0.11076   0.62141   0.00000  Uiso   1.00
H626   H     0.79923   0.36076   0.37859   0.00000  Uiso   1.00
H627   H     0.79923   0.13924   0.62141   0.00000  Uiso   1.00
H628   H     0.70076   0.13924   0.37859   0.00000  Uiso   1.00
H629   H     0.70077   0.36076   0.62141   0.00000  Uiso   1.00
H630   H     0.59732   0.34672   0.42497   0.00000  Uiso   1.00
H631   H     0.90100   0.15485   0.57389   0.00000  Uiso   1.00
H632   H     0.59732   0.15328   0.57503   0.00000  Uiso   1.00
H633   H     0.90100   0.34515   0.42611   0.00000  Uiso   1.00
H634   H     0.90268   0.34672   0.57503   0.00000  Uiso   1.00
H635   H     0.59901   0.15485   0.42611   0.00000  Uiso   1.00
H636   H     0.65268   0.40328   0.42497   0.00000  Uiso   1.00
N637   N     0.50000   0.25000   0.61736   0.00000  Uiso   1.00
N638   N     0.50000   0.25000   0.38264   0.00000  Uiso   1.00
N639   N     0.75000   0.00000   0.61736   0.00000  Uiso   1.00
N640   N     0.75000   0.00000   0.38264   0.00000  Uiso   1.00
O641   O     0.54509   0.20491   0.53958   0.00000  Uiso   1.00
O642   O     0.70492   0.04509   0.46042   0.00000  Uiso   1.00
O643   O     0.70492   0.04509   0.53958   0.00000  Uiso   1.00
O644   O     0.79509   0.45491   0.46042   0.00000  Uiso   1.00
O645   O     0.70492   0.45491   0.46042   0.00000  Uiso   1.00
O646   O     0.79509   0.04509   0.53958   0.00000  Uiso   1.00
O647   O     0.79509   0.04509   0.46042   0.00000  Uiso   1.00
O648   O     0.70492   0.45491   0.53958   0.00000  Uiso   1.00
O649   O     0.98828   0.14905   0.40776   0.00000  Uiso   1.00
O650   O     0.54687   0.14172   0.36377   0.00000  Uiso   1.00
O651   O     0.98828   0.35095   0.59224   0.00000  Uiso   1.00
O652   O     0.95492   0.29509   0.46042   0.00000  Uiso   1.00
O653   O     0.54687   0.35828   0.63623   0.00000  Uiso   1.00
O654   O     0.51172   0.35095   0.40776   0.00000  Uiso   1.00
O655   O     0.95313   0.35828   0.36377   0.00000  Uiso   1.00
O656   O     0.51172   0.14905   0.59224   0.00000  Uiso   1.00
O657   O     0.95314   0.14172   0.63623   0.00000  Uiso   1.00
O658   O     0.73829   0.39905   0.40776   0.00000  Uiso   1.00
O659   O     0.79687   0.39172   0.36377   0.00000  Uiso   1.00
O660   O     0.73828   0.10095   0.59224   0.00000  Uiso   1.00
O661   O     0.79687   0.10828   0.63623   0.00000  Uiso   1.00
O662   O     0.76171   0.10095   0.40776   0.00000  Uiso   1.00
O663   O     0.95492   0.29509   0.53958   0.00000  Uiso   1.00
O664   O     0.70313   0.10828   0.36376   0.00000  Uiso   1.00
O665   O     0.76172   0.39905   0.59224   0.00000  Uiso   1.00
O666   O     0.70313   0.39172   0.63623   0.00000  Uiso   1.00
O667   O     0.54509   0.20491   0.46042   0.00000  Uiso   1.00
O668   O     0.95492   0.20491   0.46042   0.00000  Uiso   1.00
O669   O     0.54509   0.29509   0.53958   0.00000  Uiso   1.00
O670   O     0.54509   0.29509   0.46042   0.00000  Uiso   1.00
O671   O     0.95492   0.20491   0.53958   0.00000  Uiso   1.00
O672   O     0.79509   0.45491   0.53958   0.00000  Uiso   1.00
C673   C     0.05958   0.69088   0.50007   0.00000  Uiso   1.00
C674   C     0.00207   0.78974   0.64217   0.00000  Uiso   1.00
C675   C     0.49793   0.78974   0.35783   0.00000  Uiso   1.00
C676   C     0.49793   0.71026   0.64217   0.00000  Uiso   1.00
C677   C     0.25207   0.96026   0.35783   0.00000  Uiso   1.00
C678   C     0.25207   0.53974   0.64217   0.00000  Uiso   1.00
C679   C     0.24793   0.53974   0.35783   0.00000  Uiso   1.00
C680   C     0.24793   0.96026   0.64217   0.00000  Uiso   1.00
C681   C     0.39083   0.64117   0.45772   0.00000  Uiso   1.00
C682   C     0.10970   0.85836   0.54129   0.00000  Uiso   1.00
C683   C     0.10917   0.85883   0.45772   0.00000  Uiso   1.00
C684   C     0.44042   0.80912   0.50007   0.00000  Uiso   1.00
C685   C     0.39030   0.64164   0.54129   0.00000  Uiso   1.00
C686   C     0.10917   0.64117   0.54228   0.00000  Uiso   1.00
C687   C     0.39030   0.85836   0.45871   0.00000  Uiso   1.00
C688   C     0.39083   0.85883   0.54228   0.00000  Uiso   1.00
C689   C     0.10970   0.64164   0.45871   0.00000  Uiso   1.00
C690   C     0.14083   0.89117   0.45772   0.00000  Uiso   1.00
C691   C     0.35970   0.60836   0.54129   0.00000  Uiso   1.00
C692   C     0.35917   0.60883   0.45772   0.00000  Uiso   1.00
C693   C     0.14030   0.89164   0.54129   0.00000  Uiso   1.00
C694   C     0.35917   0.89117   0.54228   0.00000  Uiso   1.00
C695   C     0.44042   0.69088   0.49993   0.00000  Uiso   1.00
C696   C     0.14030   0.60836   0.45871   0.00000  Uiso   1.00
C697   C     0.14083   0.60883   0.54228   0.00000  Uiso   1.00
C698   C     0.35970   0.89164   0.45871   0.00000  Uiso   1.00
C699   C     0.09334   0.84238   0.49961   0.00000  Uiso   1.00
C700   C     0.40666   0.65762   0.49961   0.00000  Uiso   1.00
C701   C     0.40666   0.84238   0.50039   0.00000  Uiso   1.00
C702   C     0.09334   0.65762   0.50039   0.00000  Uiso   1.00
C703   C     0.34334   0.59238   0.49961   0.00000  Uiso   1.00
C704   C     0.15666   0.90762   0.49961   0.00000  Uiso   1.00
C705   C     0.15666   0.59238   0.50039   0.00000  Uiso   1.00
C706   C     0.05958   0.80912   0.49993   0.00000  Uiso   1.00
C707   C     0.34334   0.90762   0.50039   0.00000  Uiso   1.00
C708   C     0.01213   0.66625   0.37987   0.00000  Uiso   1.00
C709   C     0.01213   0.83375   0.62013   0.00000  Uiso   1.00
C710   C     0.48787   0.83375   0.37988   0.00000  Uiso   1.00
C711   C     0.48787   0.66625   0.62013   0.00000  Uiso   1.00
C712   C     0.26213   0.91625   0.37987   0.00000  Uiso   1.00
C713   C     0.26213   0.58375   0.62013   0.00000  Uiso   1.00
C714   C     0.23787   0.58375   0.37987   0.00000  Uiso   1.00
C715   C     0.23787   0.91625   0.62013   0.00000  Uiso   1.00
C716   C     0.30958   0.94088   0.50007   0.00000  Uiso   1.00
C717   C     0.19042   0.55912   0.50007   0.00000  Uiso   1.00
C718   C     0.19042   0.94088   0.49993   0.00000  Uiso   1.00
C719   C     0.30958   0.55912   0.49993   0.00000  Uiso   1.00
C720   C     0.00207   0.71026   0.35783   0.00000  Uiso   1.00
Cu721  Cu    0.00000   0.75000   0.54689   0.00000  Uiso   1.00
Cu722  Cu    0.00000   0.75000   0.45311   0.00000  Uiso   1.00
Cu723  Cu    0.25000   0.50000   0.54689   0.00000  Uiso   1.00
Cu724  Cu    0.25000   0.50000   0.45311   0.00000  Uiso   1.00
H725   H     0.40268   0.65328   0.42497   0.00000  Uiso   1.00
H726   H     0.34900   0.59515   0.57389   0.00000  Uiso   1.00
H727   H     0.34732   0.59672   0.42497   0.00000  Uiso   1.00
H728   H     0.15100   0.90485   0.57389   0.00000  Uiso   1.00
H729   H     0.34732   0.90328   0.57503   0.00000  Uiso   1.00
H730   H     0.15100   0.59515   0.42611   0.00000  Uiso   1.00
H731   H     0.15268   0.59672   0.57503   0.00000  Uiso   1.00
H732   H     0.34900   0.90485   0.42611   0.00000  Uiso   1.00
H733   H     0.04923   0.61076   0.37859   0.00000  Uiso   1.00
H734   H     0.04923   0.88924   0.62141   0.00000  Uiso   1.00
H735   H     0.45077   0.88924   0.37859   0.00000  Uiso   1.00
H736   H     0.09900   0.84515   0.57389   0.00000  Uiso   1.00
H737   H     0.45077   0.61076   0.62141   0.00000  Uiso   1.00
H738   H     0.29923   0.86076   0.37859   0.00000  Uiso   1.00
H739   H     0.29923   0.63924   0.62141   0.00000  Uiso   1.00
H740   H     0.20076   0.63924   0.37859   0.00000  Uiso   1.00
H741   H     0.20077   0.86076   0.62141   0.00000  Uiso   1.00
H742   H     0.09732   0.84672   0.42497   0.00000  Uiso   1.00
H743   H     0.40100   0.65485   0.57389   0.00000  Uiso   1.00
H744   H     0.09732   0.65328   0.57503   0.00000  Uiso   1.00
H745   H     0.40100   0.84515   0.42611   0.00000  Uiso   1.00
H746   H     0.40268   0.84672   0.57503   0.00000  Uiso   1.00
H747   H     0.09901   0.65485   0.42611   0.00000  Uiso   1.00
H748   H     0.15268   0.90328   0.42497   0.00000  Uiso   1.00
N749   N     0.00000   0.75000   0.61736   0.00000  Uiso   1.00
N750   N     0.00000   0.75000   0.38264   0.00000  Uiso   1.00
N751   N     0.25000   0.50000   0.61736   0.00000  Uiso   1.00
N752   N     0.25000   0.50000   0.38264   0.00000  Uiso   1.00
O753   O     0.04509   0.70491   0.53958   0.00000  Uiso   1.00
O754   O     0.20492   0.54509   0.46042   0.00000  Uiso   1.00
O755   O     0.20492   0.54509   0.53958   0.00000  Uiso   1.00
O756   O     0.29509   0.95491   0.46042   0.00000  Uiso   1.00
O757   O     0.20492   0.95491   0.46042   0.00000  Uiso   1.00
O758   O     0.29509   0.54509   0.53958   0.00000  Uiso   1.00
O759   O     0.29509   0.54509   0.46042   0.00000  Uiso   1.00
O760   O     0.20492   0.95491   0.53958   0.00000  Uiso   1.00
O761   O     0.48828   0.64905   0.40776   0.00000  Uiso   1.00
O762   O     0.04687   0.64172   0.36377   0.00000  Uiso   1.00
O763   O     0.48828   0.85095   0.59224   0.00000  Uiso   1.00
O764   O     0.45492   0.79509   0.46042   0.00000  Uiso   1.00
O765   O     0.04687   0.85828   0.63623   0.00000  Uiso   1.00
O766   O     0.01172   0.85095   0.40776   0.00000  Uiso   1.00
O767   O     0.45313   0.85828   0.36377   0.00000  Uiso   1.00
O768   O     0.01172   0.64905   0.59224   0.00000  Uiso   1.00
O769   O     0.45314   0.64172   0.63623   0.00000  Uiso   1.00
O770   O     0.23829   0.89905   0.40776   0.00000  Uiso   1.00
O771   O     0.29687   0.89172   0.36377   0.00000  Uiso   1.00
O772   O     0.23828   0.60095   0.59224   0.00000  Uiso   1.00
O773   O     0.29687   0.60828   0.63623   0.00000  Uiso   1.00
O774   O     0.26171   0.60095   0.40776   0.00000  Uiso   1.00
O775   O     0.45492   0.79509   0.53958   0.00000  Uiso   1.00
O776   O     0.20313   0.60828   0.36376   0.00000  Uiso   1.00
O777   O     0.26172   0.89905   0.59224   0.00000  Uiso   1.00
O778   O     0.20313   0.89172   0.63623   0.00000  Uiso   1.00
O779   O     0.04509   0.70491   0.46042   0.00000  Uiso   1.00
O780   O     0.45492   0.70491   0.46042   0.00000  Uiso   1.00
O781   O     0.04509   0.79509   0.53958   0.00000  Uiso   1.00
O782   O     0.04509   0.79509   0.46042   0.00000  Uiso   1.00
O783   O     0.45492   0.70491   0.53958   0.00000  Uiso   1.00
O784   O     0.29509   0.95491   0.53958   0.00000  Uiso   1.00
C785   C     0.55958   0.69088   0.50007   0.00000  Uiso   1.00
C786   C     0.50207   0.78974   0.64217   0.00000  Uiso   1.00
C787   C     0.99793   0.78974   0.35783   0.00000  Uiso   1.00
C788   C     0.99793   0.71026   0.64217   0.00000  Uiso   1.00
C789   C     0.75207   0.96026   0.35783   0.00000  Uiso   1.00
C790   C     0.75207   0.53974   0.64217   0.00000  Uiso   1.00
C791   C     0.74793   0.53974   0.35783   0.00000  Uiso   1.00
C792   C     0.74793   0.96026   0.64217   0.00000  Uiso   1.00
C793   C     0.89083   0.64117   0.45772   0.00000  Uiso   1.00
C794   C     0.60970   0.85836   0.54129   0.00000  Uiso   1.00
C795   C     0.60917   0.85883   0.45772   0.00000  Uiso   1.00
C796   C     0.94042   0.80912   0.50007   0.00000  Uiso   1.00
C797   C     0.89030   0.64164   0.54129   0.00000  Uiso   1.00
C798   C     0.60917   0.64117   0.54228   0.00000  Uiso   1.00
C799   C     0.89030   0.85836   0.45871   0.00000  Uiso   1.00
C800   C     0.89083   0.85883   0.54228   0.00000  Uiso   1.00
C801   C     0.60970   0.64164   0.45871   0.00000  Uiso   1.00
C802   C     0.64083   0.89117   0.45772   0.00000  Uiso   1.00
C803   C     0.85970   0.60836   0.54129   0.00000  Uiso   1.00
C804   C     0.85917   0.60883   0.45772   0.00000  Uiso   1.00
C805   C     0.64030   0.89164   0.54129   0.00000  Uiso   1.00
C806   C     0.85917   0.89117   0.54228   0.00000  Uiso   1.00
C807   C     0.94042   0.69088   0.49993   0.00000  Uiso   1.00
C808   C     0.64030   0.60836   0.45871   0.00000  Uiso   1.00
C809   C     0.64083   0.60883   0.54228   0.00000  Uiso   1.00
C810   C     0.85970   0.89164   0.45871   0.00000  Uiso   1.00
C811   C     0.59334   0.84238   0.49961   0.00000  Uiso   1.00
C812   C     0.90666   0.65762   0.49961   0.00000  Uiso   1.00
C813   C     0.90666   0.84238   0.50039   0.00000  Uiso   1.00
C814   C     0.59334   0.65762   0.50039   0.00000  Uiso   1.00
C815   C     0.84334   0.59238   0.49961   0.00000  Uiso   1.00
C816   C     0.65666   0.90762   0.49961   0.00000  Uiso   1.00
C817   C     0.65666   0.59238   0.50039   0.00000  Uiso   1.00
C818   C     0.55958   0.80912   0.49993   0.00000  Uiso   1.00
C819   C     0.84334   0.90762   0.50039   0.00000  Uiso   1.00
C820   C     0.51213   0.66625   0.37987   0.00000  Uiso   1.00
C821   C     0.51213   0.83375   0.62013   0.00000  Uiso   1.00
C822   C     0.98787   0.83375   0.37988   0.00000  Uiso   1.00
C823   C     0.98787   0.66625   0.62013   0.00000  Uiso   1.00
C824   C     0.76213   0.91625   0.37987   0.00000  Uiso   1.00
C825   C     0.76213   0.58375   0.62013   0.00000  Uiso   1.00
C826   C     0.73787   0.58375   0.37987   0.00000  Uiso   1.00
C827   C     0.73787   0.91625   0.62013   0.00000  Uiso   1.00
C828   C     0.80958   0.94088   0.50007   0.00000  Uiso   1.00
C829   C     0.69042   0.55912   0.50007   0.00000  Uiso   1.00
C830   C     0.69042   0.94088   0.49993   0.00000  Uiso   1.00
C831   C     0.80958   0.55912   0.49993   0.00000  Uiso   1.00
C832   C     0.50207   0.71026   0.35783   0.00000  Uiso   1.00
Cu833  Cu    0.50000   0.75000   0.54689   0.00000  Uiso   1.00
Cu834  Cu    0.50000   0.75000   0.45311   0.00000  Uiso   1.00
Cu835  Cu    0.75000   0.50000   0.54689   0.00000  Uiso   1.00
Cu836  Cu    0.75000   0.50000   0.45311   0.00000  Uiso   1.00
H837   H     0.90268   0.65328   0.42497   0.00000  Uiso   1.00
H838   H     0.84900   0.59515   0.57389   0.00000  Uiso   1.00
H839   H     0.84732   0.59672   0.42497   0.00000  Uiso   1.00
H840   H     0.65100   0.90485   0.57389   0.00000  Uiso   1.00
H841   H     0.84732   0.90328   0.57503   0.00000  Uiso   1.00
H842   H     0.65100   0.59515   0.42611   0.00000  Uiso   1.00
H843   H     0.65268   0.59672   0.57503   0.00000  Uiso   1.00
H844   H     0.84900   0.90485   0.42611   0.00000  Uiso   1.00
H845   H     0.54923   0.61076   0.37859   0.00000  Uiso   1.00
H846   H     0.54923   0.88924   0.62141   0.00000  Uiso   1.00
H847   H     0.95077   0.88924   0.37859   0.00000  Uiso   1.00
H848   H     0.59900   0.84515   0.57389   0.00000  Uiso   1.00
H849   H     0.95077   0.61076   0.62141   0.00000  Uiso   1.00
H850   H     0.79923   0.86076   0.37859   0.00000  Uiso   1.00
H851   H     0.79923   0.63924   0.62141   0.00000  Uiso   1.00
H852   H     0.70076   0.63924   0.37859   0.00000  Uiso   1.00
H853   H     0.70077   0.86076   0.62141   0.00000  Uiso   1.00
H854   H     0.59732   0.84672   0.42497   0.00000  Uiso   1.00
H855   H     0.90100   0.65485   0.57389   0.00000  Uiso   1.00
H856   H     0.59732   0.65328   0.57503   0.00000  Uiso   1.00
H857   H     0.90100   0.84515   0.42611   0.00000  Uiso   1.00
H858   H     0.90268   0.84672   0.57503   0.00000  Uiso   1.00
H859   H     0.59901   0.65485   0.42611   0.00000  Uiso   1.00
H860   H     0.65268   0.90328   0.42497   0.00000  Uiso   1.00
N861   N     0.50000   0.75000   0.61736   0.00000  Uiso   1.00
N862   N     0.50000   0.75000   0.38264   0.00000  Uiso   1.00
N863   N     0.75000   0.50000   0.61736   0.00000  Uiso   1.00
N864   N     0.75000   0.50000   0.38264   0.00000  Uiso   1.00
O865   O     0.54509   0.70491   0.53958   0.00000  Uiso   1.00
O866   O     0.70492   0.54509   0.46042   0.00000  Uiso   1.00
O867   O     0.70492   0.54509   0.53958   0.00000  Uiso   1.00
O868   O     0.79509   0.95491   0.46042   0.00000  Uiso   1.00
O869   O     0.70492   0.95491   0.46042   0.00000  Uiso   1.00
O870   O     0.79509   0.54509   0.53958   0.00000  Uiso   1.00
O871   O     0.79509   0.54509   0.46042   0.00000  Uiso   1.00
O872   O     0.70492   0.95491   0.53958   0.00000  Uiso   1.00
O873   O     0.98828   0.64905   0.40776   0.00000  Uiso   1.00
O874   O     0.54687   0.64172   0.36377   0.00000  Uiso   1.00
O875   O     0.98828   0.85095   0.59224   0.00000  Uiso   1.00
O876   O     0.95492   0.79509   0.46042   0.00000  Uiso   1.00
O877   O     0.54687   0.85828   0.63623   0.00000  Uiso   1.00
O878   O     0.51172   0.85095   0.40776   0.00000  Uiso   1.00
O879   O     0.95313   0.85828   0.36377   0.00000  Uiso   1.00
O880   O     0.51172   0.64905   0.59224   0.00000  Uiso   1.00
O881   O     0.95314   0.64172   0.63623   0.00000  Uiso   1.00
O882   O     0.73829   0.89905   0.40776   0.00000  Uiso   1.00
O883   O     0.79687   0.89172   0.36377   0.00000  Uiso   1.00
O884   O     0.73828   0.60095   0.59224   0.00000  Uiso   1.00
O885   O     0.79687   0.60828   0.63623   0.00000  Uiso   1.00
O886   O     0.76171   0.60095   0.40776   0.00000  Uiso   1.00
O887   O     0.95492   0.79509   0.53958   0.00000  Uiso   1.00
O888   O     0.70313   0.60828   0.36376   0.00000  Uiso   1.00
O889   O     0.76172   0.89905   0.59224   0.00000  Uiso   1.00
O890   O     0.70313   0.89172   0.63623   0.00000  Uiso   1.00
O891   O     0.54509   0.70491   0.46042   0.00000  Uiso   1.00
O892   O     0.95492   0.70491   0.46042   0.00000  Uiso   1.00
O893   O     0.54509   0.79509   0.53958   0.00000  Uiso   1.00
O894   O     0.54509   0.79509   0.46042   0.00000  Uiso   1.00
O895   O     0.95492   0.70491   0.53958   0.00000  Uiso   1.00
O896   O     0.79509   0.95491   0.53958   0.00000  Uiso   1.00
C897   C     0.05958   0.19088   0.83340   0.00000  Uiso   1.00
C898   C     0.00207   0.28974   0.97551   0.00000  Uiso   1.00
C899   C     0.49793   0.28974   0.69116   0.00000  Uiso   1.00
C900   C     0.49793   0.21026   0.97551   0.00000  Uiso   1.00
C901   C     0.25207   0.46026   0.69116   0.00000  Uiso   1.00
C902   C     0.25207   0.03974   0.97551   0.00000  Uiso   1.00
C903   C     0.24793   0.03974   0.69116   0.00000  Uiso   1.00
C904   C     0.24793   0.46026   0.97551   0.00000  Uiso   1.00
C905   C     0.39083   0.14117   0.79105   0.00000  Uiso   1.00
C906   C     0.10970   0.35836   0.87462   0.00000  Uiso   1.00
C907   C     0.10917   0.35883   0.79105   0.00000  Uiso   1.00
C908   C     0.44042   0.30912   0.83340   0.00000  Uiso   1.00
C909   C     0.39030   0.14164   0.87462   0.00000  Uiso   1.00
C910   C     0.10917   0.14117   0.87561   0.00000  Uiso   1.00
C911   C     0.39030   0.35836   0.79205   0.00000  Uiso   1.00
C912   C     0.39083   0.35883   0.87561   0.00000  Uiso   1.00
C913   C     0.10970   0.14164   0.79205   0.00000  Uiso   1.00
C914   C     0.14083   0.39117   0.79105   0.00000  Uiso   1.00
C915   C     0.35970   0.10836   0.87462   0.00000  Uiso   1.00
C916   C     0.35917   0.10883   0.79105   0.00000  Uiso   1.00
C917   C     0.14030   0.39164   0.87462   0.00000  Uiso   1.00
C918   C     0.35917   0.39117   0.87561   0.00000  Uiso   1.00
C919   C     0.44042   0.19088   0.83326   0.00000  Uiso   1.00
C920   C     0.14030   0.10836   0.79205   0.00000  Uiso   1.00
C921   C     0.14083   0.10883   0.87561   0.00000  Uiso   1.00
C922   C     0.35970   0.39164   0.79205   0.00000  Uiso   1.00
C923   C     0.09334   0.34238   0.83295   0.00000  Uiso   1.00
C924   C     0.40666   0.15762   0.83295   0.00000  Uiso   1.00
C925   C     0.40666   0.34238   0.83372   0.00000  Uiso   1.00
C926   C     0.09334   0.15762   0.83372   0.00000  Uiso   1.00
C927   C     0.34334   0.09238   0.83295   0.00000  Uiso   1.00
C928   C     0.15666   0.40762   0.83295   0.00000  Uiso   1.00
C929   C     0.15666   0.09238   0.83372   0.00000  Uiso   1.00
C930   C     0.05958   0.30912   0.83326   0.00000  Uiso   1.00
C931   C     0.34334   0.40762   0.83372   0.00000  Uiso   1.00
C932   C     0.01213   0.16625   0.71321   0.00000  Uiso   1.00
C933   C     0.01213   0.33375   0.95346   0.00000  Uiso   1.00
C934   C     0.48787   0.33375   0.71321   0.00000  Uiso   1.00
C935   C     0.48787   0.16625   0.95346   0.00000  Uiso   1.00
C936   C     0.26213   0.41625   0.71321   0.00000  Uiso   1.00
C937   C     0.26213   0.08375   0.95346   0.00000  Uiso   1.00
C938   C     0.23787   0.08375   0.71321   0.00000  Uiso   1.00
C939   C     0.23787   0.41625   0.95346   0.00000  Uiso   1.00
C940   C     0.30958   0.44088   0.83340   0.00000  Uiso   1.00
C941   C     0.19042   0.05912   0.83340   0.00000  Uiso   1.00
C942   C     0.19042   0.44088   0.83326   0.00000  Uiso   1.00
C943   C     0.30958   0.05912   0.83326   0.00000  Uiso   1.00
C944   C     0.00207   0.21026   0.69116   0.00000  Uiso   1.00
Cu945  Cu    0.00000   0.25000   0.88022   0.00000  Uiso   1.00
Cu946  Cu    0.00000   0.25000   0.78645   0.00000  Uiso   1.00
Cu947  Cu    0.25000   0.00000   0.88022   0.00000  Uiso   1.00
Cu948  Cu    0.25000   0.00000   0.78645   0.00000  Uiso   1.00
H949   H     0.40268   0.15328   0.75830   0.00000  Uiso   1.00
H950   H     0.34900   0.09515   0.90722   0.00000  Uiso   1.00
H951   H     0.34732   0.09672   0.75830   0.00000  Uiso   1.00
H952   H     0.15100   0.40485   0.90722   0.00000  Uiso   1.00
H953   H     0.34732   0.40328   0.90836   0.00000  Uiso   1.00
H954   H     0.15100   0.09515   0.75944   0.00000  Uiso   1.00
H955   H     0.15268   0.09672   0.90836   0.00000  Uiso   1.00
H956   H     0.34900   0.40485   0.75944   0.00000  Uiso   1.00
H957   H     0.04923   0.11076   0.71192   0.00000  Uiso   1.00
H958   H     0.04923   0.38924   0.95475   0.00000  Uiso   1.00
H959   H     0.45077   0.38924   0.71192   0.00000  Uiso   1.00
H960   H     0.09900   0.34515   0.90722   0.00000  Uiso   1.00
H961   H     0.45077   0.11076   0.95474   0.00000  Uiso   1.00
H962   H     0.29923   0.36076   0.71192   0.00000  Uiso   1.00
H963   H     0.29923   0.13924   0.95475   0.00000  Uiso   1.00
H964   H     0.20076   0.13924   0.71192   0.00000  Uiso   1.00
H965   H     0.20077   0.36076   0.95475   0.00000  Uiso   1.00
H966   H     0.09732   0.34672   0.75830   0.00000  Uiso   1.00
H967   H     0.40100   0.15485   0.90722   0.00000  Uiso   1.00
H968   H     0.09732   0.15328   0.90836   0.00000  Uiso   1.00
H969   H     0.40100   0.34515   0.75944   0.00000  Uiso   1.00
H970   H     0.40268   0.34672   0.90836   0.00000  Uiso   1.00
H971   H     0.09901   0.15485   0.75944   0.00000  Uiso   1.00
H972   H     0.15268   0.40328   0.75830   0.00000  Uiso   1.00
N973   N     0.00000   0.25000   0.95069   0.00000  Uiso   1.00
N974   N     0.00000   0.25000   0.71598   0.00000  Uiso   1.00
N975   N     0.25000   0.00000   0.95069   0.00000  Uiso   1.00
N976   N     0.25000   0.00000   0.71598   0.00000  Uiso   1.00
O977   O     0.04509   0.20491   0.87291   0.00000  Uiso   1.00
O978   O     0.20492   0.04509   0.79375   0.00000  Uiso   1.00
O979   O     0.20492   0.04509   0.87291   0.00000  Uiso   1.00
O980   O     0.29509   0.45491   0.79375   0.00000  Uiso   1.00
O981   O     0.20492   0.45491   0.79375   0.00000  Uiso   1.00
O982   O     0.29509   0.04509   0.87291   0.00000  Uiso   1.00
O983   O     0.29509   0.04509   0.79375   0.00000  Uiso   1.00
O984   O     0.20492   0.45491   0.87291   0.00000  Uiso   1.00
O985   O     0.48828   0.14905   0.74109   0.00000  Uiso   1.00
O986   O     0.04687   0.14172   0.69710   0.00000  Uiso   1.00
O987   O     0.48828   0.35095   0.92558   0.00000  Uiso   1.00
O988   O     0.45492   0.29509   0.79375   0.00000  Uiso   1.00
O989   O     0.04687   0.35828   0.96957   0.00000  Uiso   1.00
O990   O     0.01172   0.35095   0.74109   0.00000  Uiso   1.00
O991   O     0.45313   0.35828   0.69710   0.00000  Uiso   1.00
O992   O     0.01172   0.14905   0.92558   0.00000  Uiso   1.00
O993   O     0.45314   0.14172   0.96956   0.00000  Uiso   1.00
O994   O     0.23829   0.39905   0.74109   0.00000  Uiso   1.00
O995   O     0.29687   0.39172   0.69710   0.00000  Uiso   1.00
O996   O     0.23828   0.10095   0.92558   0.00000  Uiso   1.00
O997   O     0.29687   0.10828   0.96957   0.00000  Uiso   1.00
O998   O     0.26171   0.10095   0.74109   0.00000  Uiso   1.00
O999   O     0.45492   0.29509   0.87291   0.00000  Uiso   1.00
O1000  O     0.20313   0.10828   0.69710   0.00000  Uiso   1.00
O1001  O     0.26172   0.39905   0.92558   0.00000  Uiso   1.00
O1002  O     0.20313   0.39172   0.96957   0.00000  Uiso   1.00
O1003  O     0.04509   0.20491   0.79375   0.00000  Uiso   1.00
O1004  O     0.45492   0.20491   0.79375   0.00000  Uiso   1.00
O1005  O     0.04509   0.29509   0.87291   0.00000  Uiso   1.00
O1006  O     0.04509   0.29509   0.79375   0.00000  Uiso   1.00
O1007  O     0.45492   0.20491   0.87291   0.00000  Uiso   1.00
O1008  O     0.29509   0.45491   0.87291   0.00000  Uiso   1.00
C1009  C     0.55958   0.19088   0.83340   0.00000  Uiso   1.00
C1010  C     0.50207   0.28974   0.97551   0.00000  Uiso   1.00
C1011  C     0.99793   0.28974   0.69116   0.00000  Uiso   1.00
C1012  C     0.99793   0.21026   0.97551   0.00000  Uiso   1.00
C1013  C     0.75207   0.46026   0.69116   0.00000  Uiso   1.00
C1014  C     0.75207   0.03974   0.97551   0.00000  Uiso   1.00
C1015  C     0.74793   0.03974   0.69116   0.00000  Uiso   1.00
C1016  C     0.74793   0.46026   0.97551   0.00000  Uiso   1.00
C1017  C     0.89083   0.14117   0.79105   0.00000  Uiso   1.00
C1018  C     0.60970   0.35836   0.87462   0.00000  Uiso   1.00
C1019  C     0.60917   0.35883   0.79105   0.00000  Uiso   1.00
C1020  C     0.94042   0.30912   0.83340   0.00000  Uiso   1.00
C1021  C     0.89030   0.14164   0.87462   0.00000  Uiso   1.00
C1022  C     0.60917   0.14117   0.87561   0.00000  Uiso   1.00
C1023  C     0.89030   0.35836   0.79205   0.00000  Uiso   1.00
C1024  C     0.89083   0.35883   0.87561   0.00000  Uiso   1.00
C1025  C     0.60970   0.14164   0.79205   0.00000  Uiso   1.00
C1026  C     0.64083   0.39117   0.79105   0.00000  Uiso   1.00
C1027  C     0.85970   0.10836   0.87462   0.00000  Uiso   1.00
C1028  C     0.85917   0.10883   0.79105   0.00000  Uiso   1.00
C1029  C     0.64030   0.39164   0.87462   0.00000  Uiso   1.00
C1030  C     0.85917   0.39117   0.87561   0.00000  Uiso   1.00
C1031  C     0.94042   0.19088   0.83326   0.00000  Uiso   1.00
C1032  C     0.64030   0.10836   0.79205   0.00000  Uiso   1.00
C1033  C     0.64083   0.10883   0.87561   0.00000  Uiso   1.00
C1034  C     0.85970   0.39164   0.79205   0.00000  Uiso   1.00
C1035  C     0.59334   0.34238   0.83295   0.00000  Uiso   1.00
C1036  C     0.90666   0.15762   0.83295   0.00000  Uiso   1.00
C1037  C     0.90666   0.34238   0.83372   0.00000  Uiso   1.00
C1038  C     0.59334   0.15762   0.83372   0.00000  Uiso   1.00
C1039  C     0.84334   0.09238   0.83295   0.00000  Uiso   1.00
C1040  C     0.65666   0.40762   0.83295   0.00000  Uiso   1.00
C1041  C     0.65666   0.09238   0.83372   0.00000  Uiso   1.00
C1042  C     0.55958   0.30912   0.83326   0.00000  Uiso   1.00
C1043  C     0.84334   0.40762   0.83372   0.00000  Uiso   1.00
C1044  C     0.51213   0.16625   0.71321   0.00000  Uiso   1.00
C1045  C     0.51213   0.33375   0.95346   0.00000  Uiso   1.00
C1046  C     0.98787   0.33375   0.71321   0.00000  Uiso   1.00
C1047  C     0.98787   0.16625   0.95346   0.00000  Uiso   1.00
C1048  C     0.76213   0.41625   0.71321   0.00000  Uiso   1.00
C1049  C     0.76213   0.08375   0.95346   0.00000  Uiso   1.00
C1050  C     0.73787   0.08375   0.71321   0.00000  Uiso   1.00
C1051  C     0.73787   0.41625   0.95346   0.00000  Uiso   1.00
C1052  C     0.80958   0.44088   0.83340   0.00000  Uiso   1.00
C1053  C     0.69042   0.05912   0.83340   0.00000  Uiso   1.00
C1054  C     0.69042   0.44088   0.83326   0.00000  Uiso   1.00
C1055  C     0.80958   0.05912   0.83326   0.00000  Uiso   1.00
C1056  C     0.50207   0.21026   0.69116   0.00000  Uiso   1.00
Cu1057 Cu    0.50000   0.25000   0.88022   0.00000  Uiso   1.00
Cu1058 Cu    0.50000   0.25000   0.78645   0.00000  Uiso   1.00
Cu1059 Cu    0.75000   0.00000   0.88022   0.00000  Uiso   1.00
Cu1060 Cu    0.75000   0.00000   0.78645   0.00000  Uiso   1.00
H1061  H     0.90268   0.15328   0.75830   0.00000  Uiso   1.00
H1062  H     0.84900   0.09515   0.90722   0.00000  Uiso   1.00
H1063  H     0.84732   0.09672   0.75830   0.00000  Uiso   1.00
H1064  H     0.65100   0.40485   0.90722   0.00000  Uiso   1.00
H1065  H     0.84732   0.40328   0.90836   0.00000  Uiso   1.00
H1066  H     0.65100   0.09515   0.75944   0.00000  Uiso   1.00
H1067  H     0.65268   0.09672   0.90836   0.00000  Uiso   1.00
H1068  H     0.84900   0.40485   0.75944   0.00000  Uiso   1.00
H1069  H     0.54923   0.11076   0.71192   0.00000  Uiso   1.00
H1070  H     0.54923   0.38924   0.95475   0.00000  Uiso   1.00
H1071  H     0.95077   0.38924   0.71192   0.00000  Uiso   1.00
H1072  H     0.59900   0.34515   0.90722   0.00000  Uiso   1.00
H1073  H     0.95077   0.11076   0.95474   0.00000  Uiso   1.00
H1074  H     0.79923   0.36076   0.71192   0.00000  Uiso   1.00
H1075  H     0.79923   0.13924   0.95475   0.00000  Uiso   1.00
H1076  H     0.70076   0.13924   0.71192   0.00000  Uiso   1.00
H1077  H     0.70077   0.36076   0.95475   0.00000  Uiso   1.00
H1078  H     0.59732   0.34672   0.75830   0.00000  Uiso   1.00
H1079  H     0.90100   0.15485   0.90722   0.00000  Uiso   1.00
H1080  H     0.59732   0.15328   0.90836   0.00000  Uiso   1.00
H1081  H     0.90100   0.34515   0.75944   0.00000  Uiso   1.00
H1082  H     0.90268   0.34672   0.90836   0.00000  Uiso   1.00
H1083  H     0.59901   0.15485   0.75944   0.00000  Uiso   1.00
H1084  H     0.65268   0.40328   0.75830   0.00000  Uiso   1.00
N1085  N     0.50000   0.25000   0.95069   0.00000  Uiso   1.00
N1086  N     0.50000   0.25000   0.71598   0.00000  Uiso   1.00
N1087  N     0.75000   0.00000   0.95069   0.00000  Uiso   1.00
N1088  N     0.75000   0.00000   0.71598   0.00000  Uiso   1.00
O1089  O     0.54509   0.20491   0.87291   0.00000  Uiso   1.00
O1090  O     0.70492   0.04509   0.79375   0.00000  Uiso   1.00
O1091  O     0.70492   0.04509   0.87291   0.00000  Uiso   1.00
O1092  O     0.79509   0.45491   0.79375   0.00000  Uiso   1.00
O1093  O     0.70492   0.45491   0.79375   0.00000  Uiso   1.00
O1094  O     0.79509   0.04509   0.87291   0.00000  Uiso   1.00
O1095  O     0.79509   0.04509   0.79375   0.00000  Uiso   1.00
O1096  O     0.70492   0.45491   0.87291   0.00000  Uiso   1.00
O1097  O     0.98828   0.14905   0.74109   0.00000  Uiso   1.00
O1098  O     0.54687   0.14172   0.69710   0.00000  Uiso   1.00
O1099  O     0.98828   0.35095   0.92558   0.00000  Uiso   1.00
O1100  O     0.95492   0.29509   0.79375   0.00000  Uiso   1.00
O1101  O     0.54687   0.35828   0.96957   0.00000  Uiso   1.00
O1102  O     0.51172   0.35095   0.74109   0.00000  Uiso   1.00
O1103  O     0.95313   0.35828   0.69710   0.00000  Uiso   1.00
O1104  O     0.51172   0.14905   0.92558   0.00000  Uiso   1.00
O1105  O     0.95314   0.14172   0.96956   0.00000  Uiso   1.00
O1106  O     0.73829   0.39905   0.74109   0.00000  Uiso   1.00
O1107  O     0.79687   0.39172   0.69710   0.00000  Uiso   1.00
O1108  O     0.73828   0.10095   0.92558   0.00000  Uiso   1.00
O1109  O     0.79687   0.10828   0.96957   0.00000  Uiso   1.00
O1110  O     0.76171   0.10095   0.74109   0.00000  Uiso   1.00
O1111  O     0.95492   0.29509   0.87291   0.00000  Uiso   1.00
O1112  O     0.70313   0.10828   0.69710   0.00000  Uiso   1.00
O1113  O     0.76172   0.39905   0.92558   0.00000  Uiso   1.00
O1114  O     0.70313   0.39172   0.96957   0.00000  Uiso   1.00
O1115  O     0.54509   0.20491   0.79375   0.00000  Uiso   1.00
O1116  O     0.95492   0.20491   0.79375   0.00000  Uiso   1.00
O1117  O     0.54509   0.29509   0.87291   0.00000  Uiso   1.00
O1118  O     0.54509   0.29509   0.79375   0.00000  Uiso   1.00
O1119  O     0.95492   0.20491   0.87291   0.00000  Uiso   1.00
O1120  O     0.79509   0.45491   0.87291   0.00000  Uiso   1.00
C1121  C     0.05958   0.69088   0.83340   0.00000  Uiso   1.00
C1122  C     0.00207   0.78974   0.97551   0.00000  Uiso   1.00
C1123  C     0.49793   0.78974   0.69116   0.00000  Uiso   1.00
C1124  C     0.49793   0.71026   0.97551   0.00000  Uiso   1.00
C1125  C     0.25207   0.96026   0.69116   0.00000  Uiso   1.00
C1126  C     0.25207   0.53974   0.97551   0.00000  Uiso   1.00
C1127  C     0.24793   0.53974   0.69116   0.00000  Uiso   1.00
C1128  C     0.24793   0.96026   0.97551   0.00000  Uiso   1.00
C1129  C     0.39083   0.64117   0.79105   0.00000  Uiso   1.00
C1130  C     0.10970   0.85836   0.87462   0.00000  Uiso   1.00
C1131  C     0.10917   0.85883   0.79105   0.00000  Uiso   1.00
C1132  C     0.44042   0.80912   0.83340   0.00000  Uiso   1.00
C1133  C     0.39030   0.64164   0.87462   0.00000  Uiso   1.00
C1134  C     0.10917   0.64117   0.87561   0.00000  Uiso   1.00
C1135  C     0.39030   0.85836   0.79205   0.00000  Uiso   1.00
C1136  C     0.39083   0.85883   0.87561   0.00000  Uiso   1.00
C1137  C     0.10970   0.64164   0.79205   0.00000  Uiso   1.00
C1138  C     0.14083   0.89117   0.79105   0.00000  Uiso   1.00
C1139  C     0.35970   0.60836   0.87462   0.00000  Uiso   1.00
C1140  C     0.35917   0.60883   0.79105   0.00000  Uiso   1.00
C1141  C     0.14030   0.89164   0.87462   0.00000  Uiso   1.00
C1142  C     0.35917   0.89117   0.87561   0.00000  Uiso   1.00
C1143  C     0.44042   0.69088   0.83326   0.00000  Uiso   1.00
C1144  C     0.14030   0.60836   0.79205   0.00000  Uiso   1.00
C1145  C     0.14083   0.60883   0.87561   0.00000  Uiso   1.00
C1146  C     0.35970   0.89164   0.79205   0.00000  Uiso   1.00
C1147  C     0.09334   0.84238   0.83295   0.00000  Uiso   1.00
C1148  C     0.40666   0.65762   0.83295   0.00000  Uiso   1.00
C1149  C     0.40666   0.84238   0.83372   0.00000  Uiso   1.00
C1150  C     0.09334   0.65762   0.83372   0.00000  Uiso   1.00
C1151  C     0.34334   0.59238   0.83295   0.00000  Uiso   1.00
C1152  C     0.15666   0.90762   0.83295   0.00000  Uiso   1.00
C1153  C     0.15666   0.59238   0.83372   0.00000  Uiso   1.00
C1154  C     0.05958   0.80912   0.83326   0.00000  Uiso   1.00
C1155  C     0.34334   0.90762   0.83372   0.00000  Uiso   1.00
C1156  C     0.01213   0.66625   0.71321   0.00000  Uiso   1.00
C1157  C     0.01213   0.83375   0.95346   0.00000  Uiso   1.00
C1158  C     0.48787   0.83375   0.71321   0.00000  Uiso   1.00
C1159  C     0.48787   0.66625   0.95346   0.00000  Uiso   1.00
C1160  C     0.26213   0.91625   0.71321   0.00000  Uiso   1.00
C1161  C     0.26213   0.58375   0.95346   0.00000  Uiso   1.00
C1162  C     0.23787   0.58375   0.71321   0.00000  Uiso   1.00
C1163  C     0.23787   0.91625   0.95346   0.00000  Uiso   1.00
C1164  C     0.30958   0.94088   0.83340   0.00000  Uiso   1.00
C1165  C     0.19042   0.55912   0.83340   0.00000  Uiso   1.00
C1166  C     0.19042   0.94088   0.83326   0.00000  Uiso   1.00
C1167  C     0.30958   0.55912   0.83326   0.00000  Uiso   1.00
C1168  C     0.00207   0.71026   0.69116   0.00000  Uiso   1.00
Cu1169 Cu    0.00000   0.75000   0.88022   0.00000  Uiso   1.00
Cu1170 Cu    0.00000   0.75000   0.78645   0.00000  Uiso   1.00
Cu1171 Cu    0.25000   0.50000   0.88022   0.00000  Uiso   1.00
Cu1172 Cu    0.25000   0.50000   0.78645   0.00000  Uiso   1.00
H1173  H     0.40268   0.65328   0.75830   0.00000  Uiso   1.00
H1174  H     0.34900   0.59515   0.90722   0.00000  Uiso   1.00
H1175  H     0.34732   0.59672   0.75830   0.00000  Uiso   1.00
H1176  H     0.15100   0.90485   0.90722   0.00000  Uiso   1.00
H1177  H     0.34732   0.90328   0.90836   0.00000  Uiso   1.00
H1178  H     0.15100   0.59515   0.75944   0.00000  Uiso   1.00
H1179  H     0.15268   0.59672   0.90836   0.00000  Uiso   1.00
H1180  H     0.34900   0.90485   0.75944   0.00000  Uiso   1.00
H1181  H     0.04923   0.61076   0.71192   0.00000  Uiso   1.00
H1182  H     0.04923   0.88924   0.95475   0.00000  Uiso   1.00
H1183  H     0.45077   0.88924   0.71192   0.00000  Uiso   1.00
H1184  H     0.09900   0.84515   0.90722   0.00000  Uiso   1.00
H1185  H     0.45077   0.61076   0.95474   0.00000  Uiso   1.00
H1186  H     0.29923   0.86076   0.71192   0.00000  Uiso   1.00
H1187  H     0.29923   0.63924   0.95475   0.00000  Uiso   1.00
H1188  H     0.20076   0.63924   0.71192   0.00000  Uiso   1.00
H1189  H     0.20077   0.86076   0.95475   0.00000  Uiso   1.00
H1190  H     0.09732   0.84672   0.75830   0.00000  Uiso   1.00
H1191  H     0.40100   0.65485   0.90722   0.00000  Uiso   1.00
H1192  H     0.09732   0.65328   0.90836   0.00000  Uiso   1.00
H1193  H     0.40100   0.84515   0.75944   0.00000  Uiso   1.00
H1194  H     0.40268   0.84672   0.90836   0.00000  Uiso   1.00
H1195  H     0.09901   0.65485   0.75944   0.00000  Uiso   1.00
H1196  H     0.15268   0.90328   0.75830   0.00000  Uiso   1.00
N1197  N     0.00000   0.75000   0.95069   0.00000  Uiso   1.00
N1198  N     0.00000   0.75000   0.71598   0.00000  Uiso   1.00
N1199  N     0.25000   0.50000   0.95069   0.00000  Uiso   1.00
N1200  N     0.25000   0.50000   0.71598   0.00000  Uiso   1.00
O1201  O     0.04509   0.70491   0.87291   0.00000  Uiso   1.00
O1202  O     0.20492   0.54509   0.79375   0.00000  Uiso   1.00
O1203  O     0.20492   0.54509   0.87291   0.00000  Uiso   1.00
O1204  O     0.29509   0.95491   0.79375   0.00000  Uiso   1.00
O1205  O     0.20492   0.95491   0.79375   0.00000  Uiso   1.00
O1206  O     0.29509   0.54509   0.87291   0.00000  Uiso   1.00
O1207  O     0.29509   0.54509   0.79375   0.00000  Uiso   1.00
O1208  O     0.20492   0.95491   0.87291   0.00000  Uiso   1.00
O1209  O     0.48828   0.64905   0.74109   0.00000  Uiso   1.00
O1210  O     0.04687   0.64172   0.69710   0.00000  Uiso   1.00
O1211  O     0.48828   0.85095   0.92558   0.00000  Uiso   1.00
O1212  O     0.45492   0.79509   0.79375   0.00000  Uiso   1.00
O1213  O     0.04687   0.85828   0.96957   0.00000  Uiso   1.00
O1214  O     0.01172   0.85095   0.74109   0.00000  Uiso   1.00
O1215  O     0.45313   0.85828   0.69710   0.00000  Uiso   1.00
O1216  O     0.01172   0.64905   0.92558   0.00000  Uiso   1.00
O1217  O     0.45314   0.64172   0.96956   0.00000  Uiso   1.00
O1218  O     0.23829   0.89905   0.74109   0.00000  Uiso   1.00
O1219  O     0.29687   0.89172   0.69710   0.00000  Uiso   1.00
O1220  O     0.23828   0.60095   0.92558   0.00000  Uiso   1.00
O1221  O     0.29687   0.60828   0.96957   0.00000  Uiso   1.00
O1222  O     0.26171   0.60095   0.74109   0.00000  Uiso   1.00
O1223  O     0.45492   0.79509   0.87291   0.00000  Uiso   1.00
O1224  O     0.20313   0.60828   0.69710   0.00000  Uiso   1.00
O1225  O     0.26172   0.89905   0.92558   0.00000  Uiso   1.00
O1226  O     0.20313   0.89172   0.96957   0.00000  Uiso   1.00
O1227  O     0.04509   0.70491   0.79375   0.00000  Uiso   1.00
O1228  O     0.45492   0.70491   0.79375   0.00000  Uiso   1.00
O1229  O     0.04509   0.79509   0.87291   0.00000  Uiso   1.00
O1230  O     0.04509   0.79509   0.79375   0.00000  Uiso   1.00
O1231  O     0.45492   0.70491   0.87291   0.00000  Uiso   1.00
O1232  O     0.29509   0.95491   0.87291   0.00000  Uiso   1.00
C1233  C     0.55958   0.69088   0.83340   0.00000  Uiso   1.00
C1234  C     0.50207   0.78974   0.97551   0.00000  Uiso   1.00
C1235  C     0.99793   0.78974   0.69116   0.00000  Uiso   1.00
C1236  C     0.99793   0.71026   0.97551   0.00000  Uiso   1.00
C1237  C     0.75207   0.96026   0.69116   0.00000  Uiso   1.00
C1238  C     0.75207   0.53974   0.97551   0.00000  Uiso   1.00
C1239  C     0.74793   0.53974   0.69116   0.00000  Uiso   1.00
C1240  C     0.74793   0.96026   0.97551   0.00000  Uiso   1.00
C1241  C     0.89083   0.64117   0.79105   0.00000  Uiso   1.00
C1242  C     0.60970   0.85836   0.87462   0.00000  Uiso   1.00
C1243  C     0.60917   0.85883   0.79105   0.00000  Uiso   1.00
C1244  C     0.94042   0.80912   0.83340   0.00000  Uiso   1.00
C1245  C     0.89030   0.64164   0.87462   0.00000  Uiso   1.00
C1246  C     0.60917   0.64117   0.87561   0.00000  Uiso   1.00
C1247  C     0.89030   0.85836   0.79205   0.00000  Uiso   1.00
C1248  C     0.89083   0.85883   0.87561   0.00000  Uiso   1.00
C1249  C     0.60970   0.64164   0.79205   0.00000  Uiso   1.00
C1250  C     0.64083   0.89117   0.79105   0.00000  Uiso   1.00
C1251  C     0.85970   0.60836   0.87462   0.00000  Uiso   1.00
C1252  C     0.85917   0.60883   0.79105   0.00000  Uiso   1.00
C1253  C     0.64030   0.89164   0.87462   0.00000  Uiso   1.00
C1254  C     0.85917   0.89117   0.87561   0.00000  Uiso   1.00
C1255  C     0.94042   0.69088   0.83326   0.00000  Uiso   1.00
C1256  C     0.64030   0.60836   0.79205   0.00000  Uiso   1.00
C1257  C     0.64083   0.60883   0.87561   0.00000  Uiso   1.00
C1258  C     0.85970   0.89164   0.79205   0.00000  Uiso   1.00
C1259  C     0.59334   0.84238   0.83295   0.00000  Uiso   1.00
C1260  C     0.90666   0.65762   0.83295   0.00000  Uiso   1.00
C1261  C     0.90666   0.84238   0.83372   0.00000  Uiso   1.00
C1262  C     0.59334   0.65762   0.83372   0.00000  Uiso   1.00
C1263  C     0.84334   0.59238   0.83295   0.00000  Uiso   1.00
C1264  C     0.65666   0.90762   0.83295   0.00000  Uiso   1.00
C1265  C     0.65666   0.59238   0.83372   0.00000  Uiso   1.00
C1266  C     0.55958   0.80912   0.83326   0.00000  Uiso   1.00
C1267  C     0.84334   0.90762   0.83372   0.00000  Uiso   1.00
C1268  C     0.51213   0.66625   0.71321   0.00000  Uiso   1.00
C1269  C     0.51213   0.83375   0.95346   0.00000  Uiso   1.00
C1270  C     0.98787   0.83375   0.71321   0.00000  Uiso   1.00
C1271  C     0.98787   0.66625   0.95346   0.00000  Uiso   1.00
C1272  C     0.76213   0.91625   0.71321   0.00000  Uiso   1.00
C1273  C     0.76213   0.58375   0.95346   0.00000  Uiso   1.00
C1274  C     0.73787   0.58375   0.71321   0.00000  Uiso   1.00
C1275  C     0.73787   0.91625   0.95346   0.00000  Uiso   1.00
C1276  C     0.80958   0.94088   0.83340   0.00000  Uiso   1.00
C1277  C     0.69042   0.55912   0.83340   0.00000  Uiso   1.00
C1278  C     0.69042   0.94088   0.83326   0.00000  Uiso   1.00
C1279  C     0.80958   0.55912   0.83326   0.00000  Uiso   1.00
C1280  C     0.50207   0.71026   0.69116   0.00000  Uiso   1.00
Cu1281 Cu    0.50000   0.75000   0.88022   0.00000  Uiso   1.00
Cu1282 Cu    0.50000   0.75000   0.78645   0.00000  Uiso   1.00
Cu1283 Cu    0.75000   0.50000   0.88022   0.00000  Uiso   1.00
Cu1284 Cu    0.75000   0.50000   0.78645   0.00000  Uiso   1.00
H1285  H     0.90268   0.65328   0.75830   0.00000  Uiso   1.00
H1286  H     0.84900   0.59515   0.90722   0.00000  Uiso   1.00
H1287  H     0.84732   0.59672   0.75830   0.00000  Uiso   1.00
H1288  H     0.65100   0.90485   0.90722   0.00000  Uiso   1.00
H1289  H     0.84732   0.90328   0.90836   0.00000  Uiso   1.00
H1290  H     0.65100   0.59515   0.75944   0.00000  Uiso   1.00
H1291  H     0.65268   0.59672   0.90836   0.00000  Uiso   1.00
H1292  H     0.84900   0.90485   0.75944   0.00000  Uiso   1.00
H1293  H     0.54923   0.61076   0.71192   0.00000  Uiso   1.00
H1294  H     0.54923   0.88924   0.95475   0.00000  Uiso   1.00
H1295  H     0.95077   0.88924   0.71192   0.00000  Uiso   1.00
H1296  H     0.59900   0.84515   0.90722   0.00000  Uiso   1.00
H1297  H     0.95077   0.61076   0.95474   0.00000  Uiso   1.00
H1298  H     0.79923   0.86076   0.71192   0.00000  Uiso   1.00
H1299  H     0.79923   0.63924   0.95475   0.00000  Uiso   1.00
H1300  H     0.70076   0.63924   0.71192   0.00000  Uiso   1.00
H1301  H     0.70077   0.86076   0.95475   0.00000  Uiso   1.00
H1302  H     0.59732   0.84672   0.75830   0.00000  Uiso   1.00
H1303  H     0.90100   0.65485   0.90722   0.00000  Uiso   1.00
H1304  H     0.59732   0.65328   0.90836   0.00000  Uiso   1.00
H1305  H     0.90100   0.84515   0.75944   0.00000  Uiso   1.00
H1306  H     0.90268   0.84672   0.90836   0.00000  Uiso   1.00
H1307  H     0.59901   0.65485   0.75944   0.00000  Uiso   1.00
H1308  H     0.65268   0.90328   0.75830   0.00000  Uiso   1.00
N1309  N     0.50000   0.75000   0.95069   0.00000  Uiso   1.00
N1310  N     0.50000   0.75000   0.71598   0.00000  Uiso   1.00
N1311  N     0.75000   0.50000   0.95069   0.00000  Uiso   1.00
N1312  N     0.75000   0.50000   0.71598   0.00000  Uiso   1.00
O1313  O     0.54509   0.70491   0.87291   0.00000  Uiso   1.00
O1314  O     0.70492   0.54509   0.79375   0.00000  Uiso   1.00
O1315  O     0.70492   0.54509   0.87291   0.00000  Uiso   1.00
O1316  O     0.79509   0.95491   0.79375   0.00000  Uiso   1.00
O1317  O     0.70492   0.95491   0.79375   0.00000  Uiso   1.00
O1318  O     0.79509   0.54509   0.87291   0.00000  Uiso   1.00
O1319  O     0.79509   0.54509   0.79375   0.00000  Uiso   1.00
O1320  O     0.70492   0.95491   0.87291   0.00000  Uiso   1.00
O1321  O     0.98828   0.64905   0.74109   0.00000  Uiso   1.00
O1322  O     0.54687   0.64172   0.69710   0.00000  Uiso   1.00
O1323  O     0.98828   0.85095   0.92558   0.00000  Uiso   1.00
O1324  O     0.95492   0.79509   0.79375   0.00000  Uiso   1.00
O1325  O     0.54687   0.85828   0.96957   0.00000  Uiso   1.00
O1326  O     0.51172   0.85095   0.74109   0.00000  Uiso   1.00
O1327  O     0.95313   0.85828   0.69710   0.00000  Uiso   1.00
O1328  O     0.51172   0.64905   0.92558   0.00000  Uiso   1.00
O1329  O     0.95314   0.64172   0.96956   0.00000  Uiso   1.00
O1330  O     0.73829   0.89905   0.74109   0.00000  Uiso   1.00
O1331  O     0.79687   0.89172   0.69710   0.00000  Uiso   1.00
O1332  O     0.73828   0.60095   0.92558   0.00000  Uiso   1.00
O1333  O     0.79687   0.60828   0.96957   0.00000  Uiso   1.00
O1334  O     0.76171   0.60095   0.74109   0.00000  Uiso   1.00
O1335  O     0.95492   0.79509   0.87291   0.00000  Uiso   1.00
O1336  O     0.70313   0.60828   0.69710   0.00000  Uiso   1.00
O1337  O     0.76172   0.89905   0.92558   0.00000  Uiso   1.00
O1338  O     0.70313   0.89172   0.96957   0.00000  Uiso   1.00
O1339  O     0.54509   0.70491   0.79375   0.00000  Uiso   1.00
O1340  O     0.95492   0.70491   0.79375   0.00000  Uiso   1.00
O1341  O     0.54509   0.79509   0.87291   0.00000  Uiso   1.00
O1342  O     0.54509   0.79509   0.79375   0.00000  Uiso   1.00
O1343  O     0.95492   0.70491   0.87291   0.00000  Uiso   1.00
O1344  O     0.79509   0.95491   0.87291   0.00000  Uiso   1.00
loop_
_geom_bond_atom_site_label_1
_geom_bond_atom_site_label_2
_geom_bond_distance
_geom_bond_site_symmetry_2
_ccdc_geom_bond_type
C1     O81     1.303   .     A
C1     O107    1.307   .     A
C1     C30     1.453   .     S
C2     N77     1.380   .     A
C2     C37     1.484   .     S
C2     C563    1.428   1_455 S
C3     C38     1.484   .     S
C3     C1010   1.428   1_554 S
C3     N190    1.380   .     S
C4     C39     1.484   .     S
C4     C608    1.428   .     S
C4     N189    1.380   .     S
C5     C40     1.484   .     S
C5     C904    1.428   1_554 S
C5     N304    1.380   .     S
C6     C41     1.484   .     S
C6     N79     1.380   .     A
C6     C455    1.428   .     S
C7     C42     1.484   .     S
C7     N80     1.380   .     A
C7     C902    1.428   1_554 S
C8     C43     1.484   .     S
C8     C453    1.428   .     S
C8     N303    1.380   .     S
C9     C20     1.385   .     A
C9     H53     1.083   .     S
C9     C28     1.402   .     A
C10    C27     1.398   .     A
C10    C21     1.381   .     A
C10    H64     1.078   .     S
C11    C18     1.385   .     A
C11    H70     1.083   .     S
C11    C27     1.402   .     A
C12    C29     1.453   .     S
C12    O103    1.303   .     A
C12    O92     1.307   .     A
C13    C28     1.398   .     A
C13    C19     1.381   .     A
C13    H71     1.078   .     S
C14    H72     1.083   .     S
C14    C30     1.402   .     A
C14    C25     1.385   .     A
C15    C29     1.398   .     A
C15    C26     1.381   .     A
C15    H73     1.078   .     S
C16    H74     1.083   .     S
C16    C22     1.385   .     A
C16    C29     1.402   .     A
C17    C30     1.398   .     A
C17    C24     1.381   .     A
C17    H75     1.078   .     S
C18    H76     1.083   .     S
C18    C32     1.402   .     A
C19    C31     1.398   .     A
C19    H54     1.078   .     S
C20    H55     1.083   .     S
C20    C31     1.402   .     A
C21    C32     1.398   .     A
C21    H56     1.078   .     S
C22    C35     1.402   .     A
C22    H57     1.083   .     S
C23    C28     1.453   .     S
C23    O111    1.307   .     A
C23    O108    1.303   .     A
C24    C33     1.398   .     A
C24    H58     1.078   .     S
C25    H59     1.083   .     S
C25    C33     1.402   .     A
C26    C35     1.398   .     A
C26    H60     1.078   .     S
C27    C34     1.453   .     S
C31    C47     1.453   .     S
C32    C46     1.453   .     S
C33    C45     1.453   .     S
C34    O110    1.303   .     A
C34    O109    1.307   .     A
C35    C44     1.453   .     S
C36    O90     1.398   .     S
C36    C48     1.484   .     S
C36    O201    1.218   1_455 S
C37    O93     1.398   .     S
C37    O203    1.218   1_455 S
C38    O95     1.398   .     S
C38    O206    1.218   .     S
C39    O97     1.398   .     S
C39    O208    1.218   .     S
C40    O99     1.398   .     S
C40    O98     1.218   .     D
C41    O101    1.398   .     S
C41    O100    1.218   .     D
C42    O102    1.218   .     D
C42    O104    1.398   .     S
C43    O105    1.218   .     D
C43    O106    1.398   .     S
C44    O112    1.303   .     A
C44    O84     1.307   .     A
C45    O82     1.307   .     A
C45    O83     1.303   .     A
C46    O85     1.303   .     A
C46    O88     1.307   .     A
C47    O86     1.307   .     A
C47    O87     1.303   .     A
C48    N78     1.380   .     A
C48    C1012   1.428   1_454 S
Cu49   O109    1.965   .     S
Cu49   N77     2.045   .     S
Cu49   O81     1.965   .     S
Cu49   Cu50    2.722   .     S
Cu49   O215    1.965   1_455 S
Cu49   O223    1.965   1_455 S
Cu50   N78     2.045   .     S
Cu50   O110    1.965   .     S
Cu50   O107    1.965   .     S
Cu50   O204    1.965   1_455 S
Cu50   O220    1.965   1_455 S
Cu51   O86     1.965   .     S
Cu51   Cu52    2.722   .     S
Cu51   O83     1.965   .     S
Cu51   N79     2.045   .     S
Cu51   O312    1.965   1_545 S
Cu51   O336    1.965   1_545 S
Cu52   O82     1.965   .     S
Cu52   O87     1.965   .     S
Cu52   N80     2.045   .     S
Cu52   O308    1.965   1_545 S
Cu52   O309    1.965   1_545 S
H61    O90     1.014   .     S
H62    O93     1.014   .     S
H63    O95     1.014   .     S
H65    O97     1.014   .     S
H66    O99     1.014   .     S
H67    O101    1.014   .     S
H68    O104    1.014   .     S
H69    O106    1.014   .     S
N77    C116    1.380   1_455 S
N78    C115    1.380   1_455 S
N79    C232    1.380   1_545 S
N80    C229    1.380   1_545 S
O84    Cu276   1.965   .     S
O85    Cu276   1.965   .     S
O88    Cu275   1.965   .     S
O89    C148    1.218   .     S
O91    C149    1.218   .     S
O92    Cu162   1.965   .     S
O94    C150    1.218   1_455 S
O96    C151    1.218   1_455 S
O103   Cu161   1.965   .     S
O108   Cu162   1.965   .     S
O111   Cu161   1.965   .     S
O112   Cu275   1.965   .     S
C113   O193    1.303   .     A
C113   O219    1.307   .     A
C113   C142    1.453   .     S
C114   N189    1.380   .     A
C114   C149    1.484   .     S
C114   C451    1.428   .     S
C115   C150    1.484   .     S
C115   C898    1.428   1_654 S
C115   N78     1.380   1_655 S
C116   C151    1.484   .     S
C116   C496    1.428   1_655 S
C116   N77     1.380   1_655 S
C117   C152    1.484   .     S
C117   C1016   1.428   1_554 S
C117   N416    1.380   .     S
C118   C153    1.484   .     S
C118   N191    1.380   .     A
C118   C567    1.428   .     S
C119   C154    1.484   .     S
C119   N192    1.380   .     A
C119   C1014   1.428   1_554 S
C120   C155    1.484   .     S
C120   C565    1.428   .     S
C120   N415    1.380   .     S
C121   C132    1.385   .     A
C121   H165    1.083   .     S
C121   C140    1.402   .     A
C122   C139    1.398   .     A
C122   C133    1.381   .     A
C122   H176    1.078   .     S
C123   C130    1.385   .     A
C123   H182    1.083   .     S
C123   C139    1.402   .     A
C124   C141    1.453   .     S
C124   O215    1.303   .     A
C124   O204    1.307   .     A
C125   C140    1.398   .     A
C125   C131    1.381   .     A
C125   H183    1.078   .     S
C126   H184    1.083   .     S
C126   C142    1.402   .     A
C126   C137    1.385   .     A
C127   C141    1.398   .     A
C127   C138    1.381   .     A
C127   H185    1.078   .     S
C128   H186    1.083   .     S
C128   C134    1.385   .     A
C128   C141    1.402   .     A
C129   C142    1.398   .     A
C129   C136    1.381   .     A
C129   H187    1.078   .     S
C130   H188    1.083   .     S
C130   C144    1.402   .     A
C131   C143    1.398   .     A
C131   H166    1.078   .     S
C132   H167    1.083   .     S
C132   C143    1.402   .     A
C133   C144    1.398   .     A
C133   H168    1.078   .     S
C134   C147    1.402   .     A
C134   H169    1.083   .     S
C135   C140    1.453   .     S
C135   O223    1.307   .     A
C135   O220    1.303   .     A
C136   C145    1.398   .     A
C136   H170    1.078   .     S
C137   H171    1.083   .     S
C137   C145    1.402   .     A
C138   C147    1.398   .     A
C138   H172    1.078   .     S
C139   C146    1.453   .     S
C143   C159    1.453   .     S
C144   C158    1.453   .     S
C145   C157    1.453   .     S
C146   O222    1.303   .     A
C146   O221    1.307   .     A
C147   C156    1.453   .     S
C148   O202    1.398   .     S
C148   C160    1.484   .     S
C149   O205    1.398   .     S
C150   O207    1.398   .     S
C150   O94     1.218   1_655 S
C151   O209    1.398   .     S
C151   O96     1.218   1_655 S
C152   O211    1.398   .     S
C152   O210    1.218   .     D
C153   O213    1.398   .     S
C153   O212    1.218   .     D
C154   O214    1.218   .     D
C154   O216    1.398   .     S
C155   O217    1.218   .     D
C155   O218    1.398   .     S
C156   O224    1.303   .     A
C156   O196    1.307   .     A
C157   O194    1.307   .     A
C157   O195    1.303   .     A
C158   O197    1.303   .     A
C158   O200    1.307   .     A
C159   O198    1.307   .     A
C159   O199    1.303   .     A
C160   N190    1.380   .     A
C160   C900    1.428   1_554 S
Cu161  O221    1.965   .     S
Cu161  N189    2.045   .     S
Cu161  O193    1.965   .     S
Cu161  Cu162   2.722   .     S
Cu162  N190    2.045   .     S
Cu162  O222    1.965   .     S
Cu162  O219    1.965   .     S
Cu163  O198    1.965   .     S
Cu163  Cu164   2.722   .     S
Cu163  O195    1.965   .     S
Cu163  N191    2.045   .     S
Cu163  O424    1.965   1_545 S
Cu163  O448    1.965   1_545 S
Cu164  O194    1.965   .     S
Cu164  O199    1.965   .     S
Cu164  N192    2.045   .     S
Cu164  O420    1.965   1_545 S
Cu164  O421    1.965   1_545 S
H173   O202    1.014   .     S
H174   O205    1.014   .     S
H175   O207    1.014   .     S
H177   O209    1.014   .     S
H178   O211    1.014   .     S
H179   O213    1.014   .     S
H180   O216    1.014   .     S
H181   O218    1.014   .     S
N191   C344    1.380   1_545 S
N192   C341    1.380   1_545 S
O196   Cu388   1.965   .     S
O197   Cu388   1.965   .     S
O200   Cu387   1.965   .     S
O201   C36     1.218   1_655 S
O203   C37     1.218   1_655 S
O204   Cu50    1.965   1_655 S
O215   Cu49    1.965   1_655 S
O220   Cu50    1.965   1_655 S
O223   Cu49    1.965   1_655 S
O224   Cu387   1.965   .     S
C225   O305    1.303   .     A
C225   O331    1.307   .     A
C225   C254    1.453   .     S
C226   N301    1.380   .     A
C226   C261    1.484   .     S
C226   C787    1.428   1_455 S
C227   C262    1.484   .     S
C227   C1234   1.428   1_554 S
C227   N414    1.380   .     S
C228   C263    1.484   .     S
C228   C832    1.428   .     S
C228   N413    1.380   .     S
C229   C264    1.484   .     S
C229   C1128   1.428   1_554 S
C229   N80     1.380   1_565 S
C230   C265    1.484   .     S
C230   N303    1.380   .     A
C230   C679    1.428   .     S
C231   C266    1.484   .     S
C231   N304    1.380   .     A
C231   C1126   1.428   1_554 S
C232   C267    1.484   .     S
C232   C677    1.428   .     S
C232   N79     1.380   1_565 S
C233   C244    1.385   .     A
C233   H277    1.083   .     S
C233   C252    1.402   .     A
C234   C251    1.398   .     A
C234   C245    1.381   .     A
C234   H288    1.078   .     S
C235   C242    1.385   .     A
C235   H294    1.083   .     S
C235   C251    1.402   .     A
C236   C253    1.453   .     S
C236   O327    1.303   .     A
C236   O316    1.307   .     A
C237   C252    1.398   .     A
C237   C243    1.381   .     A
C237   H295    1.078   .     S
C238   H296    1.083   .     S
C238   C254    1.402   .     A
C238   C249    1.385   .     A
C239   C253    1.398   .     A
C239   C250    1.381   .     A
C239   H297    1.078   .     S
C240   H298    1.083   .     S
C240   C246    1.385   .     A
C240   C253    1.402   .     A
C241   C254    1.398   .     A
C241   C248    1.381   .     A
C241   H299    1.078   .     S
C242   H300    1.083   .     S
C242   C256    1.402   .     A
C243   C255    1.398   .     A
C243   H278    1.078   .     S
C244   H279    1.083   .     S
C244   C255    1.402   .     A
C245   C256    1.398   .     A
C245   H280    1.078   .     S
C246   C259    1.402   .     A
C246   H281    1.083   .     S
C247   C252    1.453   .     S
C247   O335    1.307   .     A
C247   O332    1.303   .     A
C248   C257    1.398   .     A
C248   H282    1.078   .     S
C249   H283    1.083   .     S
C249   C257    1.402   .     A
C250   C259    1.398   .     A
C250   H284    1.078   .     S
C251   C258    1.453   .     S
C255   C271    1.453   .     S
C256   C270    1.453   .     S
C257   C269    1.453   .     S
C258   O334    1.303   .     A
C258   O333    1.307   .     A
C259   C268    1.453   .     S
C260   O314    1.398   .     S
C260   C272    1.484   .     S
C260   O425    1.218   1_455 S
C261   O317    1.398   .     S
C261   O427    1.218   1_455 S
C262   O319    1.398   .     S
C262   O430    1.218   .     S
C263   O321    1.398   .     S
C263   O432    1.218   .     S
C264   O323    1.398   .     S
C264   O322    1.218   .     D
C265   O325    1.398   .     S
C265   O324    1.218   .     D
C266   O326    1.218   .     D
C266   O328    1.398   .     S
C267   O329    1.218   .     D
C267   O330    1.398   .     S
C268   O336    1.303   .     A
C268   O308    1.307   .     A
C269   O306    1.307   .     A
C269   O307    1.303   .     A
C270   O309    1.303   .     A
C270   O312    1.307   .     A
C271   O310    1.307   .     A
C271   O311    1.303   .     A
C272   N302    1.380   .     A
C272   C1236   1.428   1_454 S
Cu273  O333    1.965   .     S
Cu273  N301    2.045   .     S
Cu273  O305    1.965   .     S
Cu273  Cu274   2.722   .     S
Cu273  O439    1.965   1_455 S
Cu273  O447    1.965   1_455 S
Cu274  N302    2.045   .     S
Cu274  O334    1.965   .     S
Cu274  O331    1.965   .     S
Cu274  O428    1.965   1_455 S
Cu274  O444    1.965   1_455 S
Cu275  O310    1.965   .     S
Cu275  Cu276   2.722   .     S
Cu275  O307    1.965   .     S
Cu275  N303    2.045   .     S
Cu276  O306    1.965   .     S
Cu276  O311    1.965   .     S
Cu276  N304    2.045   .     S
H285   O314    1.014   .     S
H286   O317    1.014   .     S
H287   O319    1.014   .     S
H289   O321    1.014   .     S
H290   O323    1.014   .     S
H291   O325    1.014   .     S
H292   O328    1.014   .     S
H293   O330    1.014   .     S
N301   C340    1.380   1_455 S
N302   C339    1.380   1_455 S
O308   Cu52    1.965   1_565 S
O309   Cu52    1.965   1_565 S
O312   Cu51    1.965   1_565 S
O313   C372    1.218   .     S
O315   C373    1.218   .     S
O316   Cu386   1.965   .     S
O318   C374    1.218   1_455 S
O320   C375    1.218   1_455 S
O327   Cu385   1.965   .     S
O332   Cu386   1.965   .     S
O335   Cu385   1.965   .     S
O336   Cu51    1.965   1_565 S
C337   O417    1.303   .     A
C337   O443    1.307   .     A
C337   C366    1.453   .     S
C338   N413    1.380   .     A
C338   C373    1.484   .     S
C338   C675    1.428   .     S
C339   C374    1.484   .     S
C339   C1122   1.428   1_654 S
C339   N302    1.380   1_655 S
C340   C375    1.484   .     S
C340   C720    1.428   1_655 S
C340   N301    1.380   1_655 S
C341   C376    1.484   .     S
C341   C1240   1.428   1_554 S
C341   N192    1.380   1_565 S
C342   C377    1.484   .     S
C342   N415    1.380   .     A
C342   C791    1.428   .     S
C343   C378    1.484   .     S
C343   N416    1.380   .     A
C343   C1238   1.428   1_554 S
C344   C379    1.484   .     S
C344   C789    1.428   .     S
C344   N191    1.380   1_565 S
C345   C356    1.385   .     A
C345   H389    1.083   .     S
C345   C364    1.402   .     A
C346   C363    1.398   .     A
C346   C357    1.381   .     A
C346   H400    1.078   .     S
C347   C354    1.385   .     A
C347   H406    1.083   .     S
C347   C363    1.402   .     A
C348   C365    1.453   .     S
C348   O439    1.303   .     A
C348   O428    1.307   .     A
C349   C364    1.398   .     A
C349   C355    1.381   .     A
C349   H407    1.078   .     S
C350   H408    1.083   .     S
C350   C366    1.402   .     A
C350   C361    1.385   .     A
C351   C365    1.398   .     A
C351   C362    1.381   .     A
C351   H409    1.078   .     S
C352   H410    1.083   .     S
C352   C358    1.385   .     A
C352   C365    1.402   .     A
C353   C366    1.398   .     A
C353   C360    1.381   .     A
C353   H411    1.078   .     S
C354   H412    1.083   .     S
C354   C368    1.402   .     A
C355   C367    1.398   .     A
C355   H390    1.078   .     S
C356   H391    1.083   .     S
C356   C367    1.402   .     A
C357   C368    1.398   .     A
C357   H392    1.078   .     S
C358   C371    1.402   .     A
C358   H393    1.083   .     S
C359   C364    1.453   .     S
C359   O447    1.307   .     A
C359   O444    1.303   .     A
C360   C369    1.398   .     A
C360   H394    1.078   .     S
C361   H395    1.083   .     S
C361   C369    1.402   .     A
C362   C371    1.398   .     A
C362   H396    1.078   .     S
C363   C370    1.453   .     S
C367   C383    1.453   .     S
C368   C382    1.453   .     S
C369   C381    1.453   .     S
C370   O446    1.303   .     A
C370   O445    1.307   .     A
C371   C380    1.453   .     S
C372   O426    1.398   .     S
C372   C384    1.484   .     S
C373   O429    1.398   .     S
C374   O431    1.398   .     S
C374   O318    1.218   1_655 S
C375   O433    1.398   .     S
C375   O320    1.218   1_655 S
C376   O435    1.398   .     S
C376   O434    1.218   .     D
C377   O437    1.398   .     S
C377   O436    1.218   .     D
C378   O438    1.218   .     D
C378   O440    1.398   .     S
C379   O441    1.218   .     D
C379   O442    1.398   .     S
C380   O448    1.303   .     A
C380   O420    1.307   .     A
C381   O418    1.307   .     A
C381   O419    1.303   .     A
C382   O421    1.303   .     A
C382   O424    1.307   .     A
C383   O422    1.307   .     A
C383   O423    1.303   .     A
C384   N414    1.380   .     A
C384   C1124   1.428   1_554 S
Cu385  O445    1.965   .     S
Cu385  N413    2.045   .     S
Cu385  O417    1.965   .     S
Cu385  Cu386   2.722   .     S
Cu386  N414    2.045   .     S
Cu386  O446    1.965   .     S
Cu386  O443    1.965   .     S
Cu387  O422    1.965   .     S
Cu387  Cu388   2.722   .     S
Cu387  O419    1.965   .     S
Cu387  N415    2.045   .     S
Cu388  O418    1.965   .     S
Cu388  O423    1.965   .     S
Cu388  N416    2.045   .     S
H397   O426    1.014   .     S
H398   O429    1.014   .     S
H399   O431    1.014   .     S
H401   O433    1.014   .     S
H402   O435    1.014   .     S
H403   O437    1.014   .     S
H404   O440    1.014   .     S
H405   O442    1.014   .     S
O420   Cu164   1.965   1_565 S
O421   Cu164   1.965   1_565 S
O424   Cu163   1.965   1_565 S
O425   C260    1.218   1_655 S
O427   C261    1.218   1_655 S
O428   Cu274   1.965   1_655 S
O439   Cu273   1.965   1_655 S
O444   Cu274   1.965   1_655 S
O447   Cu273   1.965   1_655 S
O448   Cu163   1.965   1_565 S
C449   O529    1.303   .     A
C449   O555    1.307   .     A
C449   C478    1.453   .     S
C450   N525    1.380   .     A
C450   C485    1.484   .     S
C450   C1011   1.428   1_455 S
C451   C486    1.484   .     S
C451   N638    1.380   .     S
C452   C487    1.484   .     S
C452   C1056   1.428   .     S
C452   N637    1.380   .     S
C453   C488    1.484   .     S
C453   N752    1.380   .     S
C454   C489    1.484   .     S
C454   N527    1.380   .     A
C454   C903    1.428   .     S
C455   C490    1.484   .     S
C455   N528    1.380   .     A
C456   C491    1.484   .     S
C456   C901    1.428   .     S
C456   N751    1.380   .     S
C457   C468    1.385   .     A
C457   H501    1.083   .     S
C457   C476    1.402   .     A
C458   C475    1.398   .     A
C458   C469    1.381   .     A
C458   H512    1.078   .     S
C459   C466    1.385   .     A
C459   H518    1.083   .     S
C459   C475    1.402   .     A
C460   C477    1.453   .     S
C460   O551    1.303   .     A
C460   O540    1.307   .     A
C461   C476    1.398   .     A
C461   C467    1.381   .     A
C461   H519    1.078   .     S
C462   H520    1.083   .     S
C462   C478    1.402   .     A
C462   C473    1.385   .     A
C463   C477    1.398   .     A
C463   C474    1.381   .     A
C463   H521    1.078   .     S
C464   H522    1.083   .     S
C464   C470    1.385   .     A
C464   C477    1.402   .     A
C465   C478    1.398   .     A
C465   C472    1.381   .     A
C465   H523    1.078   .     S
C466   H524    1.083   .     S
C466   C480    1.402   .     A
C467   C479    1.398   .     A
C467   H502    1.078   .     S
C468   H503    1.083   .     S
C468   C479    1.402   .     A
C469   C480    1.398   .     A
C469   H504    1.078   .     S
C470   C483    1.402   .     A
C470   H505    1.083   .     S
C471   C476    1.453   .     S
C471   O559    1.307   .     A
C471   O556    1.303   .     A
C472   C481    1.398   .     A
C472   H506    1.078   .     S
C473   H507    1.083   .     S
C473   C481    1.402   .     A
C474   C483    1.398   .     A
C474   H508    1.078   .     S
C475   C482    1.453   .     S
C479   C495    1.453   .     S
C480   C494    1.453   .     S
C481   C493    1.453   .     S
C482   O558    1.303   .     A
C482   O557    1.307   .     A
C483   C492    1.453   .     S
C484   O538    1.398   .     S
C484   C496    1.484   .     S
C484   O649    1.218   1_455 S
C485   O541    1.398   .     S
C485   O651    1.218   1_455 S
C486   O543    1.398   .     S
C486   O654    1.218   .     S
C487   O545    1.398   .     S
C487   O656    1.218   .     S
C488   O547    1.398   .     S
C488   O546    1.218   .     D
C489   O549    1.398   .     S
C489   O548    1.218   .     D
C490   O550    1.218   .     D
C490   O552    1.398   .     S
C491   O553    1.218   .     D
C491   O554    1.398   .     S
C492   O560    1.303   .     A
C492   O532    1.307   .     A
C493   O530    1.307   .     A
C493   O531    1.303   .     A
C494   O533    1.303   .     A
C494   O536    1.307   .     A
C495   O534    1.307   .     A
C495   O535    1.303   .     A
C496   N526    1.380   .     A
C496   C116    1.428   1_455 S
Cu497  O557    1.965   .     S
Cu497  N525    2.045   .     S
Cu497  O529    1.965   .     S
Cu497  Cu498   2.722   .     S
Cu497  O663    1.965   1_455 S
Cu497  O671    1.965   1_455 S
Cu498  N526    2.045   .     S
Cu498  O558    1.965   .     S
Cu498  O555    1.965   .     S
Cu498  O652    1.965   1_455 S
Cu498  O668    1.965   1_455 S
Cu499  O534    1.965   .     S
Cu499  Cu500   2.722   .     S
Cu499  O531    1.965   .     S
Cu499  N527    2.045   .     S
Cu499  O760    1.965   1_545 S
Cu499  O784    1.965   1_545 S
Cu500  O530    1.965   .     S
Cu500  O535    1.965   .     S
Cu500  N528    2.045   .     S
Cu500  O756    1.965   1_545 S
Cu500  O757    1.965   1_545 S
H509   O538    1.014   .     S
H510   O541    1.014   .     S
H511   O543    1.014   .     S
H513   O545    1.014   .     S
H514   O547    1.014   .     S
H515   O549    1.014   .     S
H516   O552    1.014   .     S
H517   O554    1.014   .     S
N525   C564    1.380   1_455 S
N526   C563    1.380   1_455 S
N527   C680    1.380   1_545 S
N528   C677    1.380   1_545 S
O532   Cu724   1.965   .     S
O533   Cu724   1.965   .     S
O536   Cu723   1.965   .     S
O537   C596    1.218   .     S
O539   C597    1.218   .     S
O540   Cu610   1.965   .     S
O542   C598    1.218   1_455 S
O544   C599    1.218   1_455 S
O551   Cu609   1.965   .     S
O556   Cu610   1.965   .     S
O559   Cu609   1.965   .     S
O560   Cu723   1.965   .     S
C561   O641    1.303   .     A
C561   O667    1.307   .     A
C561   C590    1.453   .     S
C562   N637    1.380   .     A
C562   C597    1.484   .     S
C562   C899    1.428   .     S
C563   C598    1.484   .     S
C563   C2      1.428   1_655 S
C563   N526    1.380   1_655 S
C564   C599    1.484   .     S
C564   C944    1.428   1_655 S
C564   N525    1.380   1_655 S
C565   C600    1.484   .     S
C565   N864    1.380   .     S
C566   C601    1.484   .     S
C566   N639    1.380   .     A
C566   C1015   1.428   .     S
C567   C602    1.484   .     S
C567   N640    1.380   .     A
C568   C603    1.484   .     S
C568   C1013   1.428   .     S
C568   N863    1.380   .     S
C569   C580    1.385   .     A
C569   H613    1.083   .     S
C569   C588    1.402   .     A
C570   C587    1.398   .     A
C570   C581    1.381   .     A
C570   H624    1.078   .     S
C571   C578    1.385   .     A
C571   H630    1.083   .     S
C571   C587    1.402   .     A
C572   C589    1.453   .     S
C572   O663    1.303   .     A
C572   O652    1.307   .     A
C573   C588    1.398   .     A
C573   C579    1.381   .     A
C573   H631    1.078   .     S
C574   H632    1.083   .     S
C574   C590    1.402   .     A
C574   C585    1.385   .     A
C575   C589    1.398   .     A
C575   C586    1.381   .     A
C575   H633    1.078   .     S
C576   H634    1.083   .     S
C576   C582    1.385   .     A
C576   C589    1.402   .     A
C577   C590    1.398   .     A
C577   C584    1.381   .     A
C577   H635    1.078   .     S
C578   H636    1.083   .     S
C578   C592    1.402   .     A
C579   C591    1.398   .     A
C579   H614    1.078   .     S
C580   H615    1.083   .     S
C580   C591    1.402   .     A
C581   C592    1.398   .     A
C581   H616    1.078   .     S
C582   C595    1.402   .     A
C582   H617    1.083   .     S
C583   C588    1.453   .     S
C583   O671    1.307   .     A
C583   O668    1.303   .     A
C584   C593    1.398   .     A
C584   H618    1.078   .     S
C585   H619    1.083   .     S
C585   C593    1.402   .     A
C586   C595    1.398   .     A
C586   H620    1.078   .     S
C587   C594    1.453   .     S
C591   C607    1.453   .     S
C592   C606    1.453   .     S
C593   C605    1.453   .     S
C594   O670    1.303   .     A
C594   O669    1.307   .     A
C595   C604    1.453   .     S
C596   O650    1.398   .     S
C596   C608    1.484   .     S
C597   O653    1.398   .     S
C598   O655    1.398   .     S
C598   O542    1.218   1_655 S
C599   O657    1.398   .     S
C599   O544    1.218   1_655 S
C600   O659    1.398   .     S
C600   O658    1.218   .     D
C601   O661    1.398   .     S
C601   O660    1.218   .     D
C602   O662    1.218   .     D
C602   O664    1.398   .     S
C603   O665    1.218   .     D
C603   O666    1.398   .     S
C604   O672    1.303   .     A
C604   O644    1.307   .     A
C605   O642    1.307   .     A
C605   O643    1.303   .     A
C606   O645    1.303   .     A
C606   O648    1.307   .     A
C607   O646    1.307   .     A
C607   O647    1.303   .     A
C608   N638    1.380   .     A
Cu609  O669    1.965   .     S
Cu609  N637    2.045   .     S
Cu609  O641    1.965   .     S
Cu609  Cu610   2.722   .     S
Cu610  N638    2.045   .     S
Cu610  O670    1.965   .     S
Cu610  O667    1.965   .     S
Cu611  O646    1.965   .     S
Cu611  Cu612   2.722   .     S
Cu611  O643    1.965   .     S
Cu611  N639    2.045   .     S
Cu611  O872    1.965   1_545 S
Cu611  O896    1.965   1_545 S
Cu612  O642    1.965   .     S
Cu612  O647    1.965   .     S
Cu612  N640    2.045   .     S
Cu612  O868    1.965   1_545 S
Cu612  O869    1.965   1_545 S
H621   O650    1.014   .     S
H622   O653    1.014   .     S
H623   O655    1.014   .     S
H625   O657    1.014   .     S
H626   O659    1.014   .     S
H627   O661    1.014   .     S
H628   O664    1.014   .     S
H629   O666    1.014   .     S
N639   C792    1.380   1_545 S
N640   C789    1.380   1_545 S
O644   Cu836   1.965   .     S
O645   Cu836   1.965   .     S
O648   Cu835   1.965   .     S
O649   C484    1.218   1_655 S
O651   C485    1.218   1_655 S
O652   Cu498   1.965   1_655 S
O663   Cu497   1.965   1_655 S
O668   Cu498   1.965   1_655 S
O671   Cu497   1.965   1_655 S
O672   Cu835   1.965   .     S
C673   O753    1.303   .     A
C673   O779    1.307   .     A
C673   C702    1.453   .     S
C674   N749    1.380   .     A
C674   C709    1.484   .     S
C674   C1235   1.428   1_455 S
C675   C710    1.484   .     S
C675   N862    1.380   .     S
C676   C711    1.484   .     S
C676   C1280   1.428   .     S
C676   N861    1.380   .     S
C677   C712    1.484   .     S
C677   N528    1.380   1_565 S
C678   C713    1.484   .     S
C678   N751    1.380   .     A
C678   C1127   1.428   .     S
C679   C714    1.484   .     S
C679   N752    1.380   .     A
C680   C715    1.484   .     S
C680   C1125   1.428   .     S
C680   N527    1.380   1_565 S
C681   C692    1.385   .     A
C681   H725    1.083   .     S
C681   C700    1.402   .     A
C682   C699    1.398   .     A
C682   C693    1.381   .     A
C682   H736    1.078   .     S
C683   C690    1.385   .     A
C683   H742    1.083   .     S
C683   C699    1.402   .     A
C684   C701    1.453   .     S
C684   O775    1.303   .     A
C684   O764    1.307   .     A
C685   C700    1.398   .     A
C685   C691    1.381   .     A
C685   H743    1.078   .     S
C686   H744    1.083   .     S
C686   C702    1.402   .     A
C686   C697    1.385   .     A
C687   C701    1.398   .     A
C687   C698    1.381   .     A
C687   H745    1.078   .     S
C688   H746    1.083   .     S
C688   C694    1.385   .     A
C688   C701    1.402   .     A
C689   C702    1.398   .     A
C689   C696    1.381   .     A
C689   H747    1.078   .     S
C690   H748    1.083   .     S
C690   C704    1.402   .     A
C691   C703    1.398   .     A
C691   H726    1.078   .     S
C692   H727    1.083   .     S
C692   C703    1.402   .     A
C693   C704    1.398   .     A
C693   H728    1.078   .     S
C694   C707    1.402   .     A
C694   H729    1.083   .     S
C695   C700    1.453   .     S
C695   O783    1.307   .     A
C695   O780    1.303   .     A
C696   C705    1.398   .     A
C696   H730    1.078   .     S
C697   H731    1.083   .     S
C697   C705    1.402   .     A
C698   C707    1.398   .     A
C698   H732    1.078   .     S
C699   C706    1.453   .     S
C703   C719    1.453   .     S
C704   C718    1.453   .     S
C705   C717    1.453   .     S
C706   O782    1.303   .     A
C706   O781    1.307   .     A
C707   C716    1.453   .     S
C708   O762    1.398   .     S
C708   C720    1.484   .     S
C708   O873    1.218   1_455 S
C709   O765    1.398   .     S
C709   O875    1.218   1_455 S
C710   O767    1.398   .     S
C710   O878    1.218   .     S
C711   O769    1.398   .     S
C711   O880    1.218   .     S
C712   O771    1.398   .     S
C712   O770    1.218   .     D
C713   O773    1.398   .     S
C713   O772    1.218   .     D
C714   O774    1.218   .     D
C714   O776    1.398   .     S
C715   O777    1.218   .     D
C715   O778    1.398   .     S
C716   O784    1.303   .     A
C716   O756    1.307   .     A
C717   O754    1.307   .     A
C717   O755    1.303   .     A
C718   O757    1.303   .     A
C718   O760    1.307   .     A
C719   O758    1.307   .     A
C719   O759    1.303   .     A
C720   N750    1.380   .     A
C720   C340    1.428   1_455 S
Cu721  O781    1.965   .     S
Cu721  N749    2.045   .     S
Cu721  O753    1.965   .     S
Cu721  Cu722   2.722   .     S
Cu721  O887    1.965   1_455 S
Cu721  O895    1.965   1_455 S
Cu722  N750    2.045   .     S
Cu722  O782    1.965   .     S
Cu722  O779    1.965   .     S
Cu722  O876    1.965   1_455 S
Cu722  O892    1.965   1_455 S
Cu723  O758    1.965   .     S
Cu723  Cu724   2.722   .     S
Cu723  O755    1.965   .     S
Cu723  N751    2.045   .     S
Cu724  O754    1.965   .     S
Cu724  O759    1.965   .     S
Cu724  N752    2.045   .     S
H733   O762    1.014   .     S
H734   O765    1.014   .     S
H735   O767    1.014   .     S
H737   O769    1.014   .     S
H738   O771    1.014   .     S
H739   O773    1.014   .     S
H740   O776    1.014   .     S
H741   O778    1.014   .     S
N749   C788    1.380   1_455 S
N750   C787    1.380   1_455 S
O756   Cu500   1.965   1_565 S
O757   Cu500   1.965   1_565 S
O760   Cu499   1.965   1_565 S
O761   C820    1.218   .     S
O763   C821    1.218   .     S
O764   Cu834   1.965   .     S
O766   C822    1.218   1_455 S
O768   C823    1.218   1_455 S
O775   Cu833   1.965   .     S
O780   Cu834   1.965   .     S
O783   Cu833   1.965   .     S
O784   Cu499   1.965   1_565 S
C785   O865    1.303   .     A
C785   O891    1.307   .     A
C785   C814    1.453   .     S
C786   N861    1.380   .     A
C786   C821    1.484   .     S
C786   C1123   1.428   .     S
C787   C822    1.484   .     S
C787   C226    1.428   1_655 S
C787   N750    1.380   1_655 S
C788   C823    1.484   .     S
C788   C1168   1.428   1_655 S
C788   N749    1.380   1_655 S
C789   C824    1.484   .     S
C789   N640    1.380   1_565 S
C790   C825    1.484   .     S
C790   N863    1.380   .     A
C790   C1239   1.428   .     S
C791   C826    1.484   .     S
C791   N864    1.380   .     A
C792   C827    1.484   .     S
C792   C1237   1.428   .     S
C792   N639    1.380   1_565 S
C793   C804    1.385   .     A
C793   H837    1.083   .     S
C793   C812    1.402   .     A
C794   C811    1.398   .     A
C794   C805    1.381   .     A
C794   H848    1.078   .     S
C795   C802    1.385   .     A
C795   H854    1.083   .     S
C795   C811    1.402   .     A
C796   C813    1.453   .     S
C796   O887    1.303   .     A
C796   O876    1.307   .     A
C797   C812    1.398   .     A
C797   C803    1.381   .     A
C797   H855    1.078   .     S
C798   H856    1.083   .     S
C798   C814    1.402   .     A
C798   C809    1.385   .     A
C799   C813    1.398   .     A
C799   C810    1.381   .     A
C799   H857    1.078   .     S
C800   H858    1.083   .     S
C800   C806    1.385   .     A
C800   C813    1.402   .     A
C801   C814    1.398   .     A
C801   C808    1.381   .     A
C801   H859    1.078   .     S
C802   H860    1.083   .     S
C802   C816    1.402   .     A
C803   C815    1.398   .     A
C803   H838    1.078   .     S
C804   H839    1.083   .     S
C804   C815    1.402   .     A
C805   C816    1.398   .     A
C805   H840    1.078   .     S
C806   C819    1.402   .     A
C806   H841    1.083   .     S
C807   C812    1.453   .     S
C807   O895    1.307   .     A
C807   O892    1.303   .     A
C808   C817    1.398   .     A
C808   H842    1.078   .     S
C809   H843    1.083   .     S
C809   C817    1.402   .     A
C810   C819    1.398   .     A
C810   H844    1.078   .     S
C811   C818    1.453   .     S
C815   C831    1.453   .     S
C816   C830    1.453   .     S
C817   C829    1.453   .     S
C818   O894    1.303   .     A
C818   O893    1.307   .     A
C819   C828    1.453   .     S
C820   O874    1.398   .     S
C820   C832    1.484   .     S
C821   O877    1.398   .     S
C822   O879    1.398   .     S
C822   O766    1.218   1_655 S
C823   O881    1.398   .     S
C823   O768    1.218   1_655 S
C824   O883    1.398   .     S
C824   O882    1.218   .     D
C825   O885    1.398   .     S
C825   O884    1.218   .     D
C826   O886    1.218   .     D
C826   O888    1.398   .     S
C827   O889    1.218   .     D
C827   O890    1.398   .     S
C828   O896    1.303   .     A
C828   O868    1.307   .     A
C829   O866    1.307   .     A
C829   O867    1.303   .     A
C830   O869    1.303   .     A
C830   O872    1.307   .     A
C831   O870    1.307   .     A
C831   O871    1.303   .     A
C832   N862    1.380   .     A
Cu833  O893    1.965   .     S
Cu833  N861    2.045   .     S
Cu833  O865    1.965   .     S
Cu833  Cu834   2.722   .     S
Cu834  N862    2.045   .     S
Cu834  O894    1.965   .     S
Cu834  O891    1.965   .     S
Cu835  O870    1.965   .     S
Cu835  Cu836   2.722   .     S
Cu835  O867    1.965   .     S
Cu835  N863    2.045   .     S
Cu836  O866    1.965   .     S
Cu836  O871    1.965   .     S
Cu836  N864    2.045   .     S
H845   O874    1.014   .     S
H846   O877    1.014   .     S
H847   O879    1.014   .     S
H849   O881    1.014   .     S
H850   O883    1.014   .     S
H851   O885    1.014   .     S
H852   O888    1.014   .     S
H853   O890    1.014   .     S
O868   Cu612   1.965   1_565 S
O869   Cu612   1.965   1_565 S
O872   Cu611   1.965   1_565 S
O873   C708    1.218   1_655 S
O875   C709    1.218   1_655 S
O876   Cu722   1.965   1_655 S
O887   Cu721   1.965   1_655 S
O892   Cu722   1.965   1_655 S
O895   Cu721   1.965   1_655 S
O896   Cu611   1.965   1_565 S
C897   O977    1.303   .     A
C897   O1003   1.307   .     A
C897   C926    1.453   .     S
C898   N973    1.380   .     A
C898   C933    1.484   .     S
C898   C115    1.428   1_456 S
C899   C934    1.484   .     S
C899   N1086   1.380   .     S
C900   C935    1.484   .     S
C900   C160    1.428   1_556 S
C900   N1085   1.380   .     S
C901   C936    1.484   .     S
C901   N1200   1.380   .     S
C902   C937    1.484   .     S
C902   N975    1.380   .     A
C902   C7      1.428   1_556 S
C903   C938    1.484   .     S
C903   N976    1.380   .     A
C904   C939    1.484   .     S
C904   C5      1.428   1_556 S
C904   N1199   1.380   .     S
C905   C916    1.385   .     A
C905   H949    1.083   .     S
C905   C924    1.402   .     A
C906   C923    1.398   .     A
C906   C917    1.381   .     A
C906   H960    1.078   .     S
C907   C914    1.385   .     A
C907   H966    1.083   .     S
C907   C923    1.402   .     A
C908   C925    1.453   .     S
C908   O999    1.303   .     A
C908   O988    1.307   .     A
C909   C924    1.398   .     A
C909   C915    1.381   .     A
C909   H967    1.078   .     S
C910   H968    1.083   .     S
C910   C926    1.402   .     A
C910   C921    1.385   .     A
C911   C925    1.398   .     A
C911   C922    1.381   .     A
C911   H969    1.078   .     S
C912   H970    1.083   .     S
C912   C918    1.385   .     A
C912   C925    1.402   .     A
C913   C926    1.398   .     A
C913   C920    1.381   .     A
C913   H971    1.078   .     S
C914   H972    1.083   .     S
C914   C928    1.402   .     A
C915   C927    1.398   .     A
C915   H950    1.078   .     S
C916   H951    1.083   .     S
C916   C927    1.402   .     A
C917   C928    1.398   .     A
C917   H952    1.078   .     S
C918   C931    1.402   .     A
C918   H953    1.083   .     S
C919   C924    1.453   .     S
C919   O1007   1.307   .     A
C919   O1004   1.303   .     A
C920   C929    1.398   .     A
C920   H954    1.078   .     S
C921   H955    1.083   .     S
C921   C929    1.402   .     A
C922   C931    1.398   .     A
C922   H956    1.078   .     S
C923   C930    1.453   .     S
C927   C943    1.453   .     S
C928   C942    1.453   .     S
C929   C941    1.453   .     S
C930   O1006   1.303   .     A
C930   O1005   1.307   .     A
C931   C940    1.453   .     S
C932   O986    1.398   .     S
C932   C944    1.484   .     S
C932   O1097   1.218   1_455 S
C933   O989    1.398   .     S
C933   O1099   1.218   1_455 S
C934   O991    1.398   .     S
C934   O1102   1.218   .     S
C935   O993    1.398   .     S
C935   O1104   1.218   .     S
C936   O995    1.398   .     S
C936   O994    1.218   .     D
C937   O997    1.398   .     S
C937   O996    1.218   .     D
C938   O998    1.218   .     D
C938   O1000   1.398   .     S
C939   O1001   1.218   .     D
C939   O1002   1.398   .     S
C940   O1008   1.303   .     A
C940   O980    1.307   .     A
C941   O978    1.307   .     A
C941   O979    1.303   .     A
C942   O981    1.303   .     A
C942   O984    1.307   .     A
C943   O982    1.307   .     A
C943   O983    1.303   .     A
C944   N974    1.380   .     A
C944   C564    1.428   1_455 S
Cu945  O1005   1.965   .     S
Cu945  N973    2.045   .     S
Cu945  O977    1.965   .     S
Cu945  Cu946   2.722   .     S
Cu945  O1111   1.965   1_455 S
Cu945  O1119   1.965   1_455 S
Cu946  N974    2.045   .     S
Cu946  O1006   1.965   .     S
Cu946  O1003   1.965   .     S
Cu946  O1100   1.965   1_455 S
Cu946  O1116   1.965   1_455 S
Cu947  O982    1.965   .     S
Cu947  Cu948   2.722   .     S
Cu947  O979    1.965   .     S
Cu947  N975    2.045   .     S
Cu947  O1208   1.965   1_545 S
Cu947  O1232   1.965   1_545 S
Cu948  O978    1.965   .     S
Cu948  O983    1.965   .     S
Cu948  N976    2.045   .     S
Cu948  O1204   1.965   1_545 S
Cu948  O1205   1.965   1_545 S
H957   O986    1.014   .     S
H958   O989    1.014   .     S
H959   O991    1.014   .     S
H961   O993    1.014   .     S
H962   O995    1.014   .     S
H963   O997    1.014   .     S
H964   O1000   1.014   .     S
H965   O1002   1.014   .     S
N973   C1012   1.380   1_455 S
N974   C1011   1.380   1_455 S
N975   C1128   1.380   1_545 S
N976   C1125   1.380   1_545 S
O980   Cu1172  1.965   .     S
O981   Cu1172  1.965   .     S
O984   Cu1171  1.965   .     S
O985   C1044   1.218   .     S
O987   C1045   1.218   .     S
O988   Cu1058  1.965   .     S
O990   C1046   1.218   1_455 S
O992   C1047   1.218   1_455 S
O999   Cu1057  1.965   .     S
O1004  Cu1058  1.965   .     S
O1007  Cu1057  1.965   .     S
O1008  Cu1171  1.965   .     S
C1009  O1089   1.303   .     A
C1009  O1115   1.307   .     A
C1009  C1038   1.453   .     S
C1010  N1085   1.380   .     A
C1010  C1045   1.484   .     S
C1010  C3      1.428   1_556 S
C1011  C1046   1.484   .     S
C1011  C450    1.428   1_655 S
C1011  N974    1.380   1_655 S
C1012  C1047   1.484   .     S
C1012  C48     1.428   1_656 S
C1012  N973    1.380   1_655 S
C1013  C1048   1.484   .     S
C1013  N1312   1.380   .     S
C1014  C1049   1.484   .     S
C1014  N1087   1.380   .     A
C1014  C119    1.428   1_556 S
C1015  C1050   1.484   .     S
C1015  N1088   1.380   .     A
C1016  C1051   1.484   .     S
C1016  C117    1.428   1_556 S
C1016  N1311   1.380   .     S
C1017  C1028   1.385   .     A
C1017  H1061   1.083   .     S
C1017  C1036   1.402   .     A
C1018  C1035   1.398   .     A
C1018  C1029   1.381   .     A
C1018  H1072   1.078   .     S
C1019  C1026   1.385   .     A
C1019  H1078   1.083   .     S
C1019  C1035   1.402   .     A
C1020  C1037   1.453   .     S
C1020  O1111   1.303   .     A
C1020  O1100   1.307   .     A
C1021  C1036   1.398   .     A
C1021  C1027   1.381   .     A
C1021  H1079   1.078   .     S
C1022  H1080   1.083   .     S
C1022  C1038   1.402   .     A
C1022  C1033   1.385   .     A
C1023  C1037   1.398   .     A
C1023  C1034   1.381   .     A
C1023  H1081   1.078   .     S
C1024  H1082   1.083   .     S
C1024  C1030   1.385   .     A
C1024  C1037   1.402   .     A
C1025  C1038   1.398   .     A
C1025  C1032   1.381   .     A
C1025  H1083   1.078   .     S
C1026  H1084   1.083   .     S
C1026  C1040   1.402   .     A
C1027  C1039   1.398   .     A
C1027  H1062   1.078   .     S
C1028  H1063   1.083   .     S
C1028  C1039   1.402   .     A
C1029  C1040   1.398   .     A
C1029  H1064   1.078   .     S
C1030  C1043   1.402   .     A
C1030  H1065   1.083   .     S
C1031  C1036   1.453   .     S
C1031  O1119   1.307   .     A
C1031  O1116   1.303   .     A
C1032  C1041   1.398   .     A
C1032  H1066   1.078   .     S
C1033  H1067   1.083   .     S
C1033  C1041   1.402   .     A
C1034  C1043   1.398   .     A
C1034  H1068   1.078   .     S
C1035  C1042   1.453   .     S
C1039  C1055   1.453   .     S
C1040  C1054   1.453   .     S
C1041  C1053   1.453   .     S
C1042  O1118   1.303   .     A
C1042  O1117   1.307   .     A
C1043  C1052   1.453   .     S
C1044  O1098   1.398   .     S
C1044  C1056   1.484   .     S
C1045  O1101   1.398   .     S
C1046  O1103   1.398   .     S
C1046  O990    1.218   1_655 S
C1047  O1105   1.398   .     S
C1047  O992    1.218   1_655 S
C1048  O1107   1.398   .     S
C1048  O1106   1.218   .     D
C1049  O1109   1.398   .     S
C1049  O1108   1.218   .     D
C1050  O1110   1.218   .     D
C1050  O1112   1.398   .     S
C1051  O1113   1.218   .     D
C1051  O1114   1.398   .     S
C1052  O1120   1.303   .     A
C1052  O1092   1.307   .     A
C1053  O1090   1.307   .     A
C1053  O1091   1.303   .     A
C1054  O1093   1.303   .     A
C1054  O1096   1.307   .     A
C1055  O1094   1.307   .     A
C1055  O1095   1.303   .     A
C1056  N1086   1.380   .     A
Cu1057 O1117   1.965   .     S
Cu1057 N1085   2.045   .     S
Cu1057 O1089   1.965   .     S
Cu1057 Cu1058  2.722   .     S
Cu1058 N1086   2.045   .     S
Cu1058 O1118   1.965   .     S
Cu1058 O1115   1.965   .     S
Cu1059 O1094   1.965   .     S
Cu1059 Cu1060  2.722   .     S
Cu1059 O1091   1.965   .     S
Cu1059 N1087   2.045   .     S
Cu1059 O1320   1.965   1_545 S
Cu1059 O1344   1.965   1_545 S
Cu1060 O1090   1.965   .     S
Cu1060 O1095   1.965   .     S
Cu1060 N1088   2.045   .     S
Cu1060 O1316   1.965   1_545 S
Cu1060 O1317   1.965   1_545 S
H1069  O1098   1.014   .     S
H1070  O1101   1.014   .     S
H1071  O1103   1.014   .     S
H1073  O1105   1.014   .     S
H1074  O1107   1.014   .     S
H1075  O1109   1.014   .     S
H1076  O1112   1.014   .     S
H1077  O1114   1.014   .     S
N1087  C1240   1.380   1_545 S
N1088  C1237   1.380   1_545 S
O1092  Cu1284  1.965   .     S
O1093  Cu1284  1.965   .     S
O1096  Cu1283  1.965   .     S
O1097  C932    1.218   1_655 S
O1099  C933    1.218   1_655 S
O1100  Cu946   1.965   1_655 S
O1111  Cu945   1.965   1_655 S
O1116  Cu946   1.965   1_655 S
O1119  Cu945   1.965   1_655 S
O1120  Cu1283  1.965   .     S
C1121  O1201   1.303   .     A
C1121  O1227   1.307   .     A
C1121  C1150   1.453   .     S
C1122  N1197   1.380   .     A
C1122  C1157   1.484   .     S
C1122  C339    1.428   1_456 S
C1123  C1158   1.484   .     S
C1123  N1310   1.380   .     S
C1124  C1159   1.484   .     S
C1124  C384    1.428   1_556 S
C1124  N1309   1.380   .     S
C1125  C1160   1.484   .     S
C1125  N976    1.380   1_565 S
C1126  C1161   1.484   .     S
C1126  N1199   1.380   .     A
C1126  C231    1.428   1_556 S
C1127  C1162   1.484   .     S
C1127  N1200   1.380   .     A
C1128  C1163   1.484   .     S
C1128  C229    1.428   1_556 S
C1128  N975    1.380   1_565 S
C1129  C1140   1.385   .     A
C1129  H1173   1.083   .     S
C1129  C1148   1.402   .     A
C1130  C1147   1.398   .     A
C1130  C1141   1.381   .     A
C1130  H1184   1.078   .     S
C1131  C1138   1.385   .     A
C1131  H1190   1.083   .     S
C1131  C1147   1.402   .     A
C1132  C1149   1.453   .     S
C1132  O1223   1.303   .     A
C1132  O1212   1.307   .     A
C1133  C1148   1.398   .     A
C1133  C1139   1.381   .     A
C1133  H1191   1.078   .     S
C1134  H1192   1.083   .     S
C1134  C1150   1.402   .     A
C1134  C1145   1.385   .     A
C1135  C1149   1.398   .     A
C1135  C1146   1.381   .     A
C1135  H1193   1.078   .     S
C1136  H1194   1.083   .     S
C1136  C1142   1.385   .     A
C1136  C1149   1.402   .     A
C1137  C1150   1.398   .     A
C1137  C1144   1.381   .     A
C1137  H1195   1.078   .     S
C1138  H1196   1.083   .     S
C1138  C1152   1.402   .     A
C1139  C1151   1.398   .     A
C1139  H1174   1.078   .     S
C1140  H1175   1.083   .     S
C1140  C1151   1.402   .     A
C1141  C1152   1.398   .     A
C1141  H1176   1.078   .     S
C1142  C1155   1.402   .     A
C1142  H1177   1.083   .     S
C1143  C1148   1.453   .     S
C1143  O1231   1.307   .     A
C1143  O1228   1.303   .     A
C1144  C1153   1.398   .     A
C1144  H1178   1.078   .     S
C1145  H1179   1.083   .     S
C1145  C1153   1.402   .     A
C1146  C1155   1.398   .     A
C1146  H1180   1.078   .     S
C1147  C1154   1.453   .     S
C1151  C1167   1.453   .     S
C1152  C1166   1.453   .     S
C1153  C1165   1.453   .     S
C1154  O1230   1.303   .     A
C1154  O1229   1.307   .     A
C1155  C1164   1.453   .     S
C1156  O1210   1.398   .     S
C1156  C1168   1.484   .     S
C1156  O1321   1.218   1_455 S
C1157  O1213   1.398   .     S
C1157  O1323   1.218   1_455 S
C1158  O1215   1.398   .     S
C1158  O1326   1.218   .     S
C1159  O1217   1.398   .     S
C1159  O1328   1.218   .     S
C1160  O1219   1.398   .     S
C1160  O1218   1.218   .     D
C1161  O1221   1.398   .     S
C1161  O1220   1.218   .     D
C1162  O1222   1.218   .     D
C1162  O1224   1.398   .     S
C1163  O1225   1.218   .     D
C1163  O1226   1.398   .     S
C1164  O1232   1.303   .     A
C1164  O1204   1.307   .     A
C1165  O1202   1.307   .     A
C1165  O1203   1.303   .     A
C1166  O1205   1.303   .     A
C1166  O1208   1.307   .     A
C1167  O1206   1.307   .     A
C1167  O1207   1.303   .     A
C1168  N1198   1.380   .     A
C1168  C788    1.428   1_455 S
Cu1169 O1229   1.965   .     S
Cu1169 N1197   2.045   .     S
Cu1169 O1201   1.965   .     S
Cu1169 Cu1170  2.722   .     S
Cu1169 O1335   1.965   1_455 S
Cu1169 O1343   1.965   1_455 S
Cu1170 N1198   2.045   .     S
Cu1170 O1230   1.965   .     S
Cu1170 O1227   1.965   .     S
Cu1170 O1324   1.965   1_455 S
Cu1170 O1340   1.965   1_455 S
Cu1171 O1206   1.965   .     S
Cu1171 Cu1172  2.722   .     S
Cu1171 O1203   1.965   .     S
Cu1171 N1199   2.045   .     S
Cu1172 O1202   1.965   .     S
Cu1172 O1207   1.965   .     S
Cu1172 N1200   2.045   .     S
H1181  O1210   1.014   .     S
H1182  O1213   1.014   .     S
H1183  O1215   1.014   .     S
H1185  O1217   1.014   .     S
H1186  O1219   1.014   .     S
H1187  O1221   1.014   .     S
H1188  O1224   1.014   .     S
H1189  O1226   1.014   .     S
N1197  C1236   1.380   1_455 S
N1198  C1235   1.380   1_455 S
O1204  Cu948   1.965   1_565 S
O1205  Cu948   1.965   1_565 S
O1208  Cu947   1.965   1_565 S
O1209  C1268   1.218   .     S
O1211  C1269   1.218   .     S
O1212  Cu1282  1.965   .     S
O1214  C1270   1.218   1_455 S
O1216  C1271   1.218   1_455 S
O1223  Cu1281  1.965   .     S
O1228  Cu1282  1.965   .     S
O1231  Cu1281  1.965   .     S
O1232  Cu947   1.965   1_565 S
C1233  O1313   1.303   .     A
C1233  O1339   1.307   .     A
C1233  C1262   1.453   .     S
C1234  N1309   1.380   .     A
C1234  C1269   1.484   .     S
C1234  C227    1.428   1_556 S
C1235  C1270   1.484   .     S
C1235  C674    1.428   1_655 S
C1235  N1198   1.380   1_655 S
C1236  C1271   1.484   .     S
C1236  C272    1.428   1_656 S
C1236  N1197   1.380   1_655 S
C1237  C1272   1.484   .     S
C1237  N1088   1.380   1_565 S
C1238  C1273   1.484   .     S
C1238  N1311   1.380   .     A
C1238  C343    1.428   1_556 S
C1239  C1274   1.484   .     S
C1239  N1312   1.380   .     A
C1240  C1275   1.484   .     S
C1240  C341    1.428   1_556 S
C1240  N1087   1.380   1_565 S
C1241  C1252   1.385   .     A
C1241  H1285   1.083   .     S
C1241  C1260   1.402   .     A
C1242  C1259   1.398   .     A
C1242  C1253   1.381   .     A
C1242  H1296   1.078   .     S
C1243  C1250   1.385   .     A
C1243  H1302   1.083   .     S
C1243  C1259   1.402   .     A
C1244  C1261   1.453   .     S
C1244  O1335   1.303   .     A
C1244  O1324   1.307   .     A
C1245  C1260   1.398   .     A
C1245  C1251   1.381   .     A
C1245  H1303   1.078   .     S
C1246  H1304   1.083   .     S
C1246  C1262   1.402   .     A
C1246  C1257   1.385   .     A
C1247  C1261   1.398   .     A
C1247  C1258   1.381   .     A
C1247  H1305   1.078   .     S
C1248  H1306   1.083   .     S
C1248  C1254   1.385   .     A
C1248  C1261   1.402   .     A
C1249  C1262   1.398   .     A
C1249  C1256   1.381   .     A
C1249  H1307   1.078   .     S
C1250  H1308   1.083   .     S
C1250  C1264   1.402   .     A
C1251  C1263   1.398   .     A
C1251  H1286   1.078   .     S
C1252  H1287   1.083   .     S
C1252  C1263   1.402   .     A
C1253  C1264   1.398   .     A
C1253  H1288   1.078   .     S
C1254  C1267   1.402   .     A
C1254  H1289   1.083   .     S
C1255  C1260   1.453   .     S
C1255  O1343   1.307   .     A
C1255  O1340   1.303   .     A
C1256  C1265   1.398   .     A
C1256  H1290   1.078   .     S
C1257  H1291   1.083   .     S
C1257  C1265   1.402   .     A
C1258  C1267   1.398   .     A
C1258  H1292   1.078   .     S
C1259  C1266   1.453   .     S
C1263  C1279   1.453   .     S
C1264  C1278   1.453   .     S
C1265  C1277   1.453   .     S
C1266  O1342   1.303   .     A
C1266  O1341   1.307   .     A
C1267  C1276   1.453   .     S
C1268  O1322   1.398   .     S
C1268  C1280   1.484   .     S
C1269  O1325   1.398   .     S
C1270  O1327   1.398   .     S
C1270  O1214   1.218   1_655 S
C1271  O1329   1.398   .     S
C1271  O1216   1.218   1_655 S
C1272  O1331   1.398   .     S
C1272  O1330   1.218   .     D
C1273  O1333   1.398   .     S
C1273  O1332   1.218   .     D
C1274  O1334   1.218   .     D
C1274  O1336   1.398   .     S
C1275  O1337   1.218   .     D
C1275  O1338   1.398   .     S
C1276  O1344   1.303   .     A
C1276  O1316   1.307   .     A
C1277  O1314   1.307   .     A
C1277  O1315   1.303   .     A
C1278  O1317   1.303   .     A
C1278  O1320   1.307   .     A
C1279  O1318   1.307   .     A
C1279  O1319   1.303   .     A
C1280  N1310   1.380   .     A
Cu1281 O1341   1.965   .     S
Cu1281 N1309   2.045   .     S
Cu1281 O1313   1.965   .     S
Cu1281 Cu1282  2.722   .     S
Cu1282 N1310   2.045   .     S
Cu1282 O1342   1.965   .     S
Cu1282 O1339   1.965   .     S
Cu1283 O1318   1.965   .     S
Cu1283 Cu1284  2.722   .     S
Cu1283 O1315   1.965   .     S
Cu1283 N1311   2.045   .     S
Cu1284 O1314   1.965   .     S
Cu1284 O1319   1.965   .     S
Cu1284 N1312   2.045   .     S
H1293  O1322   1.014   .     S
H1294  O1325   1.014   .     S
H1295  O1327   1.014   .     S
H1297  O1329   1.014   .     S
H1298  O1331   1.014   .     S
H1299  O1333   1.014   .     S
H1300  O1336   1.014   .     S
H1301  O1338   1.014   .     S
O1316  Cu1060  1.965   1_565 S
O1317  Cu1060  1.965   1_565 S
O1320  Cu1059  1.965   1_565 S
O1321  C1156   1.218   1_655 S
O1323  C1157   1.218   1_655 S
O1324  Cu1170  1.965   1_655 S
O1335  Cu1169  1.965   1_655 S
O1340  Cu1170  1.965   1_655 S
O1343  Cu1169  1.965   1_655 S
O1344  Cu1059  1.965   1_565 S
