data_str_m2_o2_o10_pcu_sym.241
_audit_creation_date              2020-01-03
_audit_creation_method            'Materials Studio'
_symmetry_space_group_name_H-M    'P1'
_symmetry_Int_Tables_number       1
_symmetry_cell_setting            triclinic
loop_
_symmetry_equiv_pos_as_xyz
  x,y,z
_cell_length_a                    26.1909
_cell_length_b                    30.3087
_cell_length_c                    27.8928
_cell_angle_alpha                 90.8995
_cell_angle_beta                  98.5130
_cell_angle_gamma                 91.0590
loop_
_atom_site_label
_atom_site_type_symbol
_atom_site_fract_x
_atom_site_fract_y
_atom_site_fract_z
_atom_site_U_iso_or_equiv
_atom_site_adp_type
_atom_site_occupancy
C1     C     0.16758   0.16500   0.24982   0.00000  Uiso   1.00
C2     C     0.16623   0.33468   0.25024   0.00000  Uiso   1.00
C3     C     0.18226   0.28807   0.05727   0.00000  Uiso   1.00
C4     C     0.12307   0.23655   0.43977   0.00000  Uiso   1.00
C5     C     0.18466   0.28614   0.10796   0.00000  Uiso   1.00
C6     C     0.12476   0.23444   0.38950   0.00000  Uiso   1.00
C7     C     0.14583   0.21473   0.10036   0.00000  Uiso   1.00
C8     C     0.20830   0.26758   0.40190   0.00000  Uiso   1.00
C9     C     0.14809   0.21373   0.04957   0.00000  Uiso   1.00
C10    C     0.21029   0.26564   0.45298   0.00000  Uiso   1.00
C11    C     0.16553   0.25122   0.02718   0.00000  Uiso   1.00
C12    C     0.16620   0.25169   0.47277   0.00000  Uiso   1.00
C13    C     0.06790   0.24992   0.23747   0.00000  Uiso   1.00
C14    C     0.26544   0.25012   0.26253   0.00000  Uiso   1.00
C15    C     0.01246   0.24997   0.23070   0.00000  Uiso   1.00
C16    C     0.32088   0.25024   0.26932   0.00000  Uiso   1.00
C17    C     0.14270   0.04738   0.28260   0.00000  Uiso   1.00
C18    C     0.20884   0.45170   0.23796   0.00000  Uiso   1.00
C19    C     0.14218   0.09329   0.28229   0.00000  Uiso   1.00
C20    C     0.20825   0.40572   0.23746   0.00000  Uiso   1.00
C21    C     0.16852   0.11653   0.24950   0.00000  Uiso   1.00
C22    C     0.16568   0.38258   0.25065   0.00000  Uiso   1.00
C23    C     0.19490   0.09282   0.21670   0.00000  Uiso   1.00
C24    C     0.12309   0.40541   0.26356   0.00000  Uiso   1.00
C25    C     0.19188   0.04666   0.21576   0.00000  Uiso   1.00
C26    C     0.12355   0.45151   0.26183   0.00000  Uiso   1.00
C27    C     0.16675   0.02369   0.24907   0.00000  Uiso   1.00
C28    C     0.16635   0.47496   0.24949   0.00000  Uiso   1.00
Cu29   Cu    0.16667   0.24999   0.29822   0.00000  Uiso   1.00
Cu30   Cu    0.16667   0.25000   0.20179   0.00000  Uiso   1.00
H31    H     0.32543   0.24973   0.19379   0.00000  Uiso   1.00
H32    H     0.00789   0.25052   0.30624   0.00000  Uiso   1.00
H33    H     0.12412   0.03045   0.30945   0.00000  Uiso   1.00
H34    H     0.24294   0.46897   0.22971   0.00000  Uiso   1.00
H35    H     0.21021   0.02854   0.18945   0.00000  Uiso   1.00
H36    H     0.08992   0.46910   0.26932   0.00000  Uiso   1.00
H37    H     0.19312   0.31870   0.04187   0.00000  Uiso   1.00
H38    H     0.08800   0.22586   0.45278   0.00000  Uiso   1.00
H39    H     0.19967   0.31448   0.12991   0.00000  Uiso   1.00
H40    H     0.09160   0.22118   0.36559   0.00000  Uiso   1.00
N41    N     0.16667   0.25001   0.12935   0.00000  Uiso   1.00
N42    N     0.16667   0.24999   0.37066   0.00000  Uiso   1.00
O43    O     0.16667   0.18572   0.29072   0.00000  Uiso   1.00
O44    O     0.16666   0.31427   0.20929   0.00000  Uiso   1.00
O45    O     0.16667   0.18573   0.20928   0.00000  Uiso   1.00
O46    O     0.16666   0.31427   0.29072   0.00000  Uiso   1.00
O47    O     0.09161   0.24999   0.28132   0.00000  Uiso   1.00
O48    O     0.24172   0.25000   0.21868   0.00000  Uiso   1.00
O49    O     0.09161   0.25000   0.19989   0.00000  Uiso   1.00
O50    O     0.24172   0.25000   0.30012   0.00000  Uiso   1.00
N51    N     0.11401   0.11616   0.31503   0.00000  Uiso   1.00
H52    H     0.07551   0.10513   0.30824   0.00000  Uiso   1.00
H53    H     0.12906   0.10762   0.35042   0.00000  Uiso   1.00
N54    N     0.25144   0.38239   0.22444   0.00000  Uiso   1.00
H55    H     0.28430   0.39261   0.24818   0.00000  Uiso   1.00
H56    H     0.25659   0.39161   0.18949   0.00000  Uiso   1.00
C57    C     0.22840   0.11506   0.18531   0.00000  Uiso   1.00
H58    H     0.24333   0.14831   0.19372   0.00000  Uiso   1.00
O59    O     0.24069   0.09605   0.14995   0.00000  Uiso   1.00
C60    C     0.07751   0.38172   0.27763   0.00000  Uiso   1.00
H61    H     0.07269   0.34628   0.27247   0.00000  Uiso   1.00
O62    O     0.04476   0.40161   0.29570   0.00000  Uiso   1.00
C63    C     0.11614   0.17943   0.12058   0.00000  Uiso   1.00
H64    H     0.08796   0.18775   0.14373   0.00000  Uiso   1.00
O65    O     0.12301   0.14054   0.11204   0.00000  Uiso   1.00
C66    C     0.24978   0.29282   0.38322   0.00000  Uiso   1.00
H67    H     0.24031   0.31652   0.35488   0.00000  Uiso   1.00
O68    O     0.29518   0.28739   0.39916   0.00000  Uiso   1.00
N69    N     0.13224   0.17506   0.02033   0.00000  Uiso   1.00
H70    H     0.09382   0.16707   0.02316   0.00000  Uiso   1.00
H71    H     0.15585   0.14896   0.03282   0.00000  Uiso   1.00
N72    N     0.25784   0.27726   0.48367   0.00000  Uiso   1.00
H73    H     0.25518   0.30861   0.49890   0.00000  Uiso   1.00
H74    H     0.26566   0.25396   0.01088   0.00000  Uiso   1.00
C75    C     0.50092   0.16500   0.24982   0.00000  Uiso   1.00
C76    C     0.49956   0.33468   0.25024   0.00000  Uiso   1.00
C77    C     0.51559   0.28807   0.05727   0.00000  Uiso   1.00
C78    C     0.45640   0.23655   0.43977   0.00000  Uiso   1.00
C79    C     0.51800   0.28614   0.10796   0.00000  Uiso   1.00
C80    C     0.45809   0.23444   0.38950   0.00000  Uiso   1.00
C81    C     0.47916   0.21473   0.10036   0.00000  Uiso   1.00
C82    C     0.54163   0.26758   0.40190   0.00000  Uiso   1.00
C83    C     0.48142   0.21373   0.04957   0.00000  Uiso   1.00
C84    C     0.54363   0.26564   0.45298   0.00000  Uiso   1.00
C85    C     0.49886   0.25122   0.02718   0.00000  Uiso   1.00
C86    C     0.49953   0.25169   0.47277   0.00000  Uiso   1.00
C87    C     0.40123   0.24992   0.23747   0.00000  Uiso   1.00
C88    C     0.59877   0.25012   0.26253   0.00000  Uiso   1.00
C89    C     0.34579   0.24997   0.23070   0.00000  Uiso   1.00
C90    C     0.65421   0.25024   0.26932   0.00000  Uiso   1.00
C91    C     0.47603   0.04738   0.28260   0.00000  Uiso   1.00
C92    C     0.54217   0.45170   0.23796   0.00000  Uiso   1.00
C93    C     0.47551   0.09329   0.28229   0.00000  Uiso   1.00
C94    C     0.54158   0.40572   0.23746   0.00000  Uiso   1.00
C95    C     0.50185   0.11653   0.24950   0.00000  Uiso   1.00
C96    C     0.49901   0.38258   0.25065   0.00000  Uiso   1.00
C97    C     0.52823   0.09282   0.21670   0.00000  Uiso   1.00
C98    C     0.45643   0.40541   0.26356   0.00000  Uiso   1.00
C99    C     0.52521   0.04666   0.21576   0.00000  Uiso   1.00
C100   C     0.45688   0.45151   0.26183   0.00000  Uiso   1.00
C101   C     0.50009   0.02369   0.24907   0.00000  Uiso   1.00
C102   C     0.49968   0.47496   0.24949   0.00000  Uiso   1.00
Cu103  Cu    0.50000   0.24999   0.29822   0.00000  Uiso   1.00
Cu104  Cu    0.50000   0.25000   0.20179   0.00000  Uiso   1.00
H105   H     0.65876   0.24973   0.19379   0.00000  Uiso   1.00
H106   H     0.34123   0.25052   0.30624   0.00000  Uiso   1.00
H107   H     0.45745   0.03045   0.30945   0.00000  Uiso   1.00
H108   H     0.57627   0.46897   0.22971   0.00000  Uiso   1.00
H109   H     0.54355   0.02854   0.18945   0.00000  Uiso   1.00
H110   H     0.42325   0.46910   0.26932   0.00000  Uiso   1.00
H111   H     0.52645   0.31870   0.04187   0.00000  Uiso   1.00
H112   H     0.42133   0.22586   0.45278   0.00000  Uiso   1.00
H113   H     0.53301   0.31448   0.12991   0.00000  Uiso   1.00
H114   H     0.42494   0.22118   0.36559   0.00000  Uiso   1.00
N115   N     0.50000   0.25001   0.12935   0.00000  Uiso   1.00
N116   N     0.50000   0.24999   0.37066   0.00000  Uiso   1.00
O117   O     0.50000   0.18572   0.29072   0.00000  Uiso   1.00
O118   O     0.50000   0.31427   0.20929   0.00000  Uiso   1.00
O119   O     0.50000   0.18573   0.20928   0.00000  Uiso   1.00
O120   O     0.50000   0.31427   0.29072   0.00000  Uiso   1.00
O121   O     0.42495   0.24999   0.28132   0.00000  Uiso   1.00
O122   O     0.57505   0.25000   0.21868   0.00000  Uiso   1.00
O123   O     0.42495   0.25000   0.19989   0.00000  Uiso   1.00
O124   O     0.57505   0.25000   0.30012   0.00000  Uiso   1.00
N125   N     0.44734   0.11616   0.31503   0.00000  Uiso   1.00
H126   H     0.40885   0.10513   0.30824   0.00000  Uiso   1.00
H127   H     0.46240   0.10762   0.35042   0.00000  Uiso   1.00
N128   N     0.58477   0.38239   0.22444   0.00000  Uiso   1.00
H129   H     0.61763   0.39261   0.24818   0.00000  Uiso   1.00
H130   H     0.58992   0.39161   0.18949   0.00000  Uiso   1.00
C131   C     0.56173   0.11506   0.18531   0.00000  Uiso   1.00
H132   H     0.57667   0.14831   0.19372   0.00000  Uiso   1.00
O133   O     0.57402   0.09605   0.14995   0.00000  Uiso   1.00
C134   C     0.41084   0.38172   0.27763   0.00000  Uiso   1.00
H135   H     0.40603   0.34628   0.27247   0.00000  Uiso   1.00
O136   O     0.37809   0.40161   0.29570   0.00000  Uiso   1.00
C137   C     0.44947   0.17943   0.12058   0.00000  Uiso   1.00
H138   H     0.42130   0.18775   0.14373   0.00000  Uiso   1.00
O139   O     0.45634   0.14054   0.11204   0.00000  Uiso   1.00
C140   C     0.58311   0.29282   0.38322   0.00000  Uiso   1.00
H141   H     0.57365   0.31652   0.35488   0.00000  Uiso   1.00
O142   O     0.62851   0.28739   0.39916   0.00000  Uiso   1.00
N143   N     0.46558   0.17506   0.02033   0.00000  Uiso   1.00
H144   H     0.42715   0.16707   0.02316   0.00000  Uiso   1.00
H145   H     0.48918   0.14896   0.03282   0.00000  Uiso   1.00
N146   N     0.59117   0.27726   0.48367   0.00000  Uiso   1.00
H147   H     0.58852   0.30861   0.49890   0.00000  Uiso   1.00
H148   H     0.59900   0.25396   0.01088   0.00000  Uiso   1.00
C149   C     0.83425   0.16500   0.24982   0.00000  Uiso   1.00
C150   C     0.83289   0.33468   0.25024   0.00000  Uiso   1.00
C151   C     0.84893   0.28807   0.05727   0.00000  Uiso   1.00
C152   C     0.78974   0.23655   0.43977   0.00000  Uiso   1.00
C153   C     0.85133   0.28614   0.10796   0.00000  Uiso   1.00
C154   C     0.79142   0.23444   0.38950   0.00000  Uiso   1.00
C155   C     0.81250   0.21473   0.10036   0.00000  Uiso   1.00
C156   C     0.87496   0.26758   0.40190   0.00000  Uiso   1.00
C157   C     0.81476   0.21373   0.04957   0.00000  Uiso   1.00
C158   C     0.87696   0.26564   0.45298   0.00000  Uiso   1.00
C159   C     0.83220   0.25122   0.02718   0.00000  Uiso   1.00
C160   C     0.83287   0.25169   0.47277   0.00000  Uiso   1.00
C161   C     0.73456   0.24992   0.23747   0.00000  Uiso   1.00
C162   C     0.93210   0.25012   0.26253   0.00000  Uiso   1.00
C163   C     0.67913   0.24997   0.23070   0.00000  Uiso   1.00
C164   C     0.98754   0.25024   0.26932   0.00000  Uiso   1.00
C165   C     0.80936   0.04738   0.28260   0.00000  Uiso   1.00
C166   C     0.87551   0.45170   0.23796   0.00000  Uiso   1.00
C167   C     0.80885   0.09329   0.28229   0.00000  Uiso   1.00
C168   C     0.87491   0.40572   0.23746   0.00000  Uiso   1.00
C169   C     0.83519   0.11653   0.24950   0.00000  Uiso   1.00
C170   C     0.83235   0.38258   0.25065   0.00000  Uiso   1.00
C171   C     0.86156   0.09282   0.21670   0.00000  Uiso   1.00
C172   C     0.78976   0.40541   0.26356   0.00000  Uiso   1.00
C173   C     0.85855   0.04666   0.21576   0.00000  Uiso   1.00
C174   C     0.79021   0.45151   0.26183   0.00000  Uiso   1.00
C175   C     0.83342   0.02369   0.24907   0.00000  Uiso   1.00
C176   C     0.83301   0.47496   0.24949   0.00000  Uiso   1.00
Cu177  Cu    0.83333   0.24999   0.29822   0.00000  Uiso   1.00
Cu178  Cu    0.83333   0.25000   0.20179   0.00000  Uiso   1.00
H179   H     0.99209   0.24973   0.19379   0.00000  Uiso   1.00
H180   H     0.67456   0.25052   0.30624   0.00000  Uiso   1.00
H181   H     0.79078   0.03045   0.30945   0.00000  Uiso   1.00
H182   H     0.90961   0.46897   0.22971   0.00000  Uiso   1.00
H183   H     0.87688   0.02854   0.18945   0.00000  Uiso   1.00
H184   H     0.75659   0.46910   0.26932   0.00000  Uiso   1.00
H185   H     0.85979   0.31870   0.04187   0.00000  Uiso   1.00
H186   H     0.75467   0.22586   0.45278   0.00000  Uiso   1.00
H187   H     0.86634   0.31448   0.12991   0.00000  Uiso   1.00
H188   H     0.75827   0.22118   0.36559   0.00000  Uiso   1.00
N189   N     0.83333   0.25001   0.12935   0.00000  Uiso   1.00
N190   N     0.83333   0.24999   0.37066   0.00000  Uiso   1.00
O191   O     0.83334   0.18572   0.29072   0.00000  Uiso   1.00
O192   O     0.83333   0.31427   0.20929   0.00000  Uiso   1.00
O193   O     0.83334   0.18573   0.20928   0.00000  Uiso   1.00
O194   O     0.83333   0.31427   0.29072   0.00000  Uiso   1.00
O195   O     0.75828   0.24999   0.28132   0.00000  Uiso   1.00
O196   O     0.90839   0.25000   0.21868   0.00000  Uiso   1.00
O197   O     0.75828   0.25000   0.19989   0.00000  Uiso   1.00
O198   O     0.90839   0.25000   0.30012   0.00000  Uiso   1.00
N199   N     0.78068   0.11616   0.31503   0.00000  Uiso   1.00
H200   H     0.74218   0.10513   0.30824   0.00000  Uiso   1.00
H201   H     0.79573   0.10762   0.35042   0.00000  Uiso   1.00
N202   N     0.91810   0.38239   0.22444   0.00000  Uiso   1.00
H203   H     0.95097   0.39261   0.24818   0.00000  Uiso   1.00
H204   H     0.92325   0.39161   0.18949   0.00000  Uiso   1.00
C205   C     0.89507   0.11506   0.18531   0.00000  Uiso   1.00
H206   H     0.91000   0.14831   0.19372   0.00000  Uiso   1.00
O207   O     0.90736   0.09605   0.14995   0.00000  Uiso   1.00
C208   C     0.74418   0.38172   0.27763   0.00000  Uiso   1.00
H209   H     0.73936   0.34628   0.27247   0.00000  Uiso   1.00
O210   O     0.71143   0.40161   0.29570   0.00000  Uiso   1.00
C211   C     0.78281   0.17943   0.12058   0.00000  Uiso   1.00
H212   H     0.75463   0.18775   0.14373   0.00000  Uiso   1.00
O213   O     0.78967   0.14054   0.11204   0.00000  Uiso   1.00
C214   C     0.91644   0.29282   0.38322   0.00000  Uiso   1.00
H215   H     0.90698   0.31652   0.35488   0.00000  Uiso   1.00
O216   O     0.96184   0.28739   0.39916   0.00000  Uiso   1.00
N217   N     0.79891   0.17506   0.02033   0.00000  Uiso   1.00
H218   H     0.76048   0.16707   0.02316   0.00000  Uiso   1.00
H219   H     0.82251   0.14896   0.03282   0.00000  Uiso   1.00
N220   N     0.92450   0.27726   0.48367   0.00000  Uiso   1.00
H221   H     0.92185   0.30861   0.49890   0.00000  Uiso   1.00
H222   H     0.93233   0.25396   0.01088   0.00000  Uiso   1.00
C223   C     0.16758   0.66500   0.24982   0.00000  Uiso   1.00
C224   C     0.16623   0.83468   0.25024   0.00000  Uiso   1.00
C225   C     0.18226   0.78807   0.05727   0.00000  Uiso   1.00
C226   C     0.12307   0.73655   0.43977   0.00000  Uiso   1.00
C227   C     0.18466   0.78614   0.10796   0.00000  Uiso   1.00
C228   C     0.12476   0.73444   0.38950   0.00000  Uiso   1.00
C229   C     0.14583   0.71473   0.10036   0.00000  Uiso   1.00
C230   C     0.20830   0.76758   0.40190   0.00000  Uiso   1.00
C231   C     0.14809   0.71373   0.04957   0.00000  Uiso   1.00
C232   C     0.21029   0.76564   0.45298   0.00000  Uiso   1.00
C233   C     0.16553   0.75122   0.02718   0.00000  Uiso   1.00
C234   C     0.16620   0.75169   0.47277   0.00000  Uiso   1.00
C235   C     0.06790   0.74992   0.23747   0.00000  Uiso   1.00
C236   C     0.26544   0.75012   0.26253   0.00000  Uiso   1.00
C237   C     0.01246   0.74997   0.23070   0.00000  Uiso   1.00
C238   C     0.32088   0.75024   0.26932   0.00000  Uiso   1.00
C239   C     0.14270   0.54738   0.28260   0.00000  Uiso   1.00
C240   C     0.20884   0.95170   0.23796   0.00000  Uiso   1.00
C241   C     0.14218   0.59329   0.28229   0.00000  Uiso   1.00
C242   C     0.20825   0.90572   0.23746   0.00000  Uiso   1.00
C243   C     0.16852   0.61653   0.24950   0.00000  Uiso   1.00
C244   C     0.16568   0.88258   0.25065   0.00000  Uiso   1.00
C245   C     0.19490   0.59282   0.21670   0.00000  Uiso   1.00
C246   C     0.12309   0.90541   0.26356   0.00000  Uiso   1.00
C247   C     0.19188   0.54666   0.21576   0.00000  Uiso   1.00
C248   C     0.12355   0.95151   0.26183   0.00000  Uiso   1.00
C249   C     0.16675   0.52369   0.24907   0.00000  Uiso   1.00
C250   C     0.16635   0.97496   0.24949   0.00000  Uiso   1.00
Cu251  Cu    0.16667   0.74999   0.29822   0.00000  Uiso   1.00
Cu252  Cu    0.16667   0.75000   0.20179   0.00000  Uiso   1.00
H253   H     0.32543   0.74973   0.19379   0.00000  Uiso   1.00
H254   H     0.00789   0.75052   0.30624   0.00000  Uiso   1.00
H255   H     0.12412   0.53045   0.30945   0.00000  Uiso   1.00
H256   H     0.24294   0.96897   0.22971   0.00000  Uiso   1.00
H257   H     0.21021   0.52854   0.18945   0.00000  Uiso   1.00
H258   H     0.08992   0.96910   0.26932   0.00000  Uiso   1.00
H259   H     0.19312   0.81870   0.04187   0.00000  Uiso   1.00
H260   H     0.08800   0.72586   0.45278   0.00000  Uiso   1.00
H261   H     0.19967   0.81448   0.12991   0.00000  Uiso   1.00
H262   H     0.09160   0.72118   0.36559   0.00000  Uiso   1.00
N263   N     0.16667   0.75001   0.12935   0.00000  Uiso   1.00
N264   N     0.16667   0.74999   0.37066   0.00000  Uiso   1.00
O265   O     0.16667   0.68572   0.29072   0.00000  Uiso   1.00
O266   O     0.16666   0.81427   0.20929   0.00000  Uiso   1.00
O267   O     0.16667   0.68573   0.20928   0.00000  Uiso   1.00
O268   O     0.16666   0.81427   0.29072   0.00000  Uiso   1.00
O269   O     0.09161   0.74999   0.28132   0.00000  Uiso   1.00
O270   O     0.24172   0.75000   0.21868   0.00000  Uiso   1.00
O271   O     0.09161   0.75000   0.19989   0.00000  Uiso   1.00
O272   O     0.24172   0.75000   0.30012   0.00000  Uiso   1.00
N273   N     0.11401   0.61616   0.31503   0.00000  Uiso   1.00
H274   H     0.07551   0.60513   0.30824   0.00000  Uiso   1.00
H275   H     0.12906   0.60762   0.35042   0.00000  Uiso   1.00
N276   N     0.25144   0.88239   0.22444   0.00000  Uiso   1.00
H277   H     0.28430   0.89261   0.24818   0.00000  Uiso   1.00
H278   H     0.25659   0.89161   0.18949   0.00000  Uiso   1.00
C279   C     0.22840   0.61506   0.18531   0.00000  Uiso   1.00
H280   H     0.24333   0.64831   0.19372   0.00000  Uiso   1.00
O281   O     0.24069   0.59605   0.14995   0.00000  Uiso   1.00
C282   C     0.07751   0.88172   0.27763   0.00000  Uiso   1.00
H283   H     0.07269   0.84628   0.27247   0.00000  Uiso   1.00
O284   O     0.04476   0.90161   0.29570   0.00000  Uiso   1.00
C285   C     0.11614   0.67943   0.12058   0.00000  Uiso   1.00
H286   H     0.08796   0.68775   0.14373   0.00000  Uiso   1.00
O287   O     0.12301   0.64054   0.11204   0.00000  Uiso   1.00
C288   C     0.24978   0.79282   0.38322   0.00000  Uiso   1.00
H289   H     0.24031   0.81652   0.35488   0.00000  Uiso   1.00
O290   O     0.29518   0.78739   0.39916   0.00000  Uiso   1.00
N291   N     0.13224   0.67506   0.02033   0.00000  Uiso   1.00
H292   H     0.09382   0.66707   0.02316   0.00000  Uiso   1.00
H293   H     0.15585   0.64896   0.03282   0.00000  Uiso   1.00
N294   N     0.25784   0.77726   0.48367   0.00000  Uiso   1.00
H295   H     0.25518   0.80861   0.49890   0.00000  Uiso   1.00
H296   H     0.26566   0.75396   0.01088   0.00000  Uiso   1.00
C297   C     0.50092   0.66500   0.24982   0.00000  Uiso   1.00
C298   C     0.49956   0.83468   0.25024   0.00000  Uiso   1.00
C299   C     0.51559   0.78807   0.05727   0.00000  Uiso   1.00
C300   C     0.45640   0.73655   0.43977   0.00000  Uiso   1.00
C301   C     0.51800   0.78614   0.10796   0.00000  Uiso   1.00
C302   C     0.45809   0.73444   0.38950   0.00000  Uiso   1.00
C303   C     0.47916   0.71473   0.10036   0.00000  Uiso   1.00
C304   C     0.54163   0.76758   0.40190   0.00000  Uiso   1.00
C305   C     0.48142   0.71373   0.04957   0.00000  Uiso   1.00
C306   C     0.54363   0.76564   0.45298   0.00000  Uiso   1.00
C307   C     0.49886   0.75122   0.02718   0.00000  Uiso   1.00
C308   C     0.49953   0.75169   0.47277   0.00000  Uiso   1.00
C309   C     0.40123   0.74992   0.23747   0.00000  Uiso   1.00
C310   C     0.59877   0.75012   0.26253   0.00000  Uiso   1.00
C311   C     0.34579   0.74997   0.23070   0.00000  Uiso   1.00
C312   C     0.65421   0.75024   0.26932   0.00000  Uiso   1.00
C313   C     0.47603   0.54738   0.28260   0.00000  Uiso   1.00
C314   C     0.54217   0.95170   0.23796   0.00000  Uiso   1.00
C315   C     0.47551   0.59329   0.28229   0.00000  Uiso   1.00
C316   C     0.54158   0.90572   0.23746   0.00000  Uiso   1.00
C317   C     0.50185   0.61653   0.24950   0.00000  Uiso   1.00
C318   C     0.49901   0.88258   0.25065   0.00000  Uiso   1.00
C319   C     0.52823   0.59282   0.21670   0.00000  Uiso   1.00
C320   C     0.45643   0.90541   0.26356   0.00000  Uiso   1.00
C321   C     0.52521   0.54666   0.21576   0.00000  Uiso   1.00
C322   C     0.45688   0.95151   0.26183   0.00000  Uiso   1.00
C323   C     0.50009   0.52369   0.24907   0.00000  Uiso   1.00
C324   C     0.49968   0.97496   0.24949   0.00000  Uiso   1.00
Cu325  Cu    0.50000   0.74999   0.29822   0.00000  Uiso   1.00
Cu326  Cu    0.50000   0.75000   0.20179   0.00000  Uiso   1.00
H327   H     0.65876   0.74973   0.19379   0.00000  Uiso   1.00
H328   H     0.34123   0.75052   0.30624   0.00000  Uiso   1.00
H329   H     0.45745   0.53045   0.30945   0.00000  Uiso   1.00
H330   H     0.57627   0.96897   0.22971   0.00000  Uiso   1.00
H331   H     0.54355   0.52854   0.18945   0.00000  Uiso   1.00
H332   H     0.42325   0.96910   0.26932   0.00000  Uiso   1.00
H333   H     0.52645   0.81870   0.04187   0.00000  Uiso   1.00
H334   H     0.42133   0.72586   0.45278   0.00000  Uiso   1.00
H335   H     0.53301   0.81448   0.12991   0.00000  Uiso   1.00
H336   H     0.42494   0.72118   0.36559   0.00000  Uiso   1.00
N337   N     0.50000   0.75001   0.12935   0.00000  Uiso   1.00
N338   N     0.50000   0.74999   0.37066   0.00000  Uiso   1.00
O339   O     0.50000   0.68572   0.29072   0.00000  Uiso   1.00
O340   O     0.50000   0.81427   0.20929   0.00000  Uiso   1.00
O341   O     0.50000   0.68573   0.20928   0.00000  Uiso   1.00
O342   O     0.50000   0.81427   0.29072   0.00000  Uiso   1.00
O343   O     0.42495   0.74999   0.28132   0.00000  Uiso   1.00
O344   O     0.57505   0.75000   0.21868   0.00000  Uiso   1.00
O345   O     0.42495   0.75000   0.19989   0.00000  Uiso   1.00
O346   O     0.57505   0.75000   0.30012   0.00000  Uiso   1.00
N347   N     0.44734   0.61616   0.31503   0.00000  Uiso   1.00
H348   H     0.40885   0.60513   0.30824   0.00000  Uiso   1.00
H349   H     0.46240   0.60762   0.35042   0.00000  Uiso   1.00
N350   N     0.58477   0.88239   0.22444   0.00000  Uiso   1.00
H351   H     0.61763   0.89261   0.24818   0.00000  Uiso   1.00
H352   H     0.58992   0.89161   0.18949   0.00000  Uiso   1.00
C353   C     0.56173   0.61506   0.18531   0.00000  Uiso   1.00
H354   H     0.57667   0.64831   0.19372   0.00000  Uiso   1.00
O355   O     0.57402   0.59605   0.14995   0.00000  Uiso   1.00
C356   C     0.41084   0.88172   0.27763   0.00000  Uiso   1.00
H357   H     0.40603   0.84628   0.27247   0.00000  Uiso   1.00
O358   O     0.37809   0.90161   0.29570   0.00000  Uiso   1.00
C359   C     0.44947   0.67943   0.12058   0.00000  Uiso   1.00
H360   H     0.42130   0.68775   0.14373   0.00000  Uiso   1.00
O361   O     0.45634   0.64054   0.11204   0.00000  Uiso   1.00
C362   C     0.58311   0.79282   0.38322   0.00000  Uiso   1.00
H363   H     0.57365   0.81652   0.35488   0.00000  Uiso   1.00
O364   O     0.62851   0.78739   0.39916   0.00000  Uiso   1.00
N365   N     0.46558   0.67506   0.02033   0.00000  Uiso   1.00
H366   H     0.42715   0.66707   0.02316   0.00000  Uiso   1.00
H367   H     0.48918   0.64896   0.03282   0.00000  Uiso   1.00
N368   N     0.59117   0.77726   0.48367   0.00000  Uiso   1.00
H369   H     0.58852   0.80861   0.49890   0.00000  Uiso   1.00
H370   H     0.59900   0.75396   0.01088   0.00000  Uiso   1.00
C371   C     0.83425   0.66500   0.24982   0.00000  Uiso   1.00
C372   C     0.83289   0.83468   0.25024   0.00000  Uiso   1.00
C373   C     0.84893   0.78807   0.05727   0.00000  Uiso   1.00
C374   C     0.78974   0.73655   0.43977   0.00000  Uiso   1.00
C375   C     0.85133   0.78614   0.10796   0.00000  Uiso   1.00
C376   C     0.79142   0.73444   0.38950   0.00000  Uiso   1.00
C377   C     0.81250   0.71473   0.10036   0.00000  Uiso   1.00
C378   C     0.87496   0.76758   0.40190   0.00000  Uiso   1.00
C379   C     0.81476   0.71373   0.04957   0.00000  Uiso   1.00
C380   C     0.87696   0.76564   0.45298   0.00000  Uiso   1.00
C381   C     0.83220   0.75122   0.02718   0.00000  Uiso   1.00
C382   C     0.83287   0.75169   0.47277   0.00000  Uiso   1.00
C383   C     0.73456   0.74992   0.23747   0.00000  Uiso   1.00
C384   C     0.93210   0.75012   0.26253   0.00000  Uiso   1.00
C385   C     0.67913   0.74997   0.23070   0.00000  Uiso   1.00
C386   C     0.98754   0.75024   0.26932   0.00000  Uiso   1.00
C387   C     0.80936   0.54738   0.28260   0.00000  Uiso   1.00
C388   C     0.87551   0.95170   0.23796   0.00000  Uiso   1.00
C389   C     0.80885   0.59329   0.28229   0.00000  Uiso   1.00
C390   C     0.87491   0.90572   0.23746   0.00000  Uiso   1.00
C391   C     0.83519   0.61653   0.24950   0.00000  Uiso   1.00
C392   C     0.83235   0.88258   0.25065   0.00000  Uiso   1.00
C393   C     0.86156   0.59282   0.21670   0.00000  Uiso   1.00
C394   C     0.78976   0.90541   0.26356   0.00000  Uiso   1.00
C395   C     0.85855   0.54666   0.21576   0.00000  Uiso   1.00
C396   C     0.79021   0.95151   0.26183   0.00000  Uiso   1.00
C397   C     0.83342   0.52369   0.24907   0.00000  Uiso   1.00
C398   C     0.83301   0.97496   0.24949   0.00000  Uiso   1.00
Cu399  Cu    0.83333   0.74999   0.29822   0.00000  Uiso   1.00
Cu400  Cu    0.83333   0.75000   0.20179   0.00000  Uiso   1.00
H401   H     0.99209   0.74973   0.19379   0.00000  Uiso   1.00
H402   H     0.67456   0.75052   0.30624   0.00000  Uiso   1.00
H403   H     0.79078   0.53045   0.30945   0.00000  Uiso   1.00
H404   H     0.90961   0.96897   0.22971   0.00000  Uiso   1.00
H405   H     0.87688   0.52854   0.18945   0.00000  Uiso   1.00
H406   H     0.75659   0.96910   0.26932   0.00000  Uiso   1.00
H407   H     0.85979   0.81870   0.04187   0.00000  Uiso   1.00
H408   H     0.75467   0.72586   0.45278   0.00000  Uiso   1.00
H409   H     0.86634   0.81448   0.12991   0.00000  Uiso   1.00
H410   H     0.75827   0.72118   0.36559   0.00000  Uiso   1.00
N411   N     0.83333   0.75001   0.12935   0.00000  Uiso   1.00
N412   N     0.83333   0.74999   0.37066   0.00000  Uiso   1.00
O413   O     0.83334   0.68572   0.29072   0.00000  Uiso   1.00
O414   O     0.83333   0.81427   0.20929   0.00000  Uiso   1.00
O415   O     0.83334   0.68573   0.20928   0.00000  Uiso   1.00
O416   O     0.83333   0.81427   0.29072   0.00000  Uiso   1.00
O417   O     0.75828   0.74999   0.28132   0.00000  Uiso   1.00
O418   O     0.90839   0.75000   0.21868   0.00000  Uiso   1.00
O419   O     0.75828   0.75000   0.19989   0.00000  Uiso   1.00
O420   O     0.90839   0.75000   0.30012   0.00000  Uiso   1.00
N421   N     0.78068   0.61616   0.31503   0.00000  Uiso   1.00
H422   H     0.74218   0.60513   0.30824   0.00000  Uiso   1.00
H423   H     0.79573   0.60762   0.35042   0.00000  Uiso   1.00
N424   N     0.91810   0.88239   0.22444   0.00000  Uiso   1.00
H425   H     0.95097   0.89261   0.24818   0.00000  Uiso   1.00
H426   H     0.92325   0.89161   0.18949   0.00000  Uiso   1.00
C427   C     0.89507   0.61506   0.18531   0.00000  Uiso   1.00
H428   H     0.91000   0.64831   0.19372   0.00000  Uiso   1.00
O429   O     0.90736   0.59605   0.14995   0.00000  Uiso   1.00
C430   C     0.74418   0.88172   0.27763   0.00000  Uiso   1.00
H431   H     0.73936   0.84628   0.27247   0.00000  Uiso   1.00
O432   O     0.71143   0.90161   0.29570   0.00000  Uiso   1.00
C433   C     0.78281   0.67943   0.12058   0.00000  Uiso   1.00
H434   H     0.75463   0.68775   0.14373   0.00000  Uiso   1.00
O435   O     0.78967   0.64054   0.11204   0.00000  Uiso   1.00
C436   C     0.91644   0.79282   0.38322   0.00000  Uiso   1.00
H437   H     0.90698   0.81652   0.35488   0.00000  Uiso   1.00
O438   O     0.96184   0.78739   0.39916   0.00000  Uiso   1.00
N439   N     0.79891   0.67506   0.02033   0.00000  Uiso   1.00
H440   H     0.76048   0.66707   0.02316   0.00000  Uiso   1.00
H441   H     0.82251   0.64896   0.03282   0.00000  Uiso   1.00
N442   N     0.92450   0.77726   0.48367   0.00000  Uiso   1.00
H443   H     0.92185   0.80861   0.49890   0.00000  Uiso   1.00
H444   H     0.93233   0.75396   0.01088   0.00000  Uiso   1.00
C445   C     0.16758   0.16500   0.74982   0.00000  Uiso   1.00
C446   C     0.16623   0.33468   0.75024   0.00000  Uiso   1.00
C447   C     0.18226   0.28807   0.55727   0.00000  Uiso   1.00
C448   C     0.12307   0.23655   0.93977   0.00000  Uiso   1.00
C449   C     0.18466   0.28614   0.60796   0.00000  Uiso   1.00
C450   C     0.12476   0.23444   0.88950   0.00000  Uiso   1.00
C451   C     0.14583   0.21473   0.60036   0.00000  Uiso   1.00
C452   C     0.20830   0.26758   0.90190   0.00000  Uiso   1.00
C453   C     0.14809   0.21373   0.54957   0.00000  Uiso   1.00
C454   C     0.21029   0.26564   0.95298   0.00000  Uiso   1.00
C455   C     0.16553   0.25122   0.52718   0.00000  Uiso   1.00
C456   C     0.16620   0.25169   0.97277   0.00000  Uiso   1.00
C457   C     0.06790   0.24992   0.73747   0.00000  Uiso   1.00
C458   C     0.26544   0.25012   0.76253   0.00000  Uiso   1.00
C459   C     0.01246   0.24997   0.73070   0.00000  Uiso   1.00
C460   C     0.32088   0.25024   0.76932   0.00000  Uiso   1.00
C461   C     0.14270   0.04738   0.78260   0.00000  Uiso   1.00
C462   C     0.20884   0.45170   0.73796   0.00000  Uiso   1.00
C463   C     0.14218   0.09329   0.78229   0.00000  Uiso   1.00
C464   C     0.20825   0.40572   0.73746   0.00000  Uiso   1.00
C465   C     0.16852   0.11653   0.74950   0.00000  Uiso   1.00
C466   C     0.16568   0.38258   0.75065   0.00000  Uiso   1.00
C467   C     0.19490   0.09282   0.71670   0.00000  Uiso   1.00
C468   C     0.12309   0.40541   0.76356   0.00000  Uiso   1.00
C469   C     0.19188   0.04666   0.71576   0.00000  Uiso   1.00
C470   C     0.12355   0.45151   0.76183   0.00000  Uiso   1.00
C471   C     0.16675   0.02369   0.74907   0.00000  Uiso   1.00
C472   C     0.16635   0.47496   0.74949   0.00000  Uiso   1.00
Cu473  Cu    0.16667   0.24999   0.79822   0.00000  Uiso   1.00
Cu474  Cu    0.16667   0.25000   0.70179   0.00000  Uiso   1.00
H475   H     0.32543   0.24973   0.69379   0.00000  Uiso   1.00
H476   H     0.00789   0.25052   0.80624   0.00000  Uiso   1.00
H477   H     0.12412   0.03045   0.80945   0.00000  Uiso   1.00
H478   H     0.24294   0.46897   0.72971   0.00000  Uiso   1.00
H479   H     0.21021   0.02854   0.68945   0.00000  Uiso   1.00
H480   H     0.08992   0.46910   0.76932   0.00000  Uiso   1.00
H481   H     0.19312   0.31870   0.54187   0.00000  Uiso   1.00
H482   H     0.08800   0.22586   0.95278   0.00000  Uiso   1.00
H483   H     0.19967   0.31448   0.62991   0.00000  Uiso   1.00
H484   H     0.09160   0.22118   0.86559   0.00000  Uiso   1.00
N485   N     0.16667   0.25001   0.62935   0.00000  Uiso   1.00
N486   N     0.16667   0.24999   0.87066   0.00000  Uiso   1.00
O487   O     0.16667   0.18572   0.79072   0.00000  Uiso   1.00
O488   O     0.16666   0.31427   0.70929   0.00000  Uiso   1.00
O489   O     0.16667   0.18573   0.70928   0.00000  Uiso   1.00
O490   O     0.16666   0.31427   0.79072   0.00000  Uiso   1.00
O491   O     0.09161   0.24999   0.78132   0.00000  Uiso   1.00
O492   O     0.24172   0.25000   0.71868   0.00000  Uiso   1.00
O493   O     0.09161   0.25000   0.69989   0.00000  Uiso   1.00
O494   O     0.24172   0.25000   0.80012   0.00000  Uiso   1.00
N495   N     0.11401   0.11616   0.81503   0.00000  Uiso   1.00
H496   H     0.07551   0.10513   0.80824   0.00000  Uiso   1.00
H497   H     0.12906   0.10762   0.85042   0.00000  Uiso   1.00
N498   N     0.25144   0.38239   0.72444   0.00000  Uiso   1.00
H499   H     0.28430   0.39261   0.74818   0.00000  Uiso   1.00
H500   H     0.25659   0.39161   0.68949   0.00000  Uiso   1.00
C501   C     0.22840   0.11506   0.68531   0.00000  Uiso   1.00
H502   H     0.24333   0.14831   0.69372   0.00000  Uiso   1.00
O503   O     0.24069   0.09605   0.64995   0.00000  Uiso   1.00
C504   C     0.07751   0.38172   0.77763   0.00000  Uiso   1.00
H505   H     0.07269   0.34628   0.77247   0.00000  Uiso   1.00
O506   O     0.04476   0.40161   0.79570   0.00000  Uiso   1.00
C507   C     0.11614   0.17943   0.62058   0.00000  Uiso   1.00
H508   H     0.08796   0.18775   0.64373   0.00000  Uiso   1.00
O509   O     0.12301   0.14054   0.61204   0.00000  Uiso   1.00
C510   C     0.24978   0.29282   0.88322   0.00000  Uiso   1.00
H511   H     0.24031   0.31652   0.85488   0.00000  Uiso   1.00
O512   O     0.29518   0.28739   0.89916   0.00000  Uiso   1.00
N513   N     0.13224   0.17506   0.52033   0.00000  Uiso   1.00
H514   H     0.09382   0.16707   0.52316   0.00000  Uiso   1.00
H515   H     0.15585   0.14896   0.53282   0.00000  Uiso   1.00
N516   N     0.25784   0.27726   0.98367   0.00000  Uiso   1.00
H517   H     0.25518   0.30861   0.99890   0.00000  Uiso   1.00
H518   H     0.26566   0.25396   0.51088   0.00000  Uiso   1.00
C519   C     0.50092   0.16500   0.74982   0.00000  Uiso   1.00
C520   C     0.49956   0.33468   0.75024   0.00000  Uiso   1.00
C521   C     0.51559   0.28807   0.55727   0.00000  Uiso   1.00
C522   C     0.45640   0.23655   0.93977   0.00000  Uiso   1.00
C523   C     0.51800   0.28614   0.60796   0.00000  Uiso   1.00
C524   C     0.45809   0.23444   0.88950   0.00000  Uiso   1.00
C525   C     0.47916   0.21473   0.60036   0.00000  Uiso   1.00
C526   C     0.54163   0.26758   0.90190   0.00000  Uiso   1.00
C527   C     0.48142   0.21373   0.54957   0.00000  Uiso   1.00
C528   C     0.54363   0.26564   0.95298   0.00000  Uiso   1.00
C529   C     0.49886   0.25122   0.52718   0.00000  Uiso   1.00
C530   C     0.49953   0.25169   0.97277   0.00000  Uiso   1.00
C531   C     0.40123   0.24992   0.73747   0.00000  Uiso   1.00
C532   C     0.59877   0.25012   0.76253   0.00000  Uiso   1.00
C533   C     0.34579   0.24997   0.73070   0.00000  Uiso   1.00
C534   C     0.65421   0.25024   0.76932   0.00000  Uiso   1.00
C535   C     0.47603   0.04738   0.78260   0.00000  Uiso   1.00
C536   C     0.54217   0.45170   0.73796   0.00000  Uiso   1.00
C537   C     0.47551   0.09329   0.78229   0.00000  Uiso   1.00
C538   C     0.54158   0.40572   0.73746   0.00000  Uiso   1.00
C539   C     0.50185   0.11653   0.74950   0.00000  Uiso   1.00
C540   C     0.49901   0.38258   0.75065   0.00000  Uiso   1.00
C541   C     0.52823   0.09282   0.71670   0.00000  Uiso   1.00
C542   C     0.45643   0.40541   0.76356   0.00000  Uiso   1.00
C543   C     0.52521   0.04666   0.71576   0.00000  Uiso   1.00
C544   C     0.45688   0.45151   0.76183   0.00000  Uiso   1.00
C545   C     0.50009   0.02369   0.74907   0.00000  Uiso   1.00
C546   C     0.49968   0.47496   0.74949   0.00000  Uiso   1.00
Cu547  Cu    0.50000   0.24999   0.79822   0.00000  Uiso   1.00
Cu548  Cu    0.50000   0.25000   0.70179   0.00000  Uiso   1.00
H549   H     0.65876   0.24973   0.69379   0.00000  Uiso   1.00
H550   H     0.34123   0.25052   0.80624   0.00000  Uiso   1.00
H551   H     0.45745   0.03045   0.80945   0.00000  Uiso   1.00
H552   H     0.57627   0.46897   0.72971   0.00000  Uiso   1.00
H553   H     0.54355   0.02854   0.68945   0.00000  Uiso   1.00
H554   H     0.42325   0.46910   0.76932   0.00000  Uiso   1.00
H555   H     0.52645   0.31870   0.54187   0.00000  Uiso   1.00
H556   H     0.42133   0.22586   0.95278   0.00000  Uiso   1.00
H557   H     0.53301   0.31448   0.62991   0.00000  Uiso   1.00
H558   H     0.42494   0.22118   0.86559   0.00000  Uiso   1.00
N559   N     0.50000   0.25001   0.62935   0.00000  Uiso   1.00
N560   N     0.50000   0.24999   0.87066   0.00000  Uiso   1.00
O561   O     0.50000   0.18572   0.79072   0.00000  Uiso   1.00
O562   O     0.50000   0.31427   0.70929   0.00000  Uiso   1.00
O563   O     0.50000   0.18573   0.70928   0.00000  Uiso   1.00
O564   O     0.50000   0.31427   0.79072   0.00000  Uiso   1.00
O565   O     0.42495   0.24999   0.78132   0.00000  Uiso   1.00
O566   O     0.57505   0.25000   0.71868   0.00000  Uiso   1.00
O567   O     0.42495   0.25000   0.69989   0.00000  Uiso   1.00
O568   O     0.57505   0.25000   0.80012   0.00000  Uiso   1.00
N569   N     0.44734   0.11616   0.81503   0.00000  Uiso   1.00
H570   H     0.40885   0.10513   0.80824   0.00000  Uiso   1.00
H571   H     0.46240   0.10762   0.85042   0.00000  Uiso   1.00
N572   N     0.58477   0.38239   0.72444   0.00000  Uiso   1.00
H573   H     0.61763   0.39261   0.74818   0.00000  Uiso   1.00
H574   H     0.58992   0.39161   0.68949   0.00000  Uiso   1.00
C575   C     0.56173   0.11506   0.68531   0.00000  Uiso   1.00
H576   H     0.57667   0.14831   0.69372   0.00000  Uiso   1.00
O577   O     0.57402   0.09605   0.64995   0.00000  Uiso   1.00
C578   C     0.41084   0.38172   0.77763   0.00000  Uiso   1.00
H579   H     0.40603   0.34628   0.77247   0.00000  Uiso   1.00
O580   O     0.37809   0.40161   0.79570   0.00000  Uiso   1.00
C581   C     0.44947   0.17943   0.62058   0.00000  Uiso   1.00
H582   H     0.42130   0.18775   0.64373   0.00000  Uiso   1.00
O583   O     0.45634   0.14054   0.61204   0.00000  Uiso   1.00
C584   C     0.58311   0.29282   0.88322   0.00000  Uiso   1.00
H585   H     0.57365   0.31652   0.85488   0.00000  Uiso   1.00
O586   O     0.62851   0.28739   0.89916   0.00000  Uiso   1.00
N587   N     0.46558   0.17506   0.52033   0.00000  Uiso   1.00
H588   H     0.42715   0.16707   0.52316   0.00000  Uiso   1.00
H589   H     0.48918   0.14896   0.53282   0.00000  Uiso   1.00
N590   N     0.59117   0.27726   0.98367   0.00000  Uiso   1.00
H591   H     0.58852   0.30861   0.99890   0.00000  Uiso   1.00
H592   H     0.59900   0.25396   0.51088   0.00000  Uiso   1.00
C593   C     0.83425   0.16500   0.74982   0.00000  Uiso   1.00
C594   C     0.83289   0.33468   0.75024   0.00000  Uiso   1.00
C595   C     0.84893   0.28807   0.55727   0.00000  Uiso   1.00
C596   C     0.78974   0.23655   0.93977   0.00000  Uiso   1.00
C597   C     0.85133   0.28614   0.60796   0.00000  Uiso   1.00
C598   C     0.79142   0.23444   0.88950   0.00000  Uiso   1.00
C599   C     0.81250   0.21473   0.60036   0.00000  Uiso   1.00
C600   C     0.87496   0.26758   0.90190   0.00000  Uiso   1.00
C601   C     0.81476   0.21373   0.54957   0.00000  Uiso   1.00
C602   C     0.87696   0.26564   0.95298   0.00000  Uiso   1.00
C603   C     0.83220   0.25122   0.52718   0.00000  Uiso   1.00
C604   C     0.83287   0.25169   0.97277   0.00000  Uiso   1.00
C605   C     0.73456   0.24992   0.73747   0.00000  Uiso   1.00
C606   C     0.93210   0.25012   0.76253   0.00000  Uiso   1.00
C607   C     0.67913   0.24997   0.73070   0.00000  Uiso   1.00
C608   C     0.98754   0.25024   0.76932   0.00000  Uiso   1.00
C609   C     0.80936   0.04738   0.78260   0.00000  Uiso   1.00
C610   C     0.87551   0.45170   0.73796   0.00000  Uiso   1.00
C611   C     0.80885   0.09329   0.78229   0.00000  Uiso   1.00
C612   C     0.87491   0.40572   0.73746   0.00000  Uiso   1.00
C613   C     0.83519   0.11653   0.74950   0.00000  Uiso   1.00
C614   C     0.83235   0.38258   0.75065   0.00000  Uiso   1.00
C615   C     0.86156   0.09282   0.71670   0.00000  Uiso   1.00
C616   C     0.78976   0.40541   0.76356   0.00000  Uiso   1.00
C617   C     0.85855   0.04666   0.71576   0.00000  Uiso   1.00
C618   C     0.79021   0.45151   0.76183   0.00000  Uiso   1.00
C619   C     0.83342   0.02369   0.74907   0.00000  Uiso   1.00
C620   C     0.83301   0.47496   0.74949   0.00000  Uiso   1.00
Cu621  Cu    0.83333   0.24999   0.79822   0.00000  Uiso   1.00
Cu622  Cu    0.83333   0.25000   0.70179   0.00000  Uiso   1.00
H623   H     0.99209   0.24973   0.69379   0.00000  Uiso   1.00
H624   H     0.67456   0.25052   0.80624   0.00000  Uiso   1.00
H625   H     0.79078   0.03045   0.80945   0.00000  Uiso   1.00
H626   H     0.90961   0.46897   0.72971   0.00000  Uiso   1.00
H627   H     0.87688   0.02854   0.68945   0.00000  Uiso   1.00
H628   H     0.75659   0.46910   0.76932   0.00000  Uiso   1.00
H629   H     0.85979   0.31870   0.54187   0.00000  Uiso   1.00
H630   H     0.75467   0.22586   0.95278   0.00000  Uiso   1.00
H631   H     0.86634   0.31448   0.62991   0.00000  Uiso   1.00
H632   H     0.75827   0.22118   0.86559   0.00000  Uiso   1.00
N633   N     0.83333   0.25001   0.62935   0.00000  Uiso   1.00
N634   N     0.83333   0.24999   0.87066   0.00000  Uiso   1.00
O635   O     0.83334   0.18572   0.79072   0.00000  Uiso   1.00
O636   O     0.83333   0.31427   0.70929   0.00000  Uiso   1.00
O637   O     0.83334   0.18573   0.70928   0.00000  Uiso   1.00
O638   O     0.83333   0.31427   0.79072   0.00000  Uiso   1.00
O639   O     0.75828   0.24999   0.78132   0.00000  Uiso   1.00
O640   O     0.90839   0.25000   0.71868   0.00000  Uiso   1.00
O641   O     0.75828   0.25000   0.69989   0.00000  Uiso   1.00
O642   O     0.90839   0.25000   0.80012   0.00000  Uiso   1.00
N643   N     0.78068   0.11616   0.81503   0.00000  Uiso   1.00
H644   H     0.74218   0.10513   0.80824   0.00000  Uiso   1.00
H645   H     0.79573   0.10762   0.85042   0.00000  Uiso   1.00
N646   N     0.91810   0.38239   0.72444   0.00000  Uiso   1.00
H647   H     0.95097   0.39261   0.74818   0.00000  Uiso   1.00
H648   H     0.92325   0.39161   0.68949   0.00000  Uiso   1.00
C649   C     0.89507   0.11506   0.68531   0.00000  Uiso   1.00
H650   H     0.91000   0.14831   0.69372   0.00000  Uiso   1.00
O651   O     0.90736   0.09605   0.64995   0.00000  Uiso   1.00
C652   C     0.74418   0.38172   0.77763   0.00000  Uiso   1.00
H653   H     0.73936   0.34628   0.77247   0.00000  Uiso   1.00
O654   O     0.71143   0.40161   0.79570   0.00000  Uiso   1.00
C655   C     0.78281   0.17943   0.62058   0.00000  Uiso   1.00
H656   H     0.75463   0.18775   0.64373   0.00000  Uiso   1.00
O657   O     0.78967   0.14054   0.61204   0.00000  Uiso   1.00
C658   C     0.91644   0.29282   0.88322   0.00000  Uiso   1.00
H659   H     0.90698   0.31652   0.85488   0.00000  Uiso   1.00
O660   O     0.96184   0.28739   0.89916   0.00000  Uiso   1.00
N661   N     0.79891   0.17506   0.52033   0.00000  Uiso   1.00
H662   H     0.76048   0.16707   0.52316   0.00000  Uiso   1.00
H663   H     0.82251   0.14896   0.53282   0.00000  Uiso   1.00
N664   N     0.92450   0.27726   0.98367   0.00000  Uiso   1.00
H665   H     0.92185   0.30861   0.99890   0.00000  Uiso   1.00
H666   H     0.93233   0.25396   0.51088   0.00000  Uiso   1.00
C667   C     0.16758   0.66500   0.74982   0.00000  Uiso   1.00
C668   C     0.16623   0.83468   0.75024   0.00000  Uiso   1.00
C669   C     0.18226   0.78807   0.55727   0.00000  Uiso   1.00
C670   C     0.12307   0.73655   0.93977   0.00000  Uiso   1.00
C671   C     0.18466   0.78614   0.60796   0.00000  Uiso   1.00
C672   C     0.12476   0.73444   0.88950   0.00000  Uiso   1.00
C673   C     0.14583   0.71473   0.60036   0.00000  Uiso   1.00
C674   C     0.20830   0.76758   0.90190   0.00000  Uiso   1.00
C675   C     0.14809   0.71373   0.54957   0.00000  Uiso   1.00
C676   C     0.21029   0.76564   0.95298   0.00000  Uiso   1.00
C677   C     0.16553   0.75122   0.52718   0.00000  Uiso   1.00
C678   C     0.16620   0.75169   0.97277   0.00000  Uiso   1.00
C679   C     0.06790   0.74992   0.73747   0.00000  Uiso   1.00
C680   C     0.26544   0.75012   0.76253   0.00000  Uiso   1.00
C681   C     0.01246   0.74997   0.73070   0.00000  Uiso   1.00
C682   C     0.32088   0.75024   0.76932   0.00000  Uiso   1.00
C683   C     0.14270   0.54738   0.78260   0.00000  Uiso   1.00
C684   C     0.20884   0.95170   0.73796   0.00000  Uiso   1.00
C685   C     0.14218   0.59329   0.78229   0.00000  Uiso   1.00
C686   C     0.20825   0.90572   0.73746   0.00000  Uiso   1.00
C687   C     0.16852   0.61653   0.74950   0.00000  Uiso   1.00
C688   C     0.16568   0.88258   0.75065   0.00000  Uiso   1.00
C689   C     0.19490   0.59282   0.71670   0.00000  Uiso   1.00
C690   C     0.12309   0.90541   0.76356   0.00000  Uiso   1.00
C691   C     0.19188   0.54666   0.71576   0.00000  Uiso   1.00
C692   C     0.12355   0.95151   0.76183   0.00000  Uiso   1.00
C693   C     0.16675   0.52369   0.74907   0.00000  Uiso   1.00
C694   C     0.16635   0.97496   0.74949   0.00000  Uiso   1.00
Cu695  Cu    0.16667   0.74999   0.79822   0.00000  Uiso   1.00
Cu696  Cu    0.16667   0.75000   0.70179   0.00000  Uiso   1.00
H697   H     0.32543   0.74973   0.69379   0.00000  Uiso   1.00
H698   H     0.00789   0.75052   0.80624   0.00000  Uiso   1.00
H699   H     0.12412   0.53045   0.80945   0.00000  Uiso   1.00
H700   H     0.24294   0.96897   0.72971   0.00000  Uiso   1.00
H701   H     0.21021   0.52854   0.68945   0.00000  Uiso   1.00
H702   H     0.08992   0.96910   0.76932   0.00000  Uiso   1.00
H703   H     0.19312   0.81870   0.54187   0.00000  Uiso   1.00
H704   H     0.08800   0.72586   0.95278   0.00000  Uiso   1.00
H705   H     0.19967   0.81448   0.62991   0.00000  Uiso   1.00
H706   H     0.09160   0.72118   0.86559   0.00000  Uiso   1.00
N707   N     0.16667   0.75001   0.62935   0.00000  Uiso   1.00
N708   N     0.16667   0.74999   0.87066   0.00000  Uiso   1.00
O709   O     0.16667   0.68572   0.79072   0.00000  Uiso   1.00
O710   O     0.16666   0.81427   0.70929   0.00000  Uiso   1.00
O711   O     0.16667   0.68573   0.70928   0.00000  Uiso   1.00
O712   O     0.16666   0.81427   0.79072   0.00000  Uiso   1.00
O713   O     0.09161   0.74999   0.78132   0.00000  Uiso   1.00
O714   O     0.24172   0.75000   0.71868   0.00000  Uiso   1.00
O715   O     0.09161   0.75000   0.69989   0.00000  Uiso   1.00
O716   O     0.24172   0.75000   0.80012   0.00000  Uiso   1.00
N717   N     0.11401   0.61616   0.81503   0.00000  Uiso   1.00
H718   H     0.07551   0.60513   0.80824   0.00000  Uiso   1.00
H719   H     0.12906   0.60762   0.85042   0.00000  Uiso   1.00
N720   N     0.25144   0.88239   0.72444   0.00000  Uiso   1.00
H721   H     0.28430   0.89261   0.74818   0.00000  Uiso   1.00
H722   H     0.25659   0.89161   0.68949   0.00000  Uiso   1.00
C723   C     0.22840   0.61506   0.68531   0.00000  Uiso   1.00
H724   H     0.24333   0.64831   0.69372   0.00000  Uiso   1.00
O725   O     0.24069   0.59605   0.64995   0.00000  Uiso   1.00
C726   C     0.07751   0.88172   0.77763   0.00000  Uiso   1.00
H727   H     0.07269   0.84628   0.77247   0.00000  Uiso   1.00
O728   O     0.04476   0.90161   0.79570   0.00000  Uiso   1.00
C729   C     0.11614   0.67943   0.62058   0.00000  Uiso   1.00
H730   H     0.08796   0.68775   0.64373   0.00000  Uiso   1.00
O731   O     0.12301   0.64054   0.61204   0.00000  Uiso   1.00
C732   C     0.24978   0.79282   0.88322   0.00000  Uiso   1.00
H733   H     0.24031   0.81652   0.85488   0.00000  Uiso   1.00
O734   O     0.29518   0.78739   0.89916   0.00000  Uiso   1.00
N735   N     0.13224   0.67506   0.52033   0.00000  Uiso   1.00
H736   H     0.09382   0.66707   0.52316   0.00000  Uiso   1.00
H737   H     0.15585   0.64896   0.53282   0.00000  Uiso   1.00
N738   N     0.25784   0.77726   0.98367   0.00000  Uiso   1.00
H739   H     0.25518   0.80861   0.99890   0.00000  Uiso   1.00
H740   H     0.26566   0.75396   0.51088   0.00000  Uiso   1.00
C741   C     0.50092   0.66500   0.74982   0.00000  Uiso   1.00
C742   C     0.49956   0.83468   0.75024   0.00000  Uiso   1.00
C743   C     0.51559   0.78807   0.55727   0.00000  Uiso   1.00
C744   C     0.45640   0.73655   0.93977   0.00000  Uiso   1.00
C745   C     0.51800   0.78614   0.60796   0.00000  Uiso   1.00
C746   C     0.45809   0.73444   0.88950   0.00000  Uiso   1.00
C747   C     0.47916   0.71473   0.60036   0.00000  Uiso   1.00
C748   C     0.54163   0.76758   0.90190   0.00000  Uiso   1.00
C749   C     0.48142   0.71373   0.54957   0.00000  Uiso   1.00
C750   C     0.54363   0.76564   0.95298   0.00000  Uiso   1.00
C751   C     0.49886   0.75122   0.52718   0.00000  Uiso   1.00
C752   C     0.49953   0.75169   0.97277   0.00000  Uiso   1.00
C753   C     0.40123   0.74992   0.73747   0.00000  Uiso   1.00
C754   C     0.59877   0.75012   0.76253   0.00000  Uiso   1.00
C755   C     0.34579   0.74997   0.73070   0.00000  Uiso   1.00
C756   C     0.65421   0.75024   0.76932   0.00000  Uiso   1.00
C757   C     0.47603   0.54738   0.78260   0.00000  Uiso   1.00
C758   C     0.54217   0.95170   0.73796   0.00000  Uiso   1.00
C759   C     0.47551   0.59329   0.78229   0.00000  Uiso   1.00
C760   C     0.54158   0.90572   0.73746   0.00000  Uiso   1.00
C761   C     0.50185   0.61653   0.74950   0.00000  Uiso   1.00
C762   C     0.49901   0.88258   0.75065   0.00000  Uiso   1.00
C763   C     0.52823   0.59282   0.71670   0.00000  Uiso   1.00
C764   C     0.45643   0.90541   0.76356   0.00000  Uiso   1.00
C765   C     0.52521   0.54666   0.71576   0.00000  Uiso   1.00
C766   C     0.45688   0.95151   0.76183   0.00000  Uiso   1.00
C767   C     0.50009   0.52369   0.74907   0.00000  Uiso   1.00
C768   C     0.49968   0.97496   0.74949   0.00000  Uiso   1.00
Cu769  Cu    0.50000   0.74999   0.79822   0.00000  Uiso   1.00
Cu770  Cu    0.50000   0.75000   0.70179   0.00000  Uiso   1.00
H771   H     0.65876   0.74973   0.69379   0.00000  Uiso   1.00
H772   H     0.34123   0.75052   0.80624   0.00000  Uiso   1.00
H773   H     0.45745   0.53045   0.80945   0.00000  Uiso   1.00
H774   H     0.57627   0.96897   0.72971   0.00000  Uiso   1.00
H775   H     0.54355   0.52854   0.68945   0.00000  Uiso   1.00
H776   H     0.42325   0.96910   0.76932   0.00000  Uiso   1.00
H777   H     0.52645   0.81870   0.54187   0.00000  Uiso   1.00
H778   H     0.42133   0.72586   0.95278   0.00000  Uiso   1.00
H779   H     0.53301   0.81448   0.62991   0.00000  Uiso   1.00
H780   H     0.42494   0.72118   0.86559   0.00000  Uiso   1.00
N781   N     0.50000   0.75001   0.62935   0.00000  Uiso   1.00
N782   N     0.50000   0.74999   0.87066   0.00000  Uiso   1.00
O783   O     0.50000   0.68572   0.79072   0.00000  Uiso   1.00
O784   O     0.50000   0.81427   0.70929   0.00000  Uiso   1.00
O785   O     0.50000   0.68573   0.70928   0.00000  Uiso   1.00
O786   O     0.50000   0.81427   0.79072   0.00000  Uiso   1.00
O787   O     0.42495   0.74999   0.78132   0.00000  Uiso   1.00
O788   O     0.57505   0.75000   0.71868   0.00000  Uiso   1.00
O789   O     0.42495   0.75000   0.69989   0.00000  Uiso   1.00
O790   O     0.57505   0.75000   0.80012   0.00000  Uiso   1.00
N791   N     0.44734   0.61616   0.81503   0.00000  Uiso   1.00
H792   H     0.40885   0.60513   0.80824   0.00000  Uiso   1.00
H793   H     0.46240   0.60762   0.85042   0.00000  Uiso   1.00
N794   N     0.58477   0.88239   0.72444   0.00000  Uiso   1.00
H795   H     0.61763   0.89261   0.74818   0.00000  Uiso   1.00
H796   H     0.58992   0.89161   0.68949   0.00000  Uiso   1.00
C797   C     0.56173   0.61506   0.68531   0.00000  Uiso   1.00
H798   H     0.57667   0.64831   0.69372   0.00000  Uiso   1.00
O799   O     0.57402   0.59605   0.64995   0.00000  Uiso   1.00
C800   C     0.41084   0.88172   0.77763   0.00000  Uiso   1.00
H801   H     0.40603   0.84628   0.77247   0.00000  Uiso   1.00
O802   O     0.37809   0.90161   0.79570   0.00000  Uiso   1.00
C803   C     0.44947   0.67943   0.62058   0.00000  Uiso   1.00
H804   H     0.42130   0.68775   0.64373   0.00000  Uiso   1.00
O805   O     0.45634   0.64054   0.61204   0.00000  Uiso   1.00
C806   C     0.58311   0.79282   0.88322   0.00000  Uiso   1.00
H807   H     0.57365   0.81652   0.85488   0.00000  Uiso   1.00
O808   O     0.62851   0.78739   0.89916   0.00000  Uiso   1.00
N809   N     0.46558   0.67506   0.52033   0.00000  Uiso   1.00
H810   H     0.42715   0.66707   0.52316   0.00000  Uiso   1.00
H811   H     0.48918   0.64896   0.53282   0.00000  Uiso   1.00
N812   N     0.59117   0.77726   0.98367   0.00000  Uiso   1.00
H813   H     0.58852   0.80861   0.99890   0.00000  Uiso   1.00
H814   H     0.59900   0.75396   0.51088   0.00000  Uiso   1.00
C815   C     0.83425   0.66500   0.74982   0.00000  Uiso   1.00
C816   C     0.83289   0.83468   0.75024   0.00000  Uiso   1.00
C817   C     0.84893   0.78807   0.55727   0.00000  Uiso   1.00
C818   C     0.78974   0.73655   0.93977   0.00000  Uiso   1.00
C819   C     0.85133   0.78614   0.60796   0.00000  Uiso   1.00
C820   C     0.79142   0.73444   0.88950   0.00000  Uiso   1.00
C821   C     0.81250   0.71473   0.60036   0.00000  Uiso   1.00
C822   C     0.87496   0.76758   0.90190   0.00000  Uiso   1.00
C823   C     0.81476   0.71373   0.54957   0.00000  Uiso   1.00
C824   C     0.87696   0.76564   0.95298   0.00000  Uiso   1.00
C825   C     0.83220   0.75122   0.52718   0.00000  Uiso   1.00
C826   C     0.83287   0.75169   0.97277   0.00000  Uiso   1.00
C827   C     0.73456   0.74992   0.73747   0.00000  Uiso   1.00
C828   C     0.93210   0.75012   0.76253   0.00000  Uiso   1.00
C829   C     0.67913   0.74997   0.73070   0.00000  Uiso   1.00
C830   C     0.98754   0.75024   0.76932   0.00000  Uiso   1.00
C831   C     0.80936   0.54738   0.78260   0.00000  Uiso   1.00
C832   C     0.87551   0.95170   0.73796   0.00000  Uiso   1.00
C833   C     0.80885   0.59329   0.78229   0.00000  Uiso   1.00
C834   C     0.87491   0.90572   0.73746   0.00000  Uiso   1.00
C835   C     0.83519   0.61653   0.74950   0.00000  Uiso   1.00
C836   C     0.83235   0.88258   0.75065   0.00000  Uiso   1.00
C837   C     0.86156   0.59282   0.71670   0.00000  Uiso   1.00
C838   C     0.78976   0.90541   0.76356   0.00000  Uiso   1.00
C839   C     0.85855   0.54666   0.71576   0.00000  Uiso   1.00
C840   C     0.79021   0.95151   0.76183   0.00000  Uiso   1.00
C841   C     0.83342   0.52369   0.74907   0.00000  Uiso   1.00
C842   C     0.83301   0.97496   0.74949   0.00000  Uiso   1.00
Cu843  Cu    0.83333   0.74999   0.79822   0.00000  Uiso   1.00
Cu844  Cu    0.83333   0.75000   0.70179   0.00000  Uiso   1.00
H845   H     0.99209   0.74973   0.69379   0.00000  Uiso   1.00
H846   H     0.67456   0.75052   0.80624   0.00000  Uiso   1.00
H847   H     0.79078   0.53045   0.80945   0.00000  Uiso   1.00
H848   H     0.90961   0.96897   0.72971   0.00000  Uiso   1.00
H849   H     0.87688   0.52854   0.68945   0.00000  Uiso   1.00
H850   H     0.75659   0.96910   0.76932   0.00000  Uiso   1.00
H851   H     0.85979   0.81870   0.54187   0.00000  Uiso   1.00
H852   H     0.75467   0.72586   0.95278   0.00000  Uiso   1.00
H853   H     0.86634   0.81448   0.62991   0.00000  Uiso   1.00
H854   H     0.75827   0.72118   0.86559   0.00000  Uiso   1.00
N855   N     0.83333   0.75001   0.62935   0.00000  Uiso   1.00
N856   N     0.83333   0.74999   0.87066   0.00000  Uiso   1.00
O857   O     0.83334   0.68572   0.79072   0.00000  Uiso   1.00
O858   O     0.83333   0.81427   0.70929   0.00000  Uiso   1.00
O859   O     0.83334   0.68573   0.70928   0.00000  Uiso   1.00
O860   O     0.83333   0.81427   0.79072   0.00000  Uiso   1.00
O861   O     0.75828   0.74999   0.78132   0.00000  Uiso   1.00
O862   O     0.90839   0.75000   0.71868   0.00000  Uiso   1.00
O863   O     0.75828   0.75000   0.69989   0.00000  Uiso   1.00
O864   O     0.90839   0.75000   0.80012   0.00000  Uiso   1.00
N865   N     0.78068   0.61616   0.81503   0.00000  Uiso   1.00
H866   H     0.74218   0.60513   0.80824   0.00000  Uiso   1.00
H867   H     0.79573   0.60762   0.85042   0.00000  Uiso   1.00
N868   N     0.91810   0.88239   0.72444   0.00000  Uiso   1.00
H869   H     0.95097   0.89261   0.74818   0.00000  Uiso   1.00
H870   H     0.92325   0.89161   0.68949   0.00000  Uiso   1.00
C871   C     0.89507   0.61506   0.68531   0.00000  Uiso   1.00
H872   H     0.91000   0.64831   0.69372   0.00000  Uiso   1.00
O873   O     0.90736   0.59605   0.64995   0.00000  Uiso   1.00
C874   C     0.74418   0.88172   0.77763   0.00000  Uiso   1.00
H875   H     0.73936   0.84628   0.77247   0.00000  Uiso   1.00
O876   O     0.71143   0.90161   0.79570   0.00000  Uiso   1.00
C877   C     0.78281   0.67943   0.62058   0.00000  Uiso   1.00
H878   H     0.75463   0.68775   0.64373   0.00000  Uiso   1.00
O879   O     0.78967   0.64054   0.61204   0.00000  Uiso   1.00
C880   C     0.91644   0.79282   0.88322   0.00000  Uiso   1.00
H881   H     0.90698   0.81652   0.85488   0.00000  Uiso   1.00
O882   O     0.96184   0.78739   0.89916   0.00000  Uiso   1.00
N883   N     0.79891   0.67506   0.52033   0.00000  Uiso   1.00
H884   H     0.76048   0.66707   0.52316   0.00000  Uiso   1.00
H885   H     0.82251   0.64896   0.53282   0.00000  Uiso   1.00
N886   N     0.92450   0.77726   0.98367   0.00000  Uiso   1.00
H887   H     0.92185   0.80861   0.99890   0.00000  Uiso   1.00
H888   H     0.93233   0.75396   0.51088   0.00000  Uiso   1.00
loop_
_geom_bond_atom_site_label_1
_geom_bond_atom_site_label_2
_geom_bond_distance
_geom_bond_site_symmetry_2
_ccdc_geom_bond_type
C1     C21     1.470   .     S
C1     O45     1.299   .     A
C1     O43     1.297   .     A
C2     C22     1.452   .     S
C2     O44     1.292   .     A
C2     O46     1.295   .     A
C3     C11     1.410   .     A
C3     C5      1.408   .     A
C3     H37     1.080   .     S
C4     C12     1.412   .     A
C4     C6      1.410   .     A
C4     H38     1.082   .     S
C5     H39     1.080   .     S
C5     N41     1.365   .     A
C6     H40     1.081   .     S
C6     N42     1.365   .     A
C7     C63     1.478   .     S
C7     C9      1.427   .     A
C7     N41     1.384   .     A
C8     C10     1.420   .     A
C8     N42     1.384   .     A
C8     C66     1.479   .     S
C9     N69     1.436   .     S
C9     C11     1.406   .     A
C10    C12     1.413   .     A
C10    N72     1.437   .     S
C11    C456    1.520   1_554 S
C12    C455    1.520   .     S
C13    O49     1.295   .     A
C13    C15     1.436   .     S
C13    O47     1.287   .     A
C14    C16     1.436   .     S
C14    O50     1.295   .     A
C14    O48     1.287   .     A
C15    C164    1.340   1_455 S
C15    H179    1.087   1_455 S
C16    C89     1.340   .     S
C16    H106    1.087   .     S
C17    H33     1.083   .     S
C17    C19     1.392   .     A
C17    C27     1.399   .     A
C18    H34     1.083   .     S
C18    C20     1.393   .     A
C18    C28     1.403   .     A
C19    N51     1.434   .     S
C19    C21     1.413   .     A
C20    N54     1.433   .     S
C20    C22     1.404   .     A
C21    C23     1.420   .     A
C22    C24     1.411   .     A
C23    C57     1.488   .     S
C23    C25     1.400   .     A
C24    C60     1.487   .     S
C24    C26     1.399   .     A
C25    H35     1.082   .     S
C25    C27     1.402   .     A
C26    C28     1.404   .     A
C26    H36     1.083   .     S
C27    C250    1.477   1_545 S
C28    C249    1.477   .     S
Cu29   Cu30    2.690   .     S
Cu29   N42     2.021   .     S
Cu29   O46     1.963   .     S
Cu29   O43     1.956   .     S
Cu29   O47     1.952   .     S
Cu29   O50     1.959   .     S
Cu30   N41     2.021   .     S
Cu30   O45     1.963   .     S
Cu30   O49     1.959   .     S
Cu30   O48     1.952   .     S
Cu30   O44     1.956   .     S
H31    C89     1.087   .     S
H32    C164    1.087   1_455 S
N51    H52     1.046   .     S
N51    H53     1.046   .     S
N54    H56     1.046   .     S
N54    H55     1.044   .     S
C57    H58     1.084   .     S
C57    O59     1.221   .     D
C60    O62     1.221   .     D
C60    H61     1.084   .     S
C63    O65     1.221   .     D
C63    H64     1.081   .     S
C66    O68     1.221   .     D
C66    H67     1.081   .     S
N69    H70     1.045   .     S
N69    H71     1.045   .     S
N72    H73     1.042   .     S
N72    H518    1.046   .     S
H74    N516    1.046   1_554 S
C75    C95     1.470   .     S
C75    O119    1.299   .     A
C75    O117    1.297   .     A
C76    C96     1.452   .     S
C76    O118    1.292   .     A
C76    O120    1.295   .     A
C77    C85     1.410   .     A
C77    C79     1.408   .     A
C77    H111    1.080   .     S
C78    C86     1.412   .     A
C78    C80     1.410   .     A
C78    H112    1.082   .     S
C79    H113    1.080   .     S
C79    N115    1.365   .     A
C80    H114    1.081   .     S
C80    N116    1.365   .     A
C81    C137    1.478   .     S
C81    C83     1.427   .     A
C81    N115    1.384   .     A
C82    C84     1.420   .     A
C82    N116    1.384   .     A
C82    C140    1.479   .     S
C83    N143    1.436   .     S
C83    C85     1.406   .     A
C84    C86     1.413   .     A
C84    N146    1.437   .     S
C85    C530    1.520   1_554 S
C86    C529    1.520   .     S
C87    O123    1.295   .     A
C87    C89     1.436   .     S
C87    O121    1.287   .     A
C88    C90     1.436   .     S
C88    O124    1.295   .     A
C88    O122    1.287   .     A
C90    C163    1.340   .     S
C90    H180    1.087   .     S
C91    H107    1.083   .     S
C91    C93     1.392   .     A
C91    C101    1.399   .     A
C92    H108    1.083   .     S
C92    C94     1.393   .     A
C92    C102    1.403   .     A
C93    N125    1.434   .     S
C93    C95     1.413   .     A
C94    N128    1.433   .     S
C94    C96     1.404   .     A
C95    C97     1.420   .     A
C96    C98     1.411   .     A
C97    C131    1.488   .     S
C97    C99     1.400   .     A
C98    C134    1.487   .     S
C98    C100    1.399   .     A
C99    H109    1.082   .     S
C99    C101    1.402   .     A
C100   C102    1.404   .     A
C100   H110    1.083   .     S
C101   C324    1.477   1_545 S
C102   C323    1.477   .     S
Cu103  Cu104   2.690   .     S
Cu103  N116    2.021   .     S
Cu103  O120    1.963   .     S
Cu103  O117    1.956   .     S
Cu103  O121    1.952   .     S
Cu103  O124    1.959   .     S
Cu104  N115    2.021   .     S
Cu104  O119    1.963   .     S
Cu104  O123    1.959   .     S
Cu104  O122    1.952   .     S
Cu104  O118    1.956   .     S
H105   C163    1.087   .     S
N125   H126    1.046   .     S
N125   H127    1.046   .     S
N128   H130    1.046   .     S
N128   H129    1.044   .     S
C131   H132    1.084   .     S
C131   O133    1.221   .     D
C134   O136    1.221   .     D
C134   H135    1.084   .     S
C137   O139    1.221   .     D
C137   H138    1.081   .     S
C140   O142    1.221   .     D
C140   H141    1.081   .     S
N143   H144    1.045   .     S
N143   H145    1.045   .     S
N146   H147    1.042   .     S
N146   H592    1.046   .     S
H148   N590    1.046   1_554 S
C149   C169    1.470   .     S
C149   O193    1.299   .     A
C149   O191    1.297   .     A
C150   C170    1.452   .     S
C150   O192    1.292   .     A
C150   O194    1.295   .     A
C151   C159    1.410   .     A
C151   C153    1.408   .     A
C151   H185    1.080   .     S
C152   C160    1.412   .     A
C152   C154    1.410   .     A
C152   H186    1.082   .     S
C153   H187    1.080   .     S
C153   N189    1.365   .     A
C154   H188    1.081   .     S
C154   N190    1.365   .     A
C155   C211    1.478   .     S
C155   C157    1.427   .     A
C155   N189    1.384   .     A
C156   C158    1.420   .     A
C156   N190    1.384   .     A
C156   C214    1.479   .     S
C157   N217    1.436   .     S
C157   C159    1.406   .     A
C158   C160    1.413   .     A
C158   N220    1.437   .     S
C159   C604    1.520   1_554 S
C160   C603    1.520   .     S
C161   O197    1.295   .     A
C161   C163    1.436   .     S
C161   O195    1.287   .     A
C162   C164    1.436   .     S
C162   O198    1.295   .     A
C162   O196    1.287   .     A
C164   C15     1.340   1_655 S
C164   H32     1.087   1_655 S
C165   H181    1.083   .     S
C165   C167    1.392   .     A
C165   C175    1.399   .     A
C166   H182    1.083   .     S
C166   C168    1.393   .     A
C166   C176    1.403   .     A
C167   N199    1.434   .     S
C167   C169    1.413   .     A
C168   N202    1.433   .     S
C168   C170    1.404   .     A
C169   C171    1.420   .     A
C170   C172    1.411   .     A
C171   C205    1.488   .     S
C171   C173    1.400   .     A
C172   C208    1.487   .     S
C172   C174    1.399   .     A
C173   H183    1.082   .     S
C173   C175    1.402   .     A
C174   C176    1.404   .     A
C174   H184    1.083   .     S
C175   C398    1.477   1_545 S
C176   C397    1.477   .     S
Cu177  Cu178   2.690   .     S
Cu177  N190    2.021   .     S
Cu177  O194    1.963   .     S
Cu177  O191    1.956   .     S
Cu177  O195    1.952   .     S
Cu177  O198    1.959   .     S
Cu178  N189    2.021   .     S
Cu178  O193    1.963   .     S
Cu178  O197    1.959   .     S
Cu178  O196    1.952   .     S
Cu178  O192    1.956   .     S
H179   C15     1.087   1_655 S
N199   H200    1.046   .     S
N199   H201    1.046   .     S
N202   H204    1.046   .     S
N202   H203    1.044   .     S
C205   H206    1.084   .     S
C205   O207    1.221   .     D
C208   O210    1.221   .     D
C208   H209    1.084   .     S
C211   O213    1.221   .     D
C211   H212    1.081   .     S
C214   O216    1.221   .     D
C214   H215    1.081   .     S
N217   H218    1.045   .     S
N217   H219    1.045   .     S
N220   H221    1.042   .     S
N220   H666    1.046   .     S
H222   N664    1.046   1_554 S
C223   C243    1.470   .     S
C223   O267    1.299   .     A
C223   O265    1.297   .     A
C224   C244    1.452   .     S
C224   O266    1.292   .     A
C224   O268    1.295   .     A
C225   C233    1.410   .     A
C225   C227    1.408   .     A
C225   H259    1.080   .     S
C226   C234    1.412   .     A
C226   C228    1.410   .     A
C226   H260    1.082   .     S
C227   H261    1.080   .     S
C227   N263    1.365   .     A
C228   H262    1.081   .     S
C228   N264    1.365   .     A
C229   C285    1.478   .     S
C229   C231    1.427   .     A
C229   N263    1.384   .     A
C230   C232    1.420   .     A
C230   N264    1.384   .     A
C230   C288    1.479   .     S
C231   N291    1.436   .     S
C231   C233    1.406   .     A
C232   C234    1.413   .     A
C232   N294    1.437   .     S
C233   C678    1.520   1_554 S
C234   C677    1.520   .     S
C235   O271    1.295   .     A
C235   C237    1.436   .     S
C235   O269    1.287   .     A
C236   C238    1.436   .     S
C236   O272    1.295   .     A
C236   O270    1.287   .     A
C237   C386    1.340   1_455 S
C237   H401    1.087   1_455 S
C238   C311    1.340   .     S
C238   H328    1.087   .     S
C239   H255    1.083   .     S
C239   C241    1.392   .     A
C239   C249    1.399   .     A
C240   H256    1.083   .     S
C240   C242    1.393   .     A
C240   C250    1.403   .     A
C241   N273    1.434   .     S
C241   C243    1.413   .     A
C242   N276    1.433   .     S
C242   C244    1.404   .     A
C243   C245    1.420   .     A
C244   C246    1.411   .     A
C245   C279    1.488   .     S
C245   C247    1.400   .     A
C246   C282    1.487   .     S
C246   C248    1.399   .     A
C247   H257    1.082   .     S
C247   C249    1.402   .     A
C248   C250    1.404   .     A
C248   H258    1.083   .     S
C250   C27     1.477   1_565 S
Cu251  Cu252   2.690   .     S
Cu251  N264    2.021   .     S
Cu251  O268    1.963   .     S
Cu251  O265    1.956   .     S
Cu251  O269    1.952   .     S
Cu251  O272    1.959   .     S
Cu252  N263    2.021   .     S
Cu252  O267    1.963   .     S
Cu252  O271    1.959   .     S
Cu252  O270    1.952   .     S
Cu252  O266    1.956   .     S
H253   C311    1.087   .     S
H254   C386    1.087   1_455 S
N273   H274    1.046   .     S
N273   H275    1.046   .     S
N276   H278    1.046   .     S
N276   H277    1.044   .     S
C279   H280    1.084   .     S
C279   O281    1.221   .     D
C282   O284    1.221   .     D
C282   H283    1.084   .     S
C285   O287    1.221   .     D
C285   H286    1.081   .     S
C288   O290    1.221   .     D
C288   H289    1.081   .     S
N291   H292    1.045   .     S
N291   H293    1.045   .     S
N294   H295    1.042   .     S
N294   H740    1.046   .     S
H296   N738    1.046   1_554 S
C297   C317    1.470   .     S
C297   O341    1.299   .     A
C297   O339    1.297   .     A
C298   C318    1.452   .     S
C298   O340    1.292   .     A
C298   O342    1.295   .     A
C299   C307    1.410   .     A
C299   C301    1.408   .     A
C299   H333    1.080   .     S
C300   C308    1.412   .     A
C300   C302    1.410   .     A
C300   H334    1.082   .     S
C301   H335    1.080   .     S
C301   N337    1.365   .     A
C302   H336    1.081   .     S
C302   N338    1.365   .     A
C303   C359    1.478   .     S
C303   C305    1.427   .     A
C303   N337    1.384   .     A
C304   C306    1.420   .     A
C304   N338    1.384   .     A
C304   C362    1.479   .     S
C305   N365    1.436   .     S
C305   C307    1.406   .     A
C306   C308    1.413   .     A
C306   N368    1.437   .     S
C307   C752    1.520   1_554 S
C308   C751    1.520   .     S
C309   O345    1.295   .     A
C309   C311    1.436   .     S
C309   O343    1.287   .     A
C310   C312    1.436   .     S
C310   O346    1.295   .     A
C310   O344    1.287   .     A
C312   C385    1.340   .     S
C312   H402    1.087   .     S
C313   H329    1.083   .     S
C313   C315    1.392   .     A
C313   C323    1.399   .     A
C314   H330    1.083   .     S
C314   C316    1.393   .     A
C314   C324    1.403   .     A
C315   N347    1.434   .     S
C315   C317    1.413   .     A
C316   N350    1.433   .     S
C316   C318    1.404   .     A
C317   C319    1.420   .     A
C318   C320    1.411   .     A
C319   C353    1.488   .     S
C319   C321    1.400   .     A
C320   C356    1.487   .     S
C320   C322    1.399   .     A
C321   H331    1.082   .     S
C321   C323    1.402   .     A
C322   C324    1.404   .     A
C322   H332    1.083   .     S
C324   C101    1.477   1_565 S
Cu325  Cu326   2.690   .     S
Cu325  N338    2.021   .     S
Cu325  O342    1.963   .     S
Cu325  O339    1.956   .     S
Cu325  O343    1.952   .     S
Cu325  O346    1.959   .     S
Cu326  N337    2.021   .     S
Cu326  O341    1.963   .     S
Cu326  O345    1.959   .     S
Cu326  O344    1.952   .     S
Cu326  O340    1.956   .     S
H327   C385    1.087   .     S
N347   H348    1.046   .     S
N347   H349    1.046   .     S
N350   H352    1.046   .     S
N350   H351    1.044   .     S
C353   H354    1.084   .     S
C353   O355    1.221   .     D
C356   O358    1.221   .     D
C356   H357    1.084   .     S
C359   O361    1.221   .     D
C359   H360    1.081   .     S
C362   O364    1.221   .     D
C362   H363    1.081   .     S
N365   H366    1.045   .     S
N365   H367    1.045   .     S
N368   H369    1.042   .     S
N368   H814    1.046   .     S
H370   N812    1.046   1_554 S
C371   C391    1.470   .     S
C371   O415    1.299   .     A
C371   O413    1.297   .     A
C372   C392    1.452   .     S
C372   O414    1.292   .     A
C372   O416    1.295   .     A
C373   C381    1.410   .     A
C373   C375    1.408   .     A
C373   H407    1.080   .     S
C374   C382    1.412   .     A
C374   C376    1.410   .     A
C374   H408    1.082   .     S
C375   H409    1.080   .     S
C375   N411    1.365   .     A
C376   H410    1.081   .     S
C376   N412    1.365   .     A
C377   C433    1.478   .     S
C377   C379    1.427   .     A
C377   N411    1.384   .     A
C378   C380    1.420   .     A
C378   N412    1.384   .     A
C378   C436    1.479   .     S
C379   N439    1.436   .     S
C379   C381    1.406   .     A
C380   C382    1.413   .     A
C380   N442    1.437   .     S
C381   C826    1.520   1_554 S
C382   C825    1.520   .     S
C383   O419    1.295   .     A
C383   C385    1.436   .     S
C383   O417    1.287   .     A
C384   C386    1.436   .     S
C384   O420    1.295   .     A
C384   O418    1.287   .     A
C386   C237    1.340   1_655 S
C386   H254    1.087   1_655 S
C387   H403    1.083   .     S
C387   C389    1.392   .     A
C387   C397    1.399   .     A
C388   H404    1.083   .     S
C388   C390    1.393   .     A
C388   C398    1.403   .     A
C389   N421    1.434   .     S
C389   C391    1.413   .     A
C390   N424    1.433   .     S
C390   C392    1.404   .     A
C391   C393    1.420   .     A
C392   C394    1.411   .     A
C393   C427    1.488   .     S
C393   C395    1.400   .     A
C394   C430    1.487   .     S
C394   C396    1.399   .     A
C395   H405    1.082   .     S
C395   C397    1.402   .     A
C396   C398    1.404   .     A
C396   H406    1.083   .     S
C398   C175    1.477   1_565 S
Cu399  Cu400   2.690   .     S
Cu399  N412    2.021   .     S
Cu399  O416    1.963   .     S
Cu399  O413    1.956   .     S
Cu399  O417    1.952   .     S
Cu399  O420    1.959   .     S
Cu400  N411    2.021   .     S
Cu400  O415    1.963   .     S
Cu400  O419    1.959   .     S
Cu400  O418    1.952   .     S
Cu400  O414    1.956   .     S
H401   C237    1.087   1_655 S
N421   H422    1.046   .     S
N421   H423    1.046   .     S
N424   H426    1.046   .     S
N424   H425    1.044   .     S
C427   H428    1.084   .     S
C427   O429    1.221   .     D
C430   O432    1.221   .     D
C430   H431    1.084   .     S
C433   O435    1.221   .     D
C433   H434    1.081   .     S
C436   O438    1.221   .     D
C436   H437    1.081   .     S
N439   H440    1.045   .     S
N439   H441    1.045   .     S
N442   H443    1.042   .     S
N442   H888    1.046   .     S
H444   N886    1.046   1_554 S
C445   C465    1.470   .     S
C445   O489    1.299   .     A
C445   O487    1.297   .     A
C446   C466    1.452   .     S
C446   O488    1.292   .     A
C446   O490    1.295   .     A
C447   C455    1.410   .     A
C447   C449    1.408   .     A
C447   H481    1.080   .     S
C448   C456    1.412   .     A
C448   C450    1.410   .     A
C448   H482    1.082   .     S
C449   H483    1.080   .     S
C449   N485    1.365   .     A
C450   H484    1.081   .     S
C450   N486    1.365   .     A
C451   C507    1.478   .     S
C451   C453    1.427   .     A
C451   N485    1.384   .     A
C452   C454    1.420   .     A
C452   N486    1.384   .     A
C452   C510    1.479   .     S
C453   N513    1.436   .     S
C453   C455    1.406   .     A
C454   C456    1.413   .     A
C454   N516    1.437   .     S
C456   C11     1.520   1_556 S
C457   O493    1.295   .     A
C457   C459    1.436   .     S
C457   O491    1.287   .     A
C458   C460    1.436   .     S
C458   O494    1.295   .     A
C458   O492    1.287   .     A
C459   C608    1.340   1_455 S
C459   H623    1.087   1_455 S
C460   C533    1.340   .     S
C460   H550    1.087   .     S
C461   H477    1.083   .     S
C461   C463    1.392   .     A
C461   C471    1.399   .     A
C462   H478    1.083   .     S
C462   C464    1.393   .     A
C462   C472    1.403   .     A
C463   N495    1.434   .     S
C463   C465    1.413   .     A
C464   N498    1.433   .     S
C464   C466    1.404   .     A
C465   C467    1.420   .     A
C466   C468    1.411   .     A
C467   C501    1.488   .     S
C467   C469    1.400   .     A
C468   C504    1.487   .     S
C468   C470    1.399   .     A
C469   H479    1.082   .     S
C469   C471    1.402   .     A
C470   C472    1.404   .     A
C470   H480    1.083   .     S
C471   C694    1.477   1_545 S
C472   C693    1.477   .     S
Cu473  Cu474   2.690   .     S
Cu473  N486    2.021   .     S
Cu473  O490    1.963   .     S
Cu473  O487    1.956   .     S
Cu473  O491    1.952   .     S
Cu473  O494    1.959   .     S
Cu474  N485    2.021   .     S
Cu474  O489    1.963   .     S
Cu474  O493    1.959   .     S
Cu474  O492    1.952   .     S
Cu474  O488    1.956   .     S
H475   C533    1.087   .     S
H476   C608    1.087   1_455 S
N495   H496    1.046   .     S
N495   H497    1.046   .     S
N498   H500    1.046   .     S
N498   H499    1.044   .     S
C501   H502    1.084   .     S
C501   O503    1.221   .     D
C504   O506    1.221   .     D
C504   H505    1.084   .     S
C507   O509    1.221   .     D
C507   H508    1.081   .     S
C510   O512    1.221   .     D
C510   H511    1.081   .     S
N513   H514    1.045   .     S
N513   H515    1.045   .     S
N516   H517    1.042   .     S
N516   H74     1.046   1_556 S
C519   C539    1.470   .     S
C519   O563    1.299   .     A
C519   O561    1.297   .     A
C520   C540    1.452   .     S
C520   O562    1.292   .     A
C520   O564    1.295   .     A
C521   C529    1.410   .     A
C521   C523    1.408   .     A
C521   H555    1.080   .     S
C522   C530    1.412   .     A
C522   C524    1.410   .     A
C522   H556    1.082   .     S
C523   H557    1.080   .     S
C523   N559    1.365   .     A
C524   H558    1.081   .     S
C524   N560    1.365   .     A
C525   C581    1.478   .     S
C525   C527    1.427   .     A
C525   N559    1.384   .     A
C526   C528    1.420   .     A
C526   N560    1.384   .     A
C526   C584    1.479   .     S
C527   N587    1.436   .     S
C527   C529    1.406   .     A
C528   C530    1.413   .     A
C528   N590    1.437   .     S
C530   C85     1.520   1_556 S
C531   O567    1.295   .     A
C531   C533    1.436   .     S
C531   O565    1.287   .     A
C532   C534    1.436   .     S
C532   O568    1.295   .     A
C532   O566    1.287   .     A
C534   C607    1.340   .     S
C534   H624    1.087   .     S
C535   H551    1.083   .     S
C535   C537    1.392   .     A
C535   C545    1.399   .     A
C536   H552    1.083   .     S
C536   C538    1.393   .     A
C536   C546    1.403   .     A
C537   N569    1.434   .     S
C537   C539    1.413   .     A
C538   N572    1.433   .     S
C538   C540    1.404   .     A
C539   C541    1.420   .     A
C540   C542    1.411   .     A
C541   C575    1.488   .     S
C541   C543    1.400   .     A
C542   C578    1.487   .     S
C542   C544    1.399   .     A
C543   H553    1.082   .     S
C543   C545    1.402   .     A
C544   C546    1.404   .     A
C544   H554    1.083   .     S
C545   C768    1.477   1_545 S
C546   C767    1.477   .     S
Cu547  Cu548   2.690   .     S
Cu547  N560    2.021   .     S
Cu547  O564    1.963   .     S
Cu547  O561    1.956   .     S
Cu547  O565    1.952   .     S
Cu547  O568    1.959   .     S
Cu548  N559    2.021   .     S
Cu548  O563    1.963   .     S
Cu548  O567    1.959   .     S
Cu548  O566    1.952   .     S
Cu548  O562    1.956   .     S
H549   C607    1.087   .     S
N569   H570    1.046   .     S
N569   H571    1.046   .     S
N572   H574    1.046   .     S
N572   H573    1.044   .     S
C575   H576    1.084   .     S
C575   O577    1.221   .     D
C578   O580    1.221   .     D
C578   H579    1.084   .     S
C581   O583    1.221   .     D
C581   H582    1.081   .     S
C584   O586    1.221   .     D
C584   H585    1.081   .     S
N587   H588    1.045   .     S
N587   H589    1.045   .     S
N590   H591    1.042   .     S
N590   H148    1.046   1_556 S
C593   C613    1.470   .     S
C593   O637    1.299   .     A
C593   O635    1.297   .     A
C594   C614    1.452   .     S
C594   O636    1.292   .     A
C594   O638    1.295   .     A
C595   C603    1.410   .     A
C595   C597    1.408   .     A
C595   H629    1.080   .     S
C596   C604    1.412   .     A
C596   C598    1.410   .     A
C596   H630    1.082   .     S
C597   H631    1.080   .     S
C597   N633    1.365   .     A
C598   H632    1.081   .     S
C598   N634    1.365   .     A
C599   C655    1.478   .     S
C599   C601    1.427   .     A
C599   N633    1.384   .     A
C600   C602    1.420   .     A
C600   N634    1.384   .     A
C600   C658    1.479   .     S
C601   N661    1.436   .     S
C601   C603    1.406   .     A
C602   C604    1.413   .     A
C602   N664    1.437   .     S
C604   C159    1.520   1_556 S
C605   O641    1.295   .     A
C605   C607    1.436   .     S
C605   O639    1.287   .     A
C606   C608    1.436   .     S
C606   O642    1.295   .     A
C606   O640    1.287   .     A
C608   C459    1.340   1_655 S
C608   H476    1.087   1_655 S
C609   H625    1.083   .     S
C609   C611    1.392   .     A
C609   C619    1.399   .     A
C610   H626    1.083   .     S
C610   C612    1.393   .     A
C610   C620    1.403   .     A
C611   N643    1.434   .     S
C611   C613    1.413   .     A
C612   N646    1.433   .     S
C612   C614    1.404   .     A
C613   C615    1.420   .     A
C614   C616    1.411   .     A
C615   C649    1.488   .     S
C615   C617    1.400   .     A
C616   C652    1.487   .     S
C616   C618    1.399   .     A
C617   H627    1.082   .     S
C617   C619    1.402   .     A
C618   C620    1.404   .     A
C618   H628    1.083   .     S
C619   C842    1.477   1_545 S
C620   C841    1.477   .     S
Cu621  Cu622   2.690   .     S
Cu621  N634    2.021   .     S
Cu621  O638    1.963   .     S
Cu621  O635    1.956   .     S
Cu621  O639    1.952   .     S
Cu621  O642    1.959   .     S
Cu622  N633    2.021   .     S
Cu622  O637    1.963   .     S
Cu622  O641    1.959   .     S
Cu622  O640    1.952   .     S
Cu622  O636    1.956   .     S
H623   C459    1.087   1_655 S
N643   H644    1.046   .     S
N643   H645    1.046   .     S
N646   H648    1.046   .     S
N646   H647    1.044   .     S
C649   H650    1.084   .     S
C649   O651    1.221   .     D
C652   O654    1.221   .     D
C652   H653    1.084   .     S
C655   O657    1.221   .     D
C655   H656    1.081   .     S
C658   O660    1.221   .     D
C658   H659    1.081   .     S
N661   H662    1.045   .     S
N661   H663    1.045   .     S
N664   H665    1.042   .     S
N664   H222    1.046   1_556 S
C667   C687    1.470   .     S
C667   O711    1.299   .     A
C667   O709    1.297   .     A
C668   C688    1.452   .     S
C668   O710    1.292   .     A
C668   O712    1.295   .     A
C669   C677    1.410   .     A
C669   C671    1.408   .     A
C669   H703    1.080   .     S
C670   C678    1.412   .     A
C670   C672    1.410   .     A
C670   H704    1.082   .     S
C671   H705    1.080   .     S
C671   N707    1.365   .     A
C672   H706    1.081   .     S
C672   N708    1.365   .     A
C673   C729    1.478   .     S
C673   C675    1.427   .     A
C673   N707    1.384   .     A
C674   C676    1.420   .     A
C674   N708    1.384   .     A
C674   C732    1.479   .     S
C675   N735    1.436   .     S
C675   C677    1.406   .     A
C676   C678    1.413   .     A
C676   N738    1.437   .     S
C678   C233    1.520   1_556 S
C679   O715    1.295   .     A
C679   C681    1.436   .     S
C679   O713    1.287   .     A
C680   C682    1.436   .     S
C680   O716    1.295   .     A
C680   O714    1.287   .     A
C681   C830    1.340   1_455 S
C681   H845    1.087   1_455 S
C682   C755    1.340   .     S
C682   H772    1.087   .     S
C683   H699    1.083   .     S
C683   C685    1.392   .     A
C683   C693    1.399   .     A
C684   H700    1.083   .     S
C684   C686    1.393   .     A
C684   C694    1.403   .     A
C685   N717    1.434   .     S
C685   C687    1.413   .     A
C686   N720    1.433   .     S
C686   C688    1.404   .     A
C687   C689    1.420   .     A
C688   C690    1.411   .     A
C689   C723    1.488   .     S
C689   C691    1.400   .     A
C690   C726    1.487   .     S
C690   C692    1.399   .     A
C691   H701    1.082   .     S
C691   C693    1.402   .     A
C692   C694    1.404   .     A
C692   H702    1.083   .     S
C694   C471    1.477   1_565 S
Cu695  Cu696   2.690   .     S
Cu695  N708    2.021   .     S
Cu695  O712    1.963   .     S
Cu695  O709    1.956   .     S
Cu695  O713    1.952   .     S
Cu695  O716    1.959   .     S
Cu696  N707    2.021   .     S
Cu696  O711    1.963   .     S
Cu696  O715    1.959   .     S
Cu696  O714    1.952   .     S
Cu696  O710    1.956   .     S
H697   C755    1.087   .     S
H698   C830    1.087   1_455 S
N717   H718    1.046   .     S
N717   H719    1.046   .     S
N720   H722    1.046   .     S
N720   H721    1.044   .     S
C723   H724    1.084   .     S
C723   O725    1.221   .     D
C726   O728    1.221   .     D
C726   H727    1.084   .     S
C729   O731    1.221   .     D
C729   H730    1.081   .     S
C732   O734    1.221   .     D
C732   H733    1.081   .     S
N735   H736    1.045   .     S
N735   H737    1.045   .     S
N738   H739    1.042   .     S
N738   H296    1.046   1_556 S
C741   C761    1.470   .     S
C741   O785    1.299   .     A
C741   O783    1.297   .     A
C742   C762    1.452   .     S
C742   O784    1.292   .     A
C742   O786    1.295   .     A
C743   C751    1.410   .     A
C743   C745    1.408   .     A
C743   H777    1.080   .     S
C744   C752    1.412   .     A
C744   C746    1.410   .     A
C744   H778    1.082   .     S
C745   H779    1.080   .     S
C745   N781    1.365   .     A
C746   H780    1.081   .     S
C746   N782    1.365   .     A
C747   C803    1.478   .     S
C747   C749    1.427   .     A
C747   N781    1.384   .     A
C748   C750    1.420   .     A
C748   N782    1.384   .     A
C748   C806    1.479   .     S
C749   N809    1.436   .     S
C749   C751    1.406   .     A
C750   C752    1.413   .     A
C750   N812    1.437   .     S
C752   C307    1.520   1_556 S
C753   O789    1.295   .     A
C753   C755    1.436   .     S
C753   O787    1.287   .     A
C754   C756    1.436   .     S
C754   O790    1.295   .     A
C754   O788    1.287   .     A
C756   C829    1.340   .     S
C756   H846    1.087   .     S
C757   H773    1.083   .     S
C757   C759    1.392   .     A
C757   C767    1.399   .     A
C758   H774    1.083   .     S
C758   C760    1.393   .     A
C758   C768    1.403   .     A
C759   N791    1.434   .     S
C759   C761    1.413   .     A
C760   N794    1.433   .     S
C760   C762    1.404   .     A
C761   C763    1.420   .     A
C762   C764    1.411   .     A
C763   C797    1.488   .     S
C763   C765    1.400   .     A
C764   C800    1.487   .     S
C764   C766    1.399   .     A
C765   H775    1.082   .     S
C765   C767    1.402   .     A
C766   C768    1.404   .     A
C766   H776    1.083   .     S
C768   C545    1.477   1_565 S
Cu769  Cu770   2.690   .     S
Cu769  N782    2.021   .     S
Cu769  O786    1.963   .     S
Cu769  O783    1.956   .     S
Cu769  O787    1.952   .     S
Cu769  O790    1.959   .     S
Cu770  N781    2.021   .     S
Cu770  O785    1.963   .     S
Cu770  O789    1.959   .     S
Cu770  O788    1.952   .     S
Cu770  O784    1.956   .     S
H771   C829    1.087   .     S
N791   H792    1.046   .     S
N791   H793    1.046   .     S
N794   H796    1.046   .     S
N794   H795    1.044   .     S
C797   H798    1.084   .     S
C797   O799    1.221   .     D
C800   O802    1.221   .     D
C800   H801    1.084   .     S
C803   O805    1.221   .     D
C803   H804    1.081   .     S
C806   O808    1.221   .     D
C806   H807    1.081   .     S
N809   H810    1.045   .     S
N809   H811    1.045   .     S
N812   H813    1.042   .     S
N812   H370    1.046   1_556 S
C815   C835    1.470   .     S
C815   O859    1.299   .     A
C815   O857    1.297   .     A
C816   C836    1.452   .     S
C816   O858    1.292   .     A
C816   O860    1.295   .     A
C817   C825    1.410   .     A
C817   C819    1.408   .     A
C817   H851    1.080   .     S
C818   C826    1.412   .     A
C818   C820    1.410   .     A
C818   H852    1.082   .     S
C819   H853    1.080   .     S
C819   N855    1.365   .     A
C820   H854    1.081   .     S
C820   N856    1.365   .     A
C821   C877    1.478   .     S
C821   C823    1.427   .     A
C821   N855    1.384   .     A
C822   C824    1.420   .     A
C822   N856    1.384   .     A
C822   C880    1.479   .     S
C823   N883    1.436   .     S
C823   C825    1.406   .     A
C824   C826    1.413   .     A
C824   N886    1.437   .     S
C826   C381    1.520   1_556 S
C827   O863    1.295   .     A
C827   C829    1.436   .     S
C827   O861    1.287   .     A
C828   C830    1.436   .     S
C828   O864    1.295   .     A
C828   O862    1.287   .     A
C830   C681    1.340   1_655 S
C830   H698    1.087   1_655 S
C831   H847    1.083   .     S
C831   C833    1.392   .     A
C831   C841    1.399   .     A
C832   H848    1.083   .     S
C832   C834    1.393   .     A
C832   C842    1.403   .     A
C833   N865    1.434   .     S
C833   C835    1.413   .     A
C834   N868    1.433   .     S
C834   C836    1.404   .     A
C835   C837    1.420   .     A
C836   C838    1.411   .     A
C837   C871    1.488   .     S
C837   C839    1.400   .     A
C838   C874    1.487   .     S
C838   C840    1.399   .     A
C839   H849    1.082   .     S
C839   C841    1.402   .     A
C840   C842    1.404   .     A
C840   H850    1.083   .     S
C842   C619    1.477   1_565 S
Cu843  Cu844   2.690   .     S
Cu843  N856    2.021   .     S
Cu843  O860    1.963   .     S
Cu843  O857    1.956   .     S
Cu843  O861    1.952   .     S
Cu843  O864    1.959   .     S
Cu844  N855    2.021   .     S
Cu844  O859    1.963   .     S
Cu844  O863    1.959   .     S
Cu844  O862    1.952   .     S
Cu844  O858    1.956   .     S
H845   C681    1.087   1_655 S
N865   H866    1.046   .     S
N865   H867    1.046   .     S
N868   H870    1.046   .     S
N868   H869    1.044   .     S
C871   H872    1.084   .     S
C871   O873    1.221   .     D
C874   O876    1.221   .     D
C874   H875    1.084   .     S
C877   O879    1.221   .     D
C877   H878    1.081   .     S
C880   O882    1.221   .     D
C880   H881    1.081   .     S
N883   H884    1.045   .     S
N883   H885    1.045   .     S
N886   H887    1.042   .     S
N886   H444    1.046   1_556 S
