data_str_m2_o1_o17_pcu_sym.112
_audit_creation_date              2020-01-03
_audit_creation_method            'Materials Studio'
_symmetry_space_group_name_H-M    'P1'
_symmetry_Int_Tables_number       1
_symmetry_cell_setting            triclinic
loop_
_symmetry_equiv_pos_as_xyz
  x,y,z
_cell_length_a                    32.7508
_cell_length_b                    28.4916
_cell_length_c                    30.1776
_cell_angle_alpha                 89.6277
_cell_angle_beta                  91.2017
_cell_angle_gamma                 88.6623
loop_
_atom_site_label
_atom_site_type_symbol
_atom_site_fract_x
_atom_site_fract_y
_atom_site_fract_z
_atom_site_U_iso_or_equiv
_atom_site_adp_type
_atom_site_occupancy
O1     O     0.10655   0.20625   0.24999   0.00000  Uiso   1.00
O2     O     0.22679   0.12709   0.25000   0.00000  Uiso   1.00
O3     O     0.22679   0.20625   0.25000   0.00000  Uiso   1.00
O4     O     0.10655   0.12709   0.24999   0.00000  Uiso   1.00
C5     C     0.08738   0.16734   0.25148   0.00000  Uiso   1.00
C6     C     0.24596   0.16591   0.24877   0.00000  Uiso   1.00
O7     O     0.16666   0.20627   0.18513   0.00000  Uiso   1.00
O8     O     0.16668   0.12707   0.31487   0.00000  Uiso   1.00
O9     O     0.16668   0.20627   0.31487   0.00000  Uiso   1.00
O10    O     0.16666   0.12707   0.18513   0.00000  Uiso   1.00
C11    C     0.16685   0.16677   0.16445   0.00000  Uiso   1.00
C12    C     0.16557   0.16665   0.33547   0.00000  Uiso   1.00
Cu13   Cu    0.16667   0.21355   0.25000   0.00000  Uiso   1.00
Cu14   Cu    0.16667   0.11978   0.25000   0.00000  Uiso   1.00
C15    C     0.19936   0.14857   0.40728   0.00000  Uiso   1.00
C16    C     0.13625   0.19226   0.09277   0.00000  Uiso   1.00
C17    C     0.16547   0.16722   0.38368   0.00000  Uiso   1.00
C18    C     0.16731   0.16737   0.11616   0.00000  Uiso   1.00
C19    C     0.13178   0.18680   0.40570   0.00000  Uiso   1.00
C20    C     0.19891   0.14387   0.09379   0.00000  Uiso   1.00
C21    C     0.13363   0.19181   0.45243   0.00000  Uiso   1.00
C22    C     0.20170   0.14915   0.04727   0.00000  Uiso   1.00
C23    C     0.16741   0.17099   0.47646   0.00000  Uiso   1.00
C24    C     0.16843   0.17108   0.02335   0.00000  Uiso   1.00
C25    C     0.20024   0.14982   0.45370   0.00000  Uiso   1.00
C26    C     0.13593   0.19270   0.04625   0.00000  Uiso   1.00
C27    C     0.10300   0.21665   0.47614   0.00000  Uiso   1.00
C28    C     0.23648   0.13338   0.02370   0.00000  Uiso   1.00
C29    C     0.10382   0.21504   0.02236   0.00000  Uiso   1.00
C30    C     0.23464   0.13265   0.47753   0.00000  Uiso   1.00
H31    H     0.07950   0.23296   0.03969   0.00000  Uiso   1.00
H32    H     0.26137   0.12038   0.46011   0.00000  Uiso   1.00
C33    C     0.02276   0.12958   0.27177   0.00000  Uiso   1.00
C34    C     0.31077   0.20228   0.22720   0.00000  Uiso   1.00
C35    C     0.31350   0.12657   0.26719   0.00000  Uiso   1.00
C36    C     0.01963   0.20624   0.23363   0.00000  Uiso   1.00
C37    C     0.29069   0.16403   0.24647   0.00000  Uiso   1.00
C38    C     0.04261   0.16866   0.25368   0.00000  Uiso   1.00
C39    C     0.14297   0.02566   0.22022   0.00000  Uiso   1.00
C40    C     0.19037   0.30767   0.27979   0.00000  Uiso   1.00
C41    C     0.19030   0.02400   0.27984   0.00000  Uiso   1.00
C42    C     0.14304   0.30935   0.22018   0.00000  Uiso   1.00
H43    H     0.12394   0.04508   0.19643   0.00000  Uiso   1.00
H44    H     0.20938   0.28825   0.30359   0.00000  Uiso   1.00
H45    H     0.20914   0.04209   0.30377   0.00000  Uiso   1.00
H46    H     0.12413   0.29125   0.19636   0.00000  Uiso   1.00
N47    N     0.16667   0.28402   0.25000   0.00000  Uiso   1.00
N48    N     0.16667   0.04931   0.25000   0.00000  Uiso   1.00
N49    N     0.23260   0.12753   0.38378   0.00000  Uiso   1.00
O50    O     0.25499   0.15317   0.35856   0.00000  Uiso   1.00
O51    O     0.23983   0.08254   0.38697   0.00000  Uiso   1.00
N52    N     0.10353   0.21428   0.11651   0.00000  Uiso   1.00
O53    O     0.09897   0.25976   0.11623   0.00000  Uiso   1.00
O54    O     0.07910   0.18885   0.13954   0.00000  Uiso   1.00
N55    N     0.09407   0.19464   0.38120   0.00000  Uiso   1.00
O56    O     0.09143   0.22554   0.34927   0.00000  Uiso   1.00
O57    O     0.06227   0.17021   0.39059   0.00000  Uiso   1.00
N58    N     0.22538   0.11131   0.11786   0.00000  Uiso   1.00
O59    O     0.24810   0.12538   0.15082   0.00000  Uiso   1.00
O60    O     0.22609   0.06710   0.10729   0.00000  Uiso   1.00
C61    C     0.07230   0.24900   0.45449   0.00000  Uiso   1.00
H62    H     0.07946   0.26752   0.42428   0.00000  Uiso   1.00
O63    O     0.03899   0.25629   0.47089   0.00000  Uiso   1.00
C64    C     0.27681   0.12288   0.04551   0.00000  Uiso   1.00
H65    H     0.28530   0.13996   0.07621   0.00000  Uiso   1.00
O66    O     0.30148   0.09591   0.02876   0.00000  Uiso   1.00
C67    C     0.04677   0.09264   0.29698   0.00000  Uiso   1.00
H68    H     0.06972   0.10282   0.32132   0.00000  Uiso   1.00
O69    O     0.04258   0.05100   0.28917   0.00000  Uiso   1.00
C70    C     0.28832   0.23796   0.19884   0.00000  Uiso   1.00
H71    H     0.29574   0.27482   0.20092   0.00000  Uiso   1.00
O72    O     0.26246   0.22612   0.17165   0.00000  Uiso   1.00
C73    C     0.29339   0.08382   0.28390   0.00000  Uiso   1.00
H74    H     0.27460   0.06321   0.26173   0.00000  Uiso   1.00
O75    O     0.29855   0.07068   0.32222   0.00000  Uiso   1.00
C76    C     0.03893   0.24984   0.21816   0.00000  Uiso   1.00
H77    H     0.03896   0.25847   0.18311   0.00000  Uiso   1.00
O78    O     0.05232   0.27779   0.24496   0.00000  Uiso   1.00
O79    O     0.43988   0.20625   0.24999   0.00000  Uiso   1.00
O80    O     0.56012   0.12709   0.25000   0.00000  Uiso   1.00
O81    O     0.56012   0.20625   0.25000   0.00000  Uiso   1.00
O82    O     0.43988   0.12709   0.24999   0.00000  Uiso   1.00
C83    C     0.42071   0.16734   0.25148   0.00000  Uiso   1.00
C84    C     0.57929   0.16591   0.24877   0.00000  Uiso   1.00
O85    O     0.49999   0.20627   0.18513   0.00000  Uiso   1.00
O86    O     0.50001   0.12707   0.31487   0.00000  Uiso   1.00
O87    O     0.50001   0.20627   0.31487   0.00000  Uiso   1.00
O88    O     0.49999   0.12707   0.18513   0.00000  Uiso   1.00
C89    C     0.50019   0.16677   0.16445   0.00000  Uiso   1.00
C90    C     0.49891   0.16665   0.33547   0.00000  Uiso   1.00
Cu91   Cu    0.50000   0.21355   0.25000   0.00000  Uiso   1.00
Cu92   Cu    0.50000   0.11978   0.25000   0.00000  Uiso   1.00
C93    C     0.53269   0.14857   0.40728   0.00000  Uiso   1.00
C94    C     0.46959   0.19226   0.09277   0.00000  Uiso   1.00
C95    C     0.49881   0.16722   0.38368   0.00000  Uiso   1.00
C96    C     0.50064   0.16737   0.11616   0.00000  Uiso   1.00
C97    C     0.46511   0.18680   0.40570   0.00000  Uiso   1.00
C98    C     0.53225   0.14387   0.09379   0.00000  Uiso   1.00
C99    C     0.46697   0.19181   0.45243   0.00000  Uiso   1.00
C100   C     0.53504   0.14915   0.04727   0.00000  Uiso   1.00
C101   C     0.50075   0.17099   0.47646   0.00000  Uiso   1.00
C102   C     0.50177   0.17108   0.02335   0.00000  Uiso   1.00
C103   C     0.53357   0.14982   0.45370   0.00000  Uiso   1.00
C104   C     0.46927   0.19270   0.04625   0.00000  Uiso   1.00
C105   C     0.43633   0.21665   0.47614   0.00000  Uiso   1.00
C106   C     0.56981   0.13338   0.02370   0.00000  Uiso   1.00
C107   C     0.43716   0.21504   0.02236   0.00000  Uiso   1.00
C108   C     0.56798   0.13265   0.47753   0.00000  Uiso   1.00
H109   H     0.41283   0.23296   0.03969   0.00000  Uiso   1.00
H110   H     0.59471   0.12038   0.46011   0.00000  Uiso   1.00
C111   C     0.35610   0.12958   0.27177   0.00000  Uiso   1.00
C112   C     0.64410   0.20228   0.22720   0.00000  Uiso   1.00
C113   C     0.64683   0.12657   0.26719   0.00000  Uiso   1.00
C114   C     0.35297   0.20624   0.23363   0.00000  Uiso   1.00
C115   C     0.62402   0.16403   0.24647   0.00000  Uiso   1.00
C116   C     0.37595   0.16866   0.25368   0.00000  Uiso   1.00
C117   C     0.47631   0.02566   0.22022   0.00000  Uiso   1.00
C118   C     0.52370   0.30767   0.27979   0.00000  Uiso   1.00
C119   C     0.52364   0.02400   0.27984   0.00000  Uiso   1.00
C120   C     0.47637   0.30935   0.22018   0.00000  Uiso   1.00
H121   H     0.45727   0.04508   0.19643   0.00000  Uiso   1.00
H122   H     0.54271   0.28825   0.30359   0.00000  Uiso   1.00
H123   H     0.54247   0.04209   0.30377   0.00000  Uiso   1.00
H124   H     0.45746   0.29125   0.19636   0.00000  Uiso   1.00
N125   N     0.50000   0.28402   0.25000   0.00000  Uiso   1.00
N126   N     0.50000   0.04931   0.25000   0.00000  Uiso   1.00
N127   N     0.56593   0.12753   0.38378   0.00000  Uiso   1.00
O128   O     0.58833   0.15317   0.35856   0.00000  Uiso   1.00
O129   O     0.57316   0.08254   0.38697   0.00000  Uiso   1.00
N130   N     0.43686   0.21428   0.11651   0.00000  Uiso   1.00
O131   O     0.43231   0.25976   0.11623   0.00000  Uiso   1.00
O132   O     0.41244   0.18885   0.13954   0.00000  Uiso   1.00
N133   N     0.42741   0.19464   0.38120   0.00000  Uiso   1.00
O134   O     0.42476   0.22554   0.34927   0.00000  Uiso   1.00
O135   O     0.39561   0.17021   0.39059   0.00000  Uiso   1.00
N136   N     0.55871   0.11131   0.11786   0.00000  Uiso   1.00
O137   O     0.58143   0.12538   0.15082   0.00000  Uiso   1.00
O138   O     0.55942   0.06710   0.10729   0.00000  Uiso   1.00
C139   C     0.40564   0.24900   0.45449   0.00000  Uiso   1.00
H140   H     0.41280   0.26752   0.42428   0.00000  Uiso   1.00
O141   O     0.37232   0.25629   0.47089   0.00000  Uiso   1.00
C142   C     0.61014   0.12288   0.04551   0.00000  Uiso   1.00
H143   H     0.61864   0.13996   0.07621   0.00000  Uiso   1.00
O144   O     0.63481   0.09591   0.02876   0.00000  Uiso   1.00
C145   C     0.38010   0.09264   0.29698   0.00000  Uiso   1.00
H146   H     0.40306   0.10282   0.32132   0.00000  Uiso   1.00
O147   O     0.37591   0.05100   0.28917   0.00000  Uiso   1.00
C148   C     0.62165   0.23796   0.19884   0.00000  Uiso   1.00
H149   H     0.62907   0.27482   0.20092   0.00000  Uiso   1.00
O150   O     0.59580   0.22612   0.17165   0.00000  Uiso   1.00
C151   C     0.62672   0.08382   0.28390   0.00000  Uiso   1.00
H152   H     0.60794   0.06321   0.26173   0.00000  Uiso   1.00
O153   O     0.63189   0.07068   0.32222   0.00000  Uiso   1.00
C154   C     0.37226   0.24984   0.21816   0.00000  Uiso   1.00
H155   H     0.37229   0.25847   0.18311   0.00000  Uiso   1.00
O156   O     0.38565   0.27779   0.24496   0.00000  Uiso   1.00
O157   O     0.77321   0.20625   0.24999   0.00000  Uiso   1.00
O158   O     0.89345   0.12709   0.25000   0.00000  Uiso   1.00
O159   O     0.89345   0.20625   0.25000   0.00000  Uiso   1.00
O160   O     0.77321   0.12709   0.24999   0.00000  Uiso   1.00
C161   C     0.75405   0.16734   0.25148   0.00000  Uiso   1.00
C162   C     0.91262   0.16591   0.24877   0.00000  Uiso   1.00
O163   O     0.83332   0.20627   0.18513   0.00000  Uiso   1.00
O164   O     0.83334   0.12707   0.31487   0.00000  Uiso   1.00
O165   O     0.83334   0.20627   0.31487   0.00000  Uiso   1.00
O166   O     0.83332   0.12707   0.18513   0.00000  Uiso   1.00
C167   C     0.83352   0.16677   0.16445   0.00000  Uiso   1.00
C168   C     0.83224   0.16665   0.33547   0.00000  Uiso   1.00
Cu169  Cu    0.83333   0.21355   0.25000   0.00000  Uiso   1.00
Cu170  Cu    0.83333   0.11978   0.25000   0.00000  Uiso   1.00
C171   C     0.86602   0.14857   0.40728   0.00000  Uiso   1.00
C172   C     0.80292   0.19226   0.09277   0.00000  Uiso   1.00
C173   C     0.83214   0.16722   0.38368   0.00000  Uiso   1.00
C174   C     0.83398   0.16737   0.11616   0.00000  Uiso   1.00
C175   C     0.79845   0.18680   0.40570   0.00000  Uiso   1.00
C176   C     0.86558   0.14387   0.09379   0.00000  Uiso   1.00
C177   C     0.80030   0.19181   0.45243   0.00000  Uiso   1.00
C178   C     0.86837   0.14915   0.04727   0.00000  Uiso   1.00
C179   C     0.83408   0.17099   0.47646   0.00000  Uiso   1.00
C180   C     0.83510   0.17108   0.02335   0.00000  Uiso   1.00
C181   C     0.86691   0.14982   0.45370   0.00000  Uiso   1.00
C182   C     0.80260   0.19270   0.04625   0.00000  Uiso   1.00
C183   C     0.76966   0.21665   0.47614   0.00000  Uiso   1.00
C184   C     0.90314   0.13338   0.02370   0.00000  Uiso   1.00
C185   C     0.77049   0.21504   0.02236   0.00000  Uiso   1.00
C186   C     0.90131   0.13265   0.47753   0.00000  Uiso   1.00
H187   H     0.74616   0.23296   0.03969   0.00000  Uiso   1.00
H188   H     0.92804   0.12038   0.46011   0.00000  Uiso   1.00
C189   C     0.68943   0.12958   0.27177   0.00000  Uiso   1.00
C190   C     0.97743   0.20228   0.22720   0.00000  Uiso   1.00
C191   C     0.98016   0.12657   0.26719   0.00000  Uiso   1.00
C192   C     0.68630   0.20624   0.23363   0.00000  Uiso   1.00
C193   C     0.95736   0.16403   0.24647   0.00000  Uiso   1.00
C194   C     0.70928   0.16866   0.25368   0.00000  Uiso   1.00
C195   C     0.80964   0.02566   0.22022   0.00000  Uiso   1.00
C196   C     0.85703   0.30767   0.27979   0.00000  Uiso   1.00
C197   C     0.85697   0.02400   0.27984   0.00000  Uiso   1.00
C198   C     0.80971   0.30935   0.22018   0.00000  Uiso   1.00
H199   H     0.79060   0.04508   0.19643   0.00000  Uiso   1.00
H200   H     0.87604   0.28825   0.30359   0.00000  Uiso   1.00
H201   H     0.87580   0.04209   0.30377   0.00000  Uiso   1.00
H202   H     0.79080   0.29125   0.19636   0.00000  Uiso   1.00
N203   N     0.83333   0.28402   0.25000   0.00000  Uiso   1.00
N204   N     0.83333   0.04931   0.25000   0.00000  Uiso   1.00
N205   N     0.89926   0.12753   0.38378   0.00000  Uiso   1.00
O206   O     0.92166   0.15317   0.35856   0.00000  Uiso   1.00
O207   O     0.90650   0.08254   0.38697   0.00000  Uiso   1.00
N208   N     0.77020   0.21428   0.11651   0.00000  Uiso   1.00
O209   O     0.76564   0.25976   0.11623   0.00000  Uiso   1.00
O210   O     0.74577   0.18885   0.13954   0.00000  Uiso   1.00
N211   N     0.76074   0.19464   0.38120   0.00000  Uiso   1.00
O212   O     0.75810   0.22554   0.34927   0.00000  Uiso   1.00
O213   O     0.72894   0.17021   0.39059   0.00000  Uiso   1.00
N214   N     0.89205   0.11131   0.11786   0.00000  Uiso   1.00
O215   O     0.91476   0.12538   0.15082   0.00000  Uiso   1.00
O216   O     0.89275   0.06710   0.10729   0.00000  Uiso   1.00
C217   C     0.73897   0.24900   0.45449   0.00000  Uiso   1.00
H218   H     0.74613   0.26752   0.42428   0.00000  Uiso   1.00
O219   O     0.70566   0.25629   0.47089   0.00000  Uiso   1.00
C220   C     0.94348   0.12288   0.04551   0.00000  Uiso   1.00
H221   H     0.95197   0.13996   0.07621   0.00000  Uiso   1.00
O222   O     0.96815   0.09591   0.02876   0.00000  Uiso   1.00
C223   C     0.71343   0.09264   0.29698   0.00000  Uiso   1.00
H224   H     0.73639   0.10282   0.32132   0.00000  Uiso   1.00
O225   O     0.70925   0.05100   0.28917   0.00000  Uiso   1.00
C226   C     0.95498   0.23796   0.19884   0.00000  Uiso   1.00
H227   H     0.96241   0.27482   0.20092   0.00000  Uiso   1.00
O228   O     0.92913   0.22612   0.17165   0.00000  Uiso   1.00
C229   C     0.96005   0.08382   0.28390   0.00000  Uiso   1.00
H230   H     0.94127   0.06321   0.26173   0.00000  Uiso   1.00
O231   O     0.96522   0.07068   0.32222   0.00000  Uiso   1.00
C232   C     0.70559   0.24984   0.21816   0.00000  Uiso   1.00
H233   H     0.70563   0.25847   0.18311   0.00000  Uiso   1.00
O234   O     0.71898   0.27779   0.24496   0.00000  Uiso   1.00
O235   O     0.10655   0.53958   0.24999   0.00000  Uiso   1.00
O236   O     0.22679   0.46042   0.25000   0.00000  Uiso   1.00
O237   O     0.22679   0.53958   0.25000   0.00000  Uiso   1.00
O238   O     0.10655   0.46042   0.24999   0.00000  Uiso   1.00
C239   C     0.08738   0.50067   0.25148   0.00000  Uiso   1.00
C240   C     0.24596   0.49924   0.24877   0.00000  Uiso   1.00
O241   O     0.16666   0.53960   0.18513   0.00000  Uiso   1.00
O242   O     0.16668   0.46040   0.31487   0.00000  Uiso   1.00
O243   O     0.16668   0.53960   0.31487   0.00000  Uiso   1.00
O244   O     0.16666   0.46040   0.18513   0.00000  Uiso   1.00
C245   C     0.16685   0.50011   0.16445   0.00000  Uiso   1.00
C246   C     0.16557   0.49999   0.33547   0.00000  Uiso   1.00
Cu247  Cu    0.16667   0.54689   0.25000   0.00000  Uiso   1.00
Cu248  Cu    0.16667   0.45311   0.25000   0.00000  Uiso   1.00
C249   C     0.19936   0.48190   0.40728   0.00000  Uiso   1.00
C250   C     0.13625   0.52560   0.09277   0.00000  Uiso   1.00
C251   C     0.16547   0.50055   0.38368   0.00000  Uiso   1.00
C252   C     0.16731   0.50070   0.11616   0.00000  Uiso   1.00
C253   C     0.13178   0.52013   0.40570   0.00000  Uiso   1.00
C254   C     0.19891   0.47720   0.09379   0.00000  Uiso   1.00
C255   C     0.13363   0.52514   0.45243   0.00000  Uiso   1.00
C256   C     0.20170   0.48248   0.04727   0.00000  Uiso   1.00
C257   C     0.16741   0.50432   0.47646   0.00000  Uiso   1.00
C258   C     0.16843   0.50441   0.02335   0.00000  Uiso   1.00
C259   C     0.20024   0.48315   0.45370   0.00000  Uiso   1.00
C260   C     0.13593   0.52603   0.04625   0.00000  Uiso   1.00
C261   C     0.10300   0.54999   0.47614   0.00000  Uiso   1.00
C262   C     0.23648   0.46671   0.02370   0.00000  Uiso   1.00
C263   C     0.10382   0.54838   0.02236   0.00000  Uiso   1.00
C264   C     0.23464   0.46598   0.47753   0.00000  Uiso   1.00
H265   H     0.07950   0.56629   0.03969   0.00000  Uiso   1.00
H266   H     0.26137   0.45371   0.46011   0.00000  Uiso   1.00
C267   C     0.02276   0.46291   0.27177   0.00000  Uiso   1.00
C268   C     0.31077   0.53562   0.22720   0.00000  Uiso   1.00
C269   C     0.31350   0.45990   0.26719   0.00000  Uiso   1.00
C270   C     0.01963   0.53957   0.23363   0.00000  Uiso   1.00
C271   C     0.29069   0.49736   0.24647   0.00000  Uiso   1.00
C272   C     0.04261   0.50200   0.25368   0.00000  Uiso   1.00
C273   C     0.14297   0.35900   0.22022   0.00000  Uiso   1.00
C274   C     0.19037   0.64101   0.27979   0.00000  Uiso   1.00
C275   C     0.19030   0.35733   0.27984   0.00000  Uiso   1.00
C276   C     0.14304   0.64268   0.22018   0.00000  Uiso   1.00
H277   H     0.12394   0.37841   0.19643   0.00000  Uiso   1.00
H278   H     0.20938   0.62158   0.30359   0.00000  Uiso   1.00
H279   H     0.20914   0.37543   0.30377   0.00000  Uiso   1.00
H280   H     0.12413   0.62459   0.19636   0.00000  Uiso   1.00
N281   N     0.16667   0.61736   0.25000   0.00000  Uiso   1.00
N282   N     0.16667   0.38264   0.25000   0.00000  Uiso   1.00
N283   N     0.23260   0.46087   0.38378   0.00000  Uiso   1.00
O284   O     0.25499   0.48650   0.35856   0.00000  Uiso   1.00
O285   O     0.23983   0.41587   0.38697   0.00000  Uiso   1.00
N286   N     0.10353   0.54761   0.11651   0.00000  Uiso   1.00
O287   O     0.09897   0.59310   0.11623   0.00000  Uiso   1.00
O288   O     0.07910   0.52218   0.13954   0.00000  Uiso   1.00
N289   N     0.09407   0.52797   0.38120   0.00000  Uiso   1.00
O290   O     0.09143   0.55887   0.34927   0.00000  Uiso   1.00
O291   O     0.06227   0.50354   0.39059   0.00000  Uiso   1.00
N292   N     0.22538   0.44464   0.11786   0.00000  Uiso   1.00
O293   O     0.24810   0.45871   0.15082   0.00000  Uiso   1.00
O294   O     0.22609   0.40043   0.10729   0.00000  Uiso   1.00
C295   C     0.07230   0.58233   0.45449   0.00000  Uiso   1.00
H296   H     0.07946   0.60085   0.42428   0.00000  Uiso   1.00
O297   O     0.03899   0.58963   0.47089   0.00000  Uiso   1.00
C298   C     0.27681   0.45622   0.04551   0.00000  Uiso   1.00
H299   H     0.28530   0.47329   0.07621   0.00000  Uiso   1.00
O300   O     0.30148   0.42924   0.02876   0.00000  Uiso   1.00
C301   C     0.04677   0.42597   0.29698   0.00000  Uiso   1.00
H302   H     0.06972   0.43615   0.32132   0.00000  Uiso   1.00
O303   O     0.04258   0.38433   0.28917   0.00000  Uiso   1.00
C304   C     0.28832   0.57129   0.19884   0.00000  Uiso   1.00
H305   H     0.29574   0.60815   0.20092   0.00000  Uiso   1.00
O306   O     0.26246   0.55945   0.17165   0.00000  Uiso   1.00
C307   C     0.29339   0.41715   0.28390   0.00000  Uiso   1.00
H308   H     0.27460   0.39655   0.26173   0.00000  Uiso   1.00
O309   O     0.29855   0.40401   0.32222   0.00000  Uiso   1.00
C310   C     0.03893   0.58317   0.21816   0.00000  Uiso   1.00
H311   H     0.03896   0.59180   0.18311   0.00000  Uiso   1.00
O312   O     0.05232   0.61112   0.24496   0.00000  Uiso   1.00
O313   O     0.43988   0.53958   0.24999   0.00000  Uiso   1.00
O314   O     0.56012   0.46042   0.25000   0.00000  Uiso   1.00
O315   O     0.56012   0.53958   0.25000   0.00000  Uiso   1.00
O316   O     0.43988   0.46042   0.24999   0.00000  Uiso   1.00
C317   C     0.42071   0.50067   0.25148   0.00000  Uiso   1.00
C318   C     0.57929   0.49924   0.24877   0.00000  Uiso   1.00
O319   O     0.49999   0.53960   0.18513   0.00000  Uiso   1.00
O320   O     0.50001   0.46040   0.31487   0.00000  Uiso   1.00
O321   O     0.50001   0.53960   0.31487   0.00000  Uiso   1.00
O322   O     0.49999   0.46040   0.18513   0.00000  Uiso   1.00
C323   C     0.50019   0.50011   0.16445   0.00000  Uiso   1.00
C324   C     0.49891   0.49999   0.33547   0.00000  Uiso   1.00
Cu325  Cu    0.50000   0.54689   0.25000   0.00000  Uiso   1.00
Cu326  Cu    0.50000   0.45311   0.25000   0.00000  Uiso   1.00
C327   C     0.53269   0.48190   0.40728   0.00000  Uiso   1.00
C328   C     0.46959   0.52560   0.09277   0.00000  Uiso   1.00
C329   C     0.49881   0.50055   0.38368   0.00000  Uiso   1.00
C330   C     0.50064   0.50070   0.11616   0.00000  Uiso   1.00
C331   C     0.46511   0.52013   0.40570   0.00000  Uiso   1.00
C332   C     0.53225   0.47720   0.09379   0.00000  Uiso   1.00
C333   C     0.46697   0.52514   0.45243   0.00000  Uiso   1.00
C334   C     0.53504   0.48248   0.04727   0.00000  Uiso   1.00
C335   C     0.50075   0.50432   0.47646   0.00000  Uiso   1.00
C336   C     0.50177   0.50441   0.02335   0.00000  Uiso   1.00
C337   C     0.53357   0.48315   0.45370   0.00000  Uiso   1.00
C338   C     0.46927   0.52603   0.04625   0.00000  Uiso   1.00
C339   C     0.43633   0.54999   0.47614   0.00000  Uiso   1.00
C340   C     0.56981   0.46671   0.02370   0.00000  Uiso   1.00
C341   C     0.43716   0.54838   0.02236   0.00000  Uiso   1.00
C342   C     0.56798   0.46598   0.47753   0.00000  Uiso   1.00
H343   H     0.41283   0.56629   0.03969   0.00000  Uiso   1.00
H344   H     0.59471   0.45371   0.46011   0.00000  Uiso   1.00
C345   C     0.35610   0.46291   0.27177   0.00000  Uiso   1.00
C346   C     0.64410   0.53562   0.22720   0.00000  Uiso   1.00
C347   C     0.64683   0.45990   0.26719   0.00000  Uiso   1.00
C348   C     0.35297   0.53957   0.23363   0.00000  Uiso   1.00
C349   C     0.62402   0.49736   0.24647   0.00000  Uiso   1.00
C350   C     0.37595   0.50200   0.25368   0.00000  Uiso   1.00
C351   C     0.47631   0.35900   0.22022   0.00000  Uiso   1.00
C352   C     0.52370   0.64101   0.27979   0.00000  Uiso   1.00
C353   C     0.52364   0.35733   0.27984   0.00000  Uiso   1.00
C354   C     0.47637   0.64268   0.22018   0.00000  Uiso   1.00
H355   H     0.45727   0.37841   0.19643   0.00000  Uiso   1.00
H356   H     0.54271   0.62158   0.30359   0.00000  Uiso   1.00
H357   H     0.54247   0.37543   0.30377   0.00000  Uiso   1.00
H358   H     0.45746   0.62459   0.19636   0.00000  Uiso   1.00
N359   N     0.50000   0.61736   0.25000   0.00000  Uiso   1.00
N360   N     0.50000   0.38264   0.25000   0.00000  Uiso   1.00
N361   N     0.56593   0.46087   0.38378   0.00000  Uiso   1.00
O362   O     0.58833   0.48650   0.35856   0.00000  Uiso   1.00
O363   O     0.57316   0.41587   0.38697   0.00000  Uiso   1.00
N364   N     0.43686   0.54761   0.11651   0.00000  Uiso   1.00
O365   O     0.43231   0.59310   0.11623   0.00000  Uiso   1.00
O366   O     0.41244   0.52218   0.13954   0.00000  Uiso   1.00
N367   N     0.42741   0.52797   0.38120   0.00000  Uiso   1.00
O368   O     0.42476   0.55887   0.34927   0.00000  Uiso   1.00
O369   O     0.39561   0.50354   0.39059   0.00000  Uiso   1.00
N370   N     0.55871   0.44464   0.11786   0.00000  Uiso   1.00
O371   O     0.58143   0.45871   0.15082   0.00000  Uiso   1.00
O372   O     0.55942   0.40043   0.10729   0.00000  Uiso   1.00
C373   C     0.40564   0.58233   0.45449   0.00000  Uiso   1.00
H374   H     0.41280   0.60085   0.42428   0.00000  Uiso   1.00
O375   O     0.37232   0.58963   0.47089   0.00000  Uiso   1.00
C376   C     0.61014   0.45622   0.04551   0.00000  Uiso   1.00
H377   H     0.61864   0.47329   0.07621   0.00000  Uiso   1.00
O378   O     0.63481   0.42924   0.02876   0.00000  Uiso   1.00
C379   C     0.38010   0.42597   0.29698   0.00000  Uiso   1.00
H380   H     0.40306   0.43615   0.32132   0.00000  Uiso   1.00
O381   O     0.37591   0.38433   0.28917   0.00000  Uiso   1.00
C382   C     0.62165   0.57129   0.19884   0.00000  Uiso   1.00
H383   H     0.62907   0.60815   0.20092   0.00000  Uiso   1.00
O384   O     0.59580   0.55945   0.17165   0.00000  Uiso   1.00
C385   C     0.62672   0.41715   0.28390   0.00000  Uiso   1.00
H386   H     0.60794   0.39655   0.26173   0.00000  Uiso   1.00
O387   O     0.63189   0.40401   0.32222   0.00000  Uiso   1.00
C388   C     0.37226   0.58317   0.21816   0.00000  Uiso   1.00
H389   H     0.37229   0.59180   0.18311   0.00000  Uiso   1.00
O390   O     0.38565   0.61112   0.24496   0.00000  Uiso   1.00
O391   O     0.77321   0.53958   0.24999   0.00000  Uiso   1.00
O392   O     0.89345   0.46042   0.25000   0.00000  Uiso   1.00
O393   O     0.89345   0.53958   0.25000   0.00000  Uiso   1.00
O394   O     0.77321   0.46042   0.24999   0.00000  Uiso   1.00
C395   C     0.75405   0.50067   0.25148   0.00000  Uiso   1.00
C396   C     0.91262   0.49924   0.24877   0.00000  Uiso   1.00
O397   O     0.83332   0.53960   0.18513   0.00000  Uiso   1.00
O398   O     0.83334   0.46040   0.31487   0.00000  Uiso   1.00
O399   O     0.83334   0.53960   0.31487   0.00000  Uiso   1.00
O400   O     0.83332   0.46040   0.18513   0.00000  Uiso   1.00
C401   C     0.83352   0.50011   0.16445   0.00000  Uiso   1.00
C402   C     0.83224   0.49999   0.33547   0.00000  Uiso   1.00
Cu403  Cu    0.83333   0.54689   0.25000   0.00000  Uiso   1.00
Cu404  Cu    0.83333   0.45311   0.25000   0.00000  Uiso   1.00
C405   C     0.86602   0.48190   0.40728   0.00000  Uiso   1.00
C406   C     0.80292   0.52560   0.09277   0.00000  Uiso   1.00
C407   C     0.83214   0.50055   0.38368   0.00000  Uiso   1.00
C408   C     0.83398   0.50070   0.11616   0.00000  Uiso   1.00
C409   C     0.79845   0.52013   0.40570   0.00000  Uiso   1.00
C410   C     0.86558   0.47720   0.09379   0.00000  Uiso   1.00
C411   C     0.80030   0.52514   0.45243   0.00000  Uiso   1.00
C412   C     0.86837   0.48248   0.04727   0.00000  Uiso   1.00
C413   C     0.83408   0.50432   0.47646   0.00000  Uiso   1.00
C414   C     0.83510   0.50441   0.02335   0.00000  Uiso   1.00
C415   C     0.86691   0.48315   0.45370   0.00000  Uiso   1.00
C416   C     0.80260   0.52603   0.04625   0.00000  Uiso   1.00
C417   C     0.76966   0.54999   0.47614   0.00000  Uiso   1.00
C418   C     0.90314   0.46671   0.02370   0.00000  Uiso   1.00
C419   C     0.77049   0.54838   0.02236   0.00000  Uiso   1.00
C420   C     0.90131   0.46598   0.47753   0.00000  Uiso   1.00
H421   H     0.74616   0.56629   0.03969   0.00000  Uiso   1.00
H422   H     0.92804   0.45371   0.46011   0.00000  Uiso   1.00
C423   C     0.68943   0.46291   0.27177   0.00000  Uiso   1.00
C424   C     0.97743   0.53562   0.22720   0.00000  Uiso   1.00
C425   C     0.98016   0.45990   0.26719   0.00000  Uiso   1.00
C426   C     0.68630   0.53957   0.23363   0.00000  Uiso   1.00
C427   C     0.95736   0.49736   0.24647   0.00000  Uiso   1.00
C428   C     0.70928   0.50200   0.25368   0.00000  Uiso   1.00
C429   C     0.80964   0.35900   0.22022   0.00000  Uiso   1.00
C430   C     0.85703   0.64101   0.27979   0.00000  Uiso   1.00
C431   C     0.85697   0.35733   0.27984   0.00000  Uiso   1.00
C432   C     0.80971   0.64268   0.22018   0.00000  Uiso   1.00
H433   H     0.79060   0.37841   0.19643   0.00000  Uiso   1.00
H434   H     0.87604   0.62158   0.30359   0.00000  Uiso   1.00
H435   H     0.87580   0.37543   0.30377   0.00000  Uiso   1.00
H436   H     0.79080   0.62459   0.19636   0.00000  Uiso   1.00
N437   N     0.83333   0.61736   0.25000   0.00000  Uiso   1.00
N438   N     0.83333   0.38264   0.25000   0.00000  Uiso   1.00
N439   N     0.89926   0.46087   0.38378   0.00000  Uiso   1.00
O440   O     0.92166   0.48650   0.35856   0.00000  Uiso   1.00
O441   O     0.90650   0.41587   0.38697   0.00000  Uiso   1.00
N442   N     0.77020   0.54761   0.11651   0.00000  Uiso   1.00
O443   O     0.76564   0.59310   0.11623   0.00000  Uiso   1.00
O444   O     0.74577   0.52218   0.13954   0.00000  Uiso   1.00
N445   N     0.76074   0.52797   0.38120   0.00000  Uiso   1.00
O446   O     0.75810   0.55887   0.34927   0.00000  Uiso   1.00
O447   O     0.72894   0.50354   0.39059   0.00000  Uiso   1.00
N448   N     0.89205   0.44464   0.11786   0.00000  Uiso   1.00
O449   O     0.91476   0.45871   0.15082   0.00000  Uiso   1.00
O450   O     0.89275   0.40043   0.10729   0.00000  Uiso   1.00
C451   C     0.73897   0.58233   0.45449   0.00000  Uiso   1.00
H452   H     0.74613   0.60085   0.42428   0.00000  Uiso   1.00
O453   O     0.70566   0.58963   0.47089   0.00000  Uiso   1.00
C454   C     0.94348   0.45622   0.04551   0.00000  Uiso   1.00
H455   H     0.95197   0.47329   0.07621   0.00000  Uiso   1.00
O456   O     0.96815   0.42924   0.02876   0.00000  Uiso   1.00
C457   C     0.71343   0.42597   0.29698   0.00000  Uiso   1.00
H458   H     0.73639   0.43615   0.32132   0.00000  Uiso   1.00
O459   O     0.70925   0.38433   0.28917   0.00000  Uiso   1.00
C460   C     0.95498   0.57129   0.19884   0.00000  Uiso   1.00
H461   H     0.96241   0.60815   0.20092   0.00000  Uiso   1.00
O462   O     0.92913   0.55945   0.17165   0.00000  Uiso   1.00
C463   C     0.96005   0.41715   0.28390   0.00000  Uiso   1.00
H464   H     0.94127   0.39655   0.26173   0.00000  Uiso   1.00
O465   O     0.96522   0.40401   0.32222   0.00000  Uiso   1.00
C466   C     0.70559   0.58317   0.21816   0.00000  Uiso   1.00
H467   H     0.70563   0.59180   0.18311   0.00000  Uiso   1.00
O468   O     0.71898   0.61112   0.24496   0.00000  Uiso   1.00
O469   O     0.10655   0.87291   0.24999   0.00000  Uiso   1.00
O470   O     0.22679   0.79375   0.25000   0.00000  Uiso   1.00
O471   O     0.22679   0.87291   0.25000   0.00000  Uiso   1.00
O472   O     0.10655   0.79375   0.24999   0.00000  Uiso   1.00
C473   C     0.08738   0.83400   0.25148   0.00000  Uiso   1.00
C474   C     0.24596   0.83257   0.24877   0.00000  Uiso   1.00
O475   O     0.16666   0.87293   0.18513   0.00000  Uiso   1.00
O476   O     0.16668   0.79373   0.31487   0.00000  Uiso   1.00
O477   O     0.16668   0.87293   0.31487   0.00000  Uiso   1.00
O478   O     0.16666   0.79373   0.18513   0.00000  Uiso   1.00
C479   C     0.16685   0.83344   0.16445   0.00000  Uiso   1.00
C480   C     0.16557   0.83332   0.33547   0.00000  Uiso   1.00
Cu481  Cu    0.16667   0.88022   0.25000   0.00000  Uiso   1.00
Cu482  Cu    0.16667   0.78645   0.25000   0.00000  Uiso   1.00
C483   C     0.19936   0.81524   0.40728   0.00000  Uiso   1.00
C484   C     0.13625   0.85893   0.09277   0.00000  Uiso   1.00
C485   C     0.16547   0.83388   0.38368   0.00000  Uiso   1.00
C486   C     0.16731   0.83403   0.11616   0.00000  Uiso   1.00
C487   C     0.13178   0.85347   0.40570   0.00000  Uiso   1.00
C488   C     0.19891   0.81053   0.09379   0.00000  Uiso   1.00
C489   C     0.13363   0.85848   0.45243   0.00000  Uiso   1.00
C490   C     0.20170   0.81581   0.04727   0.00000  Uiso   1.00
C491   C     0.16741   0.83765   0.47646   0.00000  Uiso   1.00
C492   C     0.16843   0.83774   0.02335   0.00000  Uiso   1.00
C493   C     0.20024   0.81649   0.45370   0.00000  Uiso   1.00
C494   C     0.13593   0.85937   0.04625   0.00000  Uiso   1.00
C495   C     0.10300   0.88332   0.47614   0.00000  Uiso   1.00
C496   C     0.23648   0.80005   0.02370   0.00000  Uiso   1.00
C497   C     0.10382   0.88171   0.02236   0.00000  Uiso   1.00
C498   C     0.23464   0.79931   0.47753   0.00000  Uiso   1.00
H499   H     0.07950   0.89962   0.03969   0.00000  Uiso   1.00
H500   H     0.26137   0.78704   0.46011   0.00000  Uiso   1.00
C501   C     0.02276   0.79625   0.27177   0.00000  Uiso   1.00
C502   C     0.31077   0.86895   0.22720   0.00000  Uiso   1.00
C503   C     0.31350   0.79323   0.26719   0.00000  Uiso   1.00
C504   C     0.01963   0.87290   0.23363   0.00000  Uiso   1.00
C505   C     0.29069   0.83069   0.24647   0.00000  Uiso   1.00
C506   C     0.04261   0.83533   0.25368   0.00000  Uiso   1.00
C507   C     0.14297   0.69233   0.22022   0.00000  Uiso   1.00
C508   C     0.19037   0.97434   0.27979   0.00000  Uiso   1.00
C509   C     0.19030   0.69066   0.27984   0.00000  Uiso   1.00
C510   C     0.14304   0.97601   0.22018   0.00000  Uiso   1.00
H511   H     0.12394   0.71175   0.19643   0.00000  Uiso   1.00
H512   H     0.20938   0.95492   0.30359   0.00000  Uiso   1.00
H513   H     0.20914   0.70876   0.30377   0.00000  Uiso   1.00
H514   H     0.12413   0.95792   0.19636   0.00000  Uiso   1.00
N515   N     0.16667   0.95069   0.25000   0.00000  Uiso   1.00
N516   N     0.16667   0.71598   0.25000   0.00000  Uiso   1.00
N517   N     0.23260   0.79420   0.38378   0.00000  Uiso   1.00
O518   O     0.25499   0.81983   0.35856   0.00000  Uiso   1.00
O519   O     0.23983   0.74920   0.38697   0.00000  Uiso   1.00
N520   N     0.10353   0.88095   0.11651   0.00000  Uiso   1.00
O521   O     0.09897   0.92643   0.11623   0.00000  Uiso   1.00
O522   O     0.07910   0.85551   0.13954   0.00000  Uiso   1.00
N523   N     0.09407   0.86131   0.38120   0.00000  Uiso   1.00
O524   O     0.09143   0.89221   0.34927   0.00000  Uiso   1.00
O525   O     0.06227   0.83688   0.39059   0.00000  Uiso   1.00
N526   N     0.22538   0.77797   0.11786   0.00000  Uiso   1.00
O527   O     0.24810   0.79204   0.15082   0.00000  Uiso   1.00
O528   O     0.22609   0.73376   0.10729   0.00000  Uiso   1.00
C529   C     0.07230   0.91567   0.45449   0.00000  Uiso   1.00
H530   H     0.07946   0.93419   0.42428   0.00000  Uiso   1.00
O531   O     0.03899   0.92296   0.47089   0.00000  Uiso   1.00
C532   C     0.27681   0.78955   0.04551   0.00000  Uiso   1.00
H533   H     0.28530   0.80662   0.07621   0.00000  Uiso   1.00
O534   O     0.30148   0.76258   0.02876   0.00000  Uiso   1.00
C535   C     0.04677   0.75930   0.29698   0.00000  Uiso   1.00
H536   H     0.06972   0.76948   0.32132   0.00000  Uiso   1.00
O537   O     0.04258   0.71767   0.28917   0.00000  Uiso   1.00
C538   C     0.28832   0.90462   0.19884   0.00000  Uiso   1.00
H539   H     0.29574   0.94148   0.20092   0.00000  Uiso   1.00
O540   O     0.26246   0.89278   0.17165   0.00000  Uiso   1.00
C541   C     0.29339   0.75049   0.28390   0.00000  Uiso   1.00
H542   H     0.27460   0.72988   0.26173   0.00000  Uiso   1.00
O543   O     0.29855   0.73735   0.32222   0.00000  Uiso   1.00
C544   C     0.03893   0.91651   0.21816   0.00000  Uiso   1.00
H545   H     0.03896   0.92514   0.18311   0.00000  Uiso   1.00
O546   O     0.05232   0.94446   0.24496   0.00000  Uiso   1.00
O547   O     0.43988   0.87291   0.24999   0.00000  Uiso   1.00
O548   O     0.56012   0.79375   0.25000   0.00000  Uiso   1.00
O549   O     0.56012   0.87291   0.25000   0.00000  Uiso   1.00
O550   O     0.43988   0.79375   0.24999   0.00000  Uiso   1.00
C551   C     0.42071   0.83400   0.25148   0.00000  Uiso   1.00
C552   C     0.57929   0.83257   0.24877   0.00000  Uiso   1.00
O553   O     0.49999   0.87293   0.18513   0.00000  Uiso   1.00
O554   O     0.50001   0.79373   0.31487   0.00000  Uiso   1.00
O555   O     0.50001   0.87293   0.31487   0.00000  Uiso   1.00
O556   O     0.49999   0.79373   0.18513   0.00000  Uiso   1.00
C557   C     0.50019   0.83344   0.16445   0.00000  Uiso   1.00
C558   C     0.49891   0.83332   0.33547   0.00000  Uiso   1.00
Cu559  Cu    0.50000   0.88022   0.25000   0.00000  Uiso   1.00
Cu560  Cu    0.50000   0.78645   0.25000   0.00000  Uiso   1.00
C561   C     0.53269   0.81524   0.40728   0.00000  Uiso   1.00
C562   C     0.46959   0.85893   0.09277   0.00000  Uiso   1.00
C563   C     0.49881   0.83388   0.38368   0.00000  Uiso   1.00
C564   C     0.50064   0.83403   0.11616   0.00000  Uiso   1.00
C565   C     0.46511   0.85347   0.40570   0.00000  Uiso   1.00
C566   C     0.53225   0.81053   0.09379   0.00000  Uiso   1.00
C567   C     0.46697   0.85848   0.45243   0.00000  Uiso   1.00
C568   C     0.53504   0.81581   0.04727   0.00000  Uiso   1.00
C569   C     0.50075   0.83765   0.47646   0.00000  Uiso   1.00
C570   C     0.50177   0.83774   0.02335   0.00000  Uiso   1.00
C571   C     0.53357   0.81649   0.45370   0.00000  Uiso   1.00
C572   C     0.46927   0.85937   0.04625   0.00000  Uiso   1.00
C573   C     0.43633   0.88332   0.47614   0.00000  Uiso   1.00
C574   C     0.56981   0.80005   0.02370   0.00000  Uiso   1.00
C575   C     0.43716   0.88171   0.02236   0.00000  Uiso   1.00
C576   C     0.56798   0.79931   0.47753   0.00000  Uiso   1.00
H577   H     0.41283   0.89962   0.03969   0.00000  Uiso   1.00
H578   H     0.59471   0.78704   0.46011   0.00000  Uiso   1.00
C579   C     0.35610   0.79625   0.27177   0.00000  Uiso   1.00
C580   C     0.64410   0.86895   0.22720   0.00000  Uiso   1.00
C581   C     0.64683   0.79323   0.26719   0.00000  Uiso   1.00
C582   C     0.35297   0.87290   0.23363   0.00000  Uiso   1.00
C583   C     0.62402   0.83069   0.24647   0.00000  Uiso   1.00
C584   C     0.37595   0.83533   0.25368   0.00000  Uiso   1.00
C585   C     0.47631   0.69233   0.22022   0.00000  Uiso   1.00
C586   C     0.52370   0.97434   0.27979   0.00000  Uiso   1.00
C587   C     0.52364   0.69066   0.27984   0.00000  Uiso   1.00
C588   C     0.47637   0.97601   0.22018   0.00000  Uiso   1.00
H589   H     0.45727   0.71175   0.19643   0.00000  Uiso   1.00
H590   H     0.54271   0.95492   0.30359   0.00000  Uiso   1.00
H591   H     0.54247   0.70876   0.30377   0.00000  Uiso   1.00
H592   H     0.45746   0.95792   0.19636   0.00000  Uiso   1.00
N593   N     0.50000   0.95069   0.25000   0.00000  Uiso   1.00
N594   N     0.50000   0.71598   0.25000   0.00000  Uiso   1.00
N595   N     0.56593   0.79420   0.38378   0.00000  Uiso   1.00
O596   O     0.58833   0.81983   0.35856   0.00000  Uiso   1.00
O597   O     0.57316   0.74920   0.38697   0.00000  Uiso   1.00
N598   N     0.43686   0.88095   0.11651   0.00000  Uiso   1.00
O599   O     0.43231   0.92643   0.11623   0.00000  Uiso   1.00
O600   O     0.41244   0.85551   0.13954   0.00000  Uiso   1.00
N601   N     0.42741   0.86131   0.38120   0.00000  Uiso   1.00
O602   O     0.42476   0.89221   0.34927   0.00000  Uiso   1.00
O603   O     0.39561   0.83688   0.39059   0.00000  Uiso   1.00
N604   N     0.55871   0.77797   0.11786   0.00000  Uiso   1.00
O605   O     0.58143   0.79204   0.15082   0.00000  Uiso   1.00
O606   O     0.55942   0.73376   0.10729   0.00000  Uiso   1.00
C607   C     0.40564   0.91567   0.45449   0.00000  Uiso   1.00
H608   H     0.41280   0.93419   0.42428   0.00000  Uiso   1.00
O609   O     0.37232   0.92296   0.47089   0.00000  Uiso   1.00
C610   C     0.61014   0.78955   0.04551   0.00000  Uiso   1.00
H611   H     0.61864   0.80662   0.07621   0.00000  Uiso   1.00
O612   O     0.63481   0.76258   0.02876   0.00000  Uiso   1.00
C613   C     0.38010   0.75930   0.29698   0.00000  Uiso   1.00
H614   H     0.40306   0.76948   0.32132   0.00000  Uiso   1.00
O615   O     0.37591   0.71767   0.28917   0.00000  Uiso   1.00
C616   C     0.62165   0.90462   0.19884   0.00000  Uiso   1.00
H617   H     0.62907   0.94148   0.20092   0.00000  Uiso   1.00
O618   O     0.59580   0.89278   0.17165   0.00000  Uiso   1.00
C619   C     0.62672   0.75049   0.28390   0.00000  Uiso   1.00
H620   H     0.60794   0.72988   0.26173   0.00000  Uiso   1.00
O621   O     0.63189   0.73735   0.32222   0.00000  Uiso   1.00
C622   C     0.37226   0.91651   0.21816   0.00000  Uiso   1.00
H623   H     0.37229   0.92514   0.18311   0.00000  Uiso   1.00
O624   O     0.38565   0.94446   0.24496   0.00000  Uiso   1.00
O625   O     0.77321   0.87291   0.24999   0.00000  Uiso   1.00
O626   O     0.89345   0.79375   0.25000   0.00000  Uiso   1.00
O627   O     0.89345   0.87291   0.25000   0.00000  Uiso   1.00
O628   O     0.77321   0.79375   0.24999   0.00000  Uiso   1.00
C629   C     0.75405   0.83400   0.25148   0.00000  Uiso   1.00
C630   C     0.91262   0.83257   0.24877   0.00000  Uiso   1.00
O631   O     0.83332   0.87293   0.18513   0.00000  Uiso   1.00
O632   O     0.83334   0.79373   0.31487   0.00000  Uiso   1.00
O633   O     0.83334   0.87293   0.31487   0.00000  Uiso   1.00
O634   O     0.83332   0.79373   0.18513   0.00000  Uiso   1.00
C635   C     0.83352   0.83344   0.16445   0.00000  Uiso   1.00
C636   C     0.83224   0.83332   0.33547   0.00000  Uiso   1.00
Cu637  Cu    0.83333   0.88022   0.25000   0.00000  Uiso   1.00
Cu638  Cu    0.83333   0.78645   0.25000   0.00000  Uiso   1.00
C639   C     0.86602   0.81524   0.40728   0.00000  Uiso   1.00
C640   C     0.80292   0.85893   0.09277   0.00000  Uiso   1.00
C641   C     0.83214   0.83388   0.38368   0.00000  Uiso   1.00
C642   C     0.83398   0.83403   0.11616   0.00000  Uiso   1.00
C643   C     0.79845   0.85347   0.40570   0.00000  Uiso   1.00
C644   C     0.86558   0.81053   0.09379   0.00000  Uiso   1.00
C645   C     0.80030   0.85848   0.45243   0.00000  Uiso   1.00
C646   C     0.86837   0.81581   0.04727   0.00000  Uiso   1.00
C647   C     0.83408   0.83765   0.47646   0.00000  Uiso   1.00
C648   C     0.83510   0.83774   0.02335   0.00000  Uiso   1.00
C649   C     0.86691   0.81649   0.45370   0.00000  Uiso   1.00
C650   C     0.80260   0.85937   0.04625   0.00000  Uiso   1.00
C651   C     0.76966   0.88332   0.47614   0.00000  Uiso   1.00
C652   C     0.90314   0.80005   0.02370   0.00000  Uiso   1.00
C653   C     0.77049   0.88171   0.02236   0.00000  Uiso   1.00
C654   C     0.90131   0.79931   0.47753   0.00000  Uiso   1.00
H655   H     0.74616   0.89962   0.03969   0.00000  Uiso   1.00
H656   H     0.92804   0.78704   0.46011   0.00000  Uiso   1.00
C657   C     0.68943   0.79625   0.27177   0.00000  Uiso   1.00
C658   C     0.97743   0.86895   0.22720   0.00000  Uiso   1.00
C659   C     0.98016   0.79323   0.26719   0.00000  Uiso   1.00
C660   C     0.68630   0.87290   0.23363   0.00000  Uiso   1.00
C661   C     0.95736   0.83069   0.24647   0.00000  Uiso   1.00
C662   C     0.70928   0.83533   0.25368   0.00000  Uiso   1.00
C663   C     0.80964   0.69233   0.22022   0.00000  Uiso   1.00
C664   C     0.85703   0.97434   0.27979   0.00000  Uiso   1.00
C665   C     0.85697   0.69066   0.27984   0.00000  Uiso   1.00
C666   C     0.80971   0.97601   0.22018   0.00000  Uiso   1.00
H667   H     0.79060   0.71175   0.19643   0.00000  Uiso   1.00
H668   H     0.87604   0.95492   0.30359   0.00000  Uiso   1.00
H669   H     0.87580   0.70876   0.30377   0.00000  Uiso   1.00
H670   H     0.79080   0.95792   0.19636   0.00000  Uiso   1.00
N671   N     0.83333   0.95069   0.25000   0.00000  Uiso   1.00
N672   N     0.83333   0.71598   0.25000   0.00000  Uiso   1.00
N673   N     0.89926   0.79420   0.38378   0.00000  Uiso   1.00
O674   O     0.92166   0.81983   0.35856   0.00000  Uiso   1.00
O675   O     0.90650   0.74920   0.38697   0.00000  Uiso   1.00
N676   N     0.77020   0.88095   0.11651   0.00000  Uiso   1.00
O677   O     0.76564   0.92643   0.11623   0.00000  Uiso   1.00
O678   O     0.74577   0.85551   0.13954   0.00000  Uiso   1.00
N679   N     0.76074   0.86131   0.38120   0.00000  Uiso   1.00
O680   O     0.75810   0.89221   0.34927   0.00000  Uiso   1.00
O681   O     0.72894   0.83688   0.39059   0.00000  Uiso   1.00
N682   N     0.89205   0.77797   0.11786   0.00000  Uiso   1.00
O683   O     0.91476   0.79204   0.15082   0.00000  Uiso   1.00
O684   O     0.89275   0.73376   0.10729   0.00000  Uiso   1.00
C685   C     0.73897   0.91567   0.45449   0.00000  Uiso   1.00
H686   H     0.74613   0.93419   0.42428   0.00000  Uiso   1.00
O687   O     0.70566   0.92296   0.47089   0.00000  Uiso   1.00
C688   C     0.94348   0.78955   0.04551   0.00000  Uiso   1.00
H689   H     0.95197   0.80662   0.07621   0.00000  Uiso   1.00
O690   O     0.96815   0.76258   0.02876   0.00000  Uiso   1.00
C691   C     0.71343   0.75930   0.29698   0.00000  Uiso   1.00
H692   H     0.73639   0.76948   0.32132   0.00000  Uiso   1.00
O693   O     0.70925   0.71767   0.28917   0.00000  Uiso   1.00
C694   C     0.95498   0.90462   0.19884   0.00000  Uiso   1.00
H695   H     0.96241   0.94148   0.20092   0.00000  Uiso   1.00
O696   O     0.92913   0.89278   0.17165   0.00000  Uiso   1.00
C697   C     0.96005   0.75049   0.28390   0.00000  Uiso   1.00
H698   H     0.94127   0.72988   0.26173   0.00000  Uiso   1.00
O699   O     0.96522   0.73735   0.32222   0.00000  Uiso   1.00
C700   C     0.70559   0.91651   0.21816   0.00000  Uiso   1.00
H701   H     0.70563   0.92514   0.18311   0.00000  Uiso   1.00
O702   O     0.71898   0.94446   0.24496   0.00000  Uiso   1.00
O703   O     0.10655   0.20625   0.74999   0.00000  Uiso   1.00
O704   O     0.22679   0.12709   0.75000   0.00000  Uiso   1.00
O705   O     0.22679   0.20625   0.75000   0.00000  Uiso   1.00
O706   O     0.10655   0.12709   0.74999   0.00000  Uiso   1.00
C707   C     0.08738   0.16734   0.75148   0.00000  Uiso   1.00
C708   C     0.24596   0.16591   0.74877   0.00000  Uiso   1.00
O709   O     0.16666   0.20627   0.68513   0.00000  Uiso   1.00
O710   O     0.16668   0.12707   0.81487   0.00000  Uiso   1.00
O711   O     0.16668   0.20627   0.81487   0.00000  Uiso   1.00
O712   O     0.16666   0.12707   0.68513   0.00000  Uiso   1.00
C713   C     0.16685   0.16677   0.66445   0.00000  Uiso   1.00
C714   C     0.16557   0.16665   0.83547   0.00000  Uiso   1.00
Cu715  Cu    0.16667   0.21355   0.75000   0.00000  Uiso   1.00
Cu716  Cu    0.16667   0.11978   0.75000   0.00000  Uiso   1.00
C717   C     0.19936   0.14857   0.90728   0.00000  Uiso   1.00
C718   C     0.13625   0.19226   0.59277   0.00000  Uiso   1.00
C719   C     0.16547   0.16722   0.88368   0.00000  Uiso   1.00
C720   C     0.16731   0.16737   0.61616   0.00000  Uiso   1.00
C721   C     0.13178   0.18680   0.90570   0.00000  Uiso   1.00
C722   C     0.19891   0.14387   0.59379   0.00000  Uiso   1.00
C723   C     0.13363   0.19181   0.95243   0.00000  Uiso   1.00
C724   C     0.20170   0.14915   0.54727   0.00000  Uiso   1.00
C725   C     0.16741   0.17099   0.97646   0.00000  Uiso   1.00
C726   C     0.16843   0.17108   0.52335   0.00000  Uiso   1.00
C727   C     0.20024   0.14982   0.95370   0.00000  Uiso   1.00
C728   C     0.13593   0.19270   0.54625   0.00000  Uiso   1.00
C729   C     0.10300   0.21665   0.97614   0.00000  Uiso   1.00
C730   C     0.23648   0.13338   0.52370   0.00000  Uiso   1.00
C731   C     0.10382   0.21504   0.52236   0.00000  Uiso   1.00
C732   C     0.23464   0.13265   0.97753   0.00000  Uiso   1.00
H733   H     0.07950   0.23296   0.53969   0.00000  Uiso   1.00
H734   H     0.26137   0.12038   0.96011   0.00000  Uiso   1.00
C735   C     0.02276   0.12958   0.77177   0.00000  Uiso   1.00
C736   C     0.31077   0.20228   0.72720   0.00000  Uiso   1.00
C737   C     0.31350   0.12657   0.76719   0.00000  Uiso   1.00
C738   C     0.01963   0.20624   0.73363   0.00000  Uiso   1.00
C739   C     0.29069   0.16403   0.74647   0.00000  Uiso   1.00
C740   C     0.04261   0.16866   0.75368   0.00000  Uiso   1.00
C741   C     0.14297   0.02566   0.72022   0.00000  Uiso   1.00
C742   C     0.19037   0.30767   0.77979   0.00000  Uiso   1.00
C743   C     0.19030   0.02400   0.77984   0.00000  Uiso   1.00
C744   C     0.14304   0.30935   0.72018   0.00000  Uiso   1.00
H745   H     0.12394   0.04508   0.69643   0.00000  Uiso   1.00
H746   H     0.20938   0.28825   0.80359   0.00000  Uiso   1.00
H747   H     0.20914   0.04209   0.80377   0.00000  Uiso   1.00
H748   H     0.12413   0.29125   0.69636   0.00000  Uiso   1.00
N749   N     0.16667   0.28402   0.75000   0.00000  Uiso   1.00
N750   N     0.16667   0.04931   0.75000   0.00000  Uiso   1.00
N751   N     0.23260   0.12753   0.88378   0.00000  Uiso   1.00
O752   O     0.25499   0.15317   0.85856   0.00000  Uiso   1.00
O753   O     0.23983   0.08254   0.88697   0.00000  Uiso   1.00
N754   N     0.10353   0.21428   0.61651   0.00000  Uiso   1.00
O755   O     0.09897   0.25976   0.61623   0.00000  Uiso   1.00
O756   O     0.07910   0.18885   0.63954   0.00000  Uiso   1.00
N757   N     0.09407   0.19464   0.88120   0.00000  Uiso   1.00
O758   O     0.09143   0.22554   0.84927   0.00000  Uiso   1.00
O759   O     0.06227   0.17021   0.89059   0.00000  Uiso   1.00
N760   N     0.22538   0.11131   0.61786   0.00000  Uiso   1.00
O761   O     0.24810   0.12538   0.65082   0.00000  Uiso   1.00
O762   O     0.22609   0.06710   0.60729   0.00000  Uiso   1.00
C763   C     0.07230   0.24900   0.95449   0.00000  Uiso   1.00
H764   H     0.07946   0.26752   0.92428   0.00000  Uiso   1.00
O765   O     0.03899   0.25629   0.97089   0.00000  Uiso   1.00
C766   C     0.27681   0.12288   0.54551   0.00000  Uiso   1.00
H767   H     0.28530   0.13996   0.57621   0.00000  Uiso   1.00
O768   O     0.30148   0.09591   0.52876   0.00000  Uiso   1.00
C769   C     0.04677   0.09264   0.79698   0.00000  Uiso   1.00
H770   H     0.06972   0.10282   0.82132   0.00000  Uiso   1.00
O771   O     0.04258   0.05100   0.78917   0.00000  Uiso   1.00
C772   C     0.28832   0.23796   0.69884   0.00000  Uiso   1.00
H773   H     0.29574   0.27482   0.70092   0.00000  Uiso   1.00
O774   O     0.26246   0.22612   0.67165   0.00000  Uiso   1.00
C775   C     0.29339   0.08382   0.78390   0.00000  Uiso   1.00
H776   H     0.27460   0.06321   0.76173   0.00000  Uiso   1.00
O777   O     0.29855   0.07068   0.82222   0.00000  Uiso   1.00
C778   C     0.03893   0.24984   0.71816   0.00000  Uiso   1.00
H779   H     0.03896   0.25847   0.68311   0.00000  Uiso   1.00
O780   O     0.05232   0.27779   0.74496   0.00000  Uiso   1.00
O781   O     0.43988   0.20625   0.74999   0.00000  Uiso   1.00
O782   O     0.56012   0.12709   0.75000   0.00000  Uiso   1.00
O783   O     0.56012   0.20625   0.75000   0.00000  Uiso   1.00
O784   O     0.43988   0.12709   0.74999   0.00000  Uiso   1.00
C785   C     0.42071   0.16734   0.75148   0.00000  Uiso   1.00
C786   C     0.57929   0.16591   0.74877   0.00000  Uiso   1.00
O787   O     0.49999   0.20627   0.68513   0.00000  Uiso   1.00
O788   O     0.50001   0.12707   0.81487   0.00000  Uiso   1.00
O789   O     0.50001   0.20627   0.81487   0.00000  Uiso   1.00
O790   O     0.49999   0.12707   0.68513   0.00000  Uiso   1.00
C791   C     0.50019   0.16677   0.66445   0.00000  Uiso   1.00
C792   C     0.49891   0.16665   0.83547   0.00000  Uiso   1.00
Cu793  Cu    0.50000   0.21355   0.75000   0.00000  Uiso   1.00
Cu794  Cu    0.50000   0.11978   0.75000   0.00000  Uiso   1.00
C795   C     0.53269   0.14857   0.90728   0.00000  Uiso   1.00
C796   C     0.46959   0.19226   0.59277   0.00000  Uiso   1.00
C797   C     0.49881   0.16722   0.88368   0.00000  Uiso   1.00
C798   C     0.50064   0.16737   0.61616   0.00000  Uiso   1.00
C799   C     0.46511   0.18680   0.90570   0.00000  Uiso   1.00
C800   C     0.53225   0.14387   0.59379   0.00000  Uiso   1.00
C801   C     0.46697   0.19181   0.95243   0.00000  Uiso   1.00
C802   C     0.53504   0.14915   0.54727   0.00000  Uiso   1.00
C803   C     0.50075   0.17099   0.97646   0.00000  Uiso   1.00
C804   C     0.50177   0.17108   0.52335   0.00000  Uiso   1.00
C805   C     0.53357   0.14982   0.95370   0.00000  Uiso   1.00
C806   C     0.46927   0.19270   0.54625   0.00000  Uiso   1.00
C807   C     0.43633   0.21665   0.97614   0.00000  Uiso   1.00
C808   C     0.56981   0.13338   0.52370   0.00000  Uiso   1.00
C809   C     0.43716   0.21504   0.52236   0.00000  Uiso   1.00
C810   C     0.56798   0.13265   0.97753   0.00000  Uiso   1.00
H811   H     0.41283   0.23296   0.53969   0.00000  Uiso   1.00
H812   H     0.59471   0.12038   0.96011   0.00000  Uiso   1.00
C813   C     0.35610   0.12958   0.77177   0.00000  Uiso   1.00
C814   C     0.64410   0.20228   0.72720   0.00000  Uiso   1.00
C815   C     0.64683   0.12657   0.76719   0.00000  Uiso   1.00
C816   C     0.35297   0.20624   0.73363   0.00000  Uiso   1.00
C817   C     0.62402   0.16403   0.74647   0.00000  Uiso   1.00
C818   C     0.37595   0.16866   0.75368   0.00000  Uiso   1.00
C819   C     0.47631   0.02566   0.72022   0.00000  Uiso   1.00
C820   C     0.52370   0.30767   0.77979   0.00000  Uiso   1.00
C821   C     0.52364   0.02400   0.77984   0.00000  Uiso   1.00
C822   C     0.47637   0.30935   0.72018   0.00000  Uiso   1.00
H823   H     0.45727   0.04508   0.69643   0.00000  Uiso   1.00
H824   H     0.54271   0.28825   0.80359   0.00000  Uiso   1.00
H825   H     0.54247   0.04209   0.80377   0.00000  Uiso   1.00
H826   H     0.45746   0.29125   0.69636   0.00000  Uiso   1.00
N827   N     0.50000   0.28402   0.75000   0.00000  Uiso   1.00
N828   N     0.50000   0.04931   0.75000   0.00000  Uiso   1.00
N829   N     0.56593   0.12753   0.88378   0.00000  Uiso   1.00
O830   O     0.58833   0.15317   0.85856   0.00000  Uiso   1.00
O831   O     0.57316   0.08254   0.88697   0.00000  Uiso   1.00
N832   N     0.43686   0.21428   0.61651   0.00000  Uiso   1.00
O833   O     0.43231   0.25976   0.61623   0.00000  Uiso   1.00
O834   O     0.41244   0.18885   0.63954   0.00000  Uiso   1.00
N835   N     0.42741   0.19464   0.88120   0.00000  Uiso   1.00
O836   O     0.42476   0.22554   0.84927   0.00000  Uiso   1.00
O837   O     0.39561   0.17021   0.89059   0.00000  Uiso   1.00
N838   N     0.55871   0.11131   0.61786   0.00000  Uiso   1.00
O839   O     0.58143   0.12538   0.65082   0.00000  Uiso   1.00
O840   O     0.55942   0.06710   0.60729   0.00000  Uiso   1.00
C841   C     0.40564   0.24900   0.95449   0.00000  Uiso   1.00
H842   H     0.41280   0.26752   0.92428   0.00000  Uiso   1.00
O843   O     0.37232   0.25629   0.97089   0.00000  Uiso   1.00
C844   C     0.61014   0.12288   0.54551   0.00000  Uiso   1.00
H845   H     0.61864   0.13996   0.57621   0.00000  Uiso   1.00
O846   O     0.63481   0.09591   0.52876   0.00000  Uiso   1.00
C847   C     0.38010   0.09264   0.79698   0.00000  Uiso   1.00
H848   H     0.40306   0.10282   0.82132   0.00000  Uiso   1.00
O849   O     0.37591   0.05100   0.78917   0.00000  Uiso   1.00
C850   C     0.62165   0.23796   0.69884   0.00000  Uiso   1.00
H851   H     0.62907   0.27482   0.70092   0.00000  Uiso   1.00
O852   O     0.59580   0.22612   0.67165   0.00000  Uiso   1.00
C853   C     0.62672   0.08382   0.78390   0.00000  Uiso   1.00
H854   H     0.60794   0.06321   0.76173   0.00000  Uiso   1.00
O855   O     0.63189   0.07068   0.82222   0.00000  Uiso   1.00
C856   C     0.37226   0.24984   0.71816   0.00000  Uiso   1.00
H857   H     0.37229   0.25847   0.68311   0.00000  Uiso   1.00
O858   O     0.38565   0.27779   0.74496   0.00000  Uiso   1.00
O859   O     0.77321   0.20625   0.74999   0.00000  Uiso   1.00
O860   O     0.89345   0.12709   0.75000   0.00000  Uiso   1.00
O861   O     0.89345   0.20625   0.75000   0.00000  Uiso   1.00
O862   O     0.77321   0.12709   0.74999   0.00000  Uiso   1.00
C863   C     0.75405   0.16734   0.75148   0.00000  Uiso   1.00
C864   C     0.91262   0.16591   0.74877   0.00000  Uiso   1.00
O865   O     0.83332   0.20627   0.68513   0.00000  Uiso   1.00
O866   O     0.83334   0.12707   0.81487   0.00000  Uiso   1.00
O867   O     0.83334   0.20627   0.81487   0.00000  Uiso   1.00
O868   O     0.83332   0.12707   0.68513   0.00000  Uiso   1.00
C869   C     0.83352   0.16677   0.66445   0.00000  Uiso   1.00
C870   C     0.83224   0.16665   0.83547   0.00000  Uiso   1.00
Cu871  Cu    0.83333   0.21355   0.75000   0.00000  Uiso   1.00
Cu872  Cu    0.83333   0.11978   0.75000   0.00000  Uiso   1.00
C873   C     0.86602   0.14857   0.90728   0.00000  Uiso   1.00
C874   C     0.80292   0.19226   0.59277   0.00000  Uiso   1.00
C875   C     0.83214   0.16722   0.88368   0.00000  Uiso   1.00
C876   C     0.83398   0.16737   0.61616   0.00000  Uiso   1.00
C877   C     0.79845   0.18680   0.90570   0.00000  Uiso   1.00
C878   C     0.86558   0.14387   0.59379   0.00000  Uiso   1.00
C879   C     0.80030   0.19181   0.95243   0.00000  Uiso   1.00
C880   C     0.86837   0.14915   0.54727   0.00000  Uiso   1.00
C881   C     0.83408   0.17099   0.97646   0.00000  Uiso   1.00
C882   C     0.83510   0.17108   0.52335   0.00000  Uiso   1.00
C883   C     0.86691   0.14982   0.95370   0.00000  Uiso   1.00
C884   C     0.80260   0.19270   0.54625   0.00000  Uiso   1.00
C885   C     0.76966   0.21665   0.97614   0.00000  Uiso   1.00
C886   C     0.90314   0.13338   0.52370   0.00000  Uiso   1.00
C887   C     0.77049   0.21504   0.52236   0.00000  Uiso   1.00
C888   C     0.90131   0.13265   0.97753   0.00000  Uiso   1.00
H889   H     0.74616   0.23296   0.53969   0.00000  Uiso   1.00
H890   H     0.92804   0.12038   0.96011   0.00000  Uiso   1.00
C891   C     0.68943   0.12958   0.77177   0.00000  Uiso   1.00
C892   C     0.97743   0.20228   0.72720   0.00000  Uiso   1.00
C893   C     0.98016   0.12657   0.76719   0.00000  Uiso   1.00
C894   C     0.68630   0.20624   0.73363   0.00000  Uiso   1.00
C895   C     0.95736   0.16403   0.74647   0.00000  Uiso   1.00
C896   C     0.70928   0.16866   0.75368   0.00000  Uiso   1.00
C897   C     0.80964   0.02566   0.72022   0.00000  Uiso   1.00
C898   C     0.85703   0.30767   0.77979   0.00000  Uiso   1.00
C899   C     0.85697   0.02400   0.77984   0.00000  Uiso   1.00
C900   C     0.80971   0.30935   0.72018   0.00000  Uiso   1.00
H901   H     0.79060   0.04508   0.69643   0.00000  Uiso   1.00
H902   H     0.87604   0.28825   0.80359   0.00000  Uiso   1.00
H903   H     0.87580   0.04209   0.80377   0.00000  Uiso   1.00
H904   H     0.79080   0.29125   0.69636   0.00000  Uiso   1.00
N905   N     0.83333   0.28402   0.75000   0.00000  Uiso   1.00
N906   N     0.83333   0.04931   0.75000   0.00000  Uiso   1.00
N907   N     0.89926   0.12753   0.88378   0.00000  Uiso   1.00
O908   O     0.92166   0.15317   0.85856   0.00000  Uiso   1.00
O909   O     0.90650   0.08254   0.88697   0.00000  Uiso   1.00
N910   N     0.77020   0.21428   0.61651   0.00000  Uiso   1.00
O911   O     0.76564   0.25976   0.61623   0.00000  Uiso   1.00
O912   O     0.74577   0.18885   0.63954   0.00000  Uiso   1.00
N913   N     0.76074   0.19464   0.88120   0.00000  Uiso   1.00
O914   O     0.75810   0.22554   0.84927   0.00000  Uiso   1.00
O915   O     0.72894   0.17021   0.89059   0.00000  Uiso   1.00
N916   N     0.89205   0.11131   0.61786   0.00000  Uiso   1.00
O917   O     0.91476   0.12538   0.65082   0.00000  Uiso   1.00
O918   O     0.89275   0.06710   0.60729   0.00000  Uiso   1.00
C919   C     0.73897   0.24900   0.95449   0.00000  Uiso   1.00
H920   H     0.74613   0.26752   0.92428   0.00000  Uiso   1.00
O921   O     0.70566   0.25629   0.97089   0.00000  Uiso   1.00
C922   C     0.94348   0.12288   0.54551   0.00000  Uiso   1.00
H923   H     0.95197   0.13996   0.57621   0.00000  Uiso   1.00
O924   O     0.96815   0.09591   0.52876   0.00000  Uiso   1.00
C925   C     0.71343   0.09264   0.79698   0.00000  Uiso   1.00
H926   H     0.73639   0.10282   0.82132   0.00000  Uiso   1.00
O927   O     0.70925   0.05100   0.78917   0.00000  Uiso   1.00
C928   C     0.95498   0.23796   0.69884   0.00000  Uiso   1.00
H929   H     0.96241   0.27482   0.70092   0.00000  Uiso   1.00
O930   O     0.92913   0.22612   0.67165   0.00000  Uiso   1.00
C931   C     0.96005   0.08382   0.78390   0.00000  Uiso   1.00
H932   H     0.94127   0.06321   0.76173   0.00000  Uiso   1.00
O933   O     0.96522   0.07068   0.82222   0.00000  Uiso   1.00
C934   C     0.70559   0.24984   0.71816   0.00000  Uiso   1.00
H935   H     0.70563   0.25847   0.68311   0.00000  Uiso   1.00
O936   O     0.71898   0.27779   0.74496   0.00000  Uiso   1.00
O937   O     0.10655   0.53958   0.74999   0.00000  Uiso   1.00
O938   O     0.22679   0.46042   0.75000   0.00000  Uiso   1.00
O939   O     0.22679   0.53958   0.75000   0.00000  Uiso   1.00
O940   O     0.10655   0.46042   0.74999   0.00000  Uiso   1.00
C941   C     0.08738   0.50067   0.75148   0.00000  Uiso   1.00
C942   C     0.24596   0.49924   0.74877   0.00000  Uiso   1.00
O943   O     0.16666   0.53960   0.68513   0.00000  Uiso   1.00
O944   O     0.16668   0.46040   0.81487   0.00000  Uiso   1.00
O945   O     0.16668   0.53960   0.81487   0.00000  Uiso   1.00
O946   O     0.16666   0.46040   0.68513   0.00000  Uiso   1.00
C947   C     0.16685   0.50011   0.66445   0.00000  Uiso   1.00
C948   C     0.16557   0.49999   0.83547   0.00000  Uiso   1.00
Cu949  Cu    0.16667   0.54689   0.75000   0.00000  Uiso   1.00
Cu950  Cu    0.16667   0.45311   0.75000   0.00000  Uiso   1.00
C951   C     0.19936   0.48190   0.90728   0.00000  Uiso   1.00
C952   C     0.13625   0.52560   0.59277   0.00000  Uiso   1.00
C953   C     0.16547   0.50055   0.88368   0.00000  Uiso   1.00
C954   C     0.16731   0.50070   0.61616   0.00000  Uiso   1.00
C955   C     0.13178   0.52013   0.90570   0.00000  Uiso   1.00
C956   C     0.19891   0.47720   0.59379   0.00000  Uiso   1.00
C957   C     0.13363   0.52514   0.95243   0.00000  Uiso   1.00
C958   C     0.20170   0.48248   0.54727   0.00000  Uiso   1.00
C959   C     0.16741   0.50432   0.97646   0.00000  Uiso   1.00
C960   C     0.16843   0.50441   0.52335   0.00000  Uiso   1.00
C961   C     0.20024   0.48315   0.95370   0.00000  Uiso   1.00
C962   C     0.13593   0.52603   0.54625   0.00000  Uiso   1.00
C963   C     0.10300   0.54999   0.97614   0.00000  Uiso   1.00
C964   C     0.23648   0.46671   0.52370   0.00000  Uiso   1.00
C965   C     0.10382   0.54838   0.52236   0.00000  Uiso   1.00
C966   C     0.23464   0.46598   0.97753   0.00000  Uiso   1.00
H967   H     0.07950   0.56629   0.53969   0.00000  Uiso   1.00
H968   H     0.26137   0.45371   0.96011   0.00000  Uiso   1.00
C969   C     0.02276   0.46291   0.77177   0.00000  Uiso   1.00
C970   C     0.31077   0.53562   0.72720   0.00000  Uiso   1.00
C971   C     0.31350   0.45990   0.76719   0.00000  Uiso   1.00
C972   C     0.01963   0.53957   0.73363   0.00000  Uiso   1.00
C973   C     0.29069   0.49736   0.74647   0.00000  Uiso   1.00
C974   C     0.04261   0.50200   0.75368   0.00000  Uiso   1.00
C975   C     0.14297   0.35900   0.72022   0.00000  Uiso   1.00
C976   C     0.19037   0.64101   0.77979   0.00000  Uiso   1.00
C977   C     0.19030   0.35733   0.77984   0.00000  Uiso   1.00
C978   C     0.14304   0.64268   0.72018   0.00000  Uiso   1.00
H979   H     0.12394   0.37841   0.69643   0.00000  Uiso   1.00
H980   H     0.20938   0.62158   0.80359   0.00000  Uiso   1.00
H981   H     0.20914   0.37543   0.80377   0.00000  Uiso   1.00
H982   H     0.12413   0.62459   0.69636   0.00000  Uiso   1.00
N983   N     0.16667   0.61736   0.75000   0.00000  Uiso   1.00
N984   N     0.16667   0.38264   0.75000   0.00000  Uiso   1.00
N985   N     0.23260   0.46087   0.88378   0.00000  Uiso   1.00
O986   O     0.25499   0.48650   0.85856   0.00000  Uiso   1.00
O987   O     0.23983   0.41587   0.88697   0.00000  Uiso   1.00
N988   N     0.10353   0.54761   0.61651   0.00000  Uiso   1.00
O989   O     0.09897   0.59310   0.61623   0.00000  Uiso   1.00
O990   O     0.07910   0.52218   0.63954   0.00000  Uiso   1.00
N991   N     0.09407   0.52797   0.88120   0.00000  Uiso   1.00
O992   O     0.09143   0.55887   0.84927   0.00000  Uiso   1.00
O993   O     0.06227   0.50354   0.89059   0.00000  Uiso   1.00
N994   N     0.22538   0.44464   0.61786   0.00000  Uiso   1.00
O995   O     0.24810   0.45871   0.65082   0.00000  Uiso   1.00
O996   O     0.22609   0.40043   0.60729   0.00000  Uiso   1.00
C997   C     0.07230   0.58233   0.95449   0.00000  Uiso   1.00
H998   H     0.07946   0.60085   0.92428   0.00000  Uiso   1.00
O999   O     0.03899   0.58963   0.97089   0.00000  Uiso   1.00
C1000  C     0.27681   0.45622   0.54551   0.00000  Uiso   1.00
H1001  H     0.28530   0.47329   0.57621   0.00000  Uiso   1.00
O1002  O     0.30148   0.42924   0.52876   0.00000  Uiso   1.00
C1003  C     0.04677   0.42597   0.79698   0.00000  Uiso   1.00
H1004  H     0.06972   0.43615   0.82132   0.00000  Uiso   1.00
O1005  O     0.04258   0.38433   0.78917   0.00000  Uiso   1.00
C1006  C     0.28832   0.57129   0.69884   0.00000  Uiso   1.00
H1007  H     0.29574   0.60815   0.70092   0.00000  Uiso   1.00
O1008  O     0.26246   0.55945   0.67165   0.00000  Uiso   1.00
C1009  C     0.29339   0.41715   0.78390   0.00000  Uiso   1.00
H1010  H     0.27460   0.39655   0.76173   0.00000  Uiso   1.00
O1011  O     0.29855   0.40401   0.82222   0.00000  Uiso   1.00
C1012  C     0.03893   0.58317   0.71816   0.00000  Uiso   1.00
H1013  H     0.03896   0.59180   0.68311   0.00000  Uiso   1.00
O1014  O     0.05232   0.61112   0.74496   0.00000  Uiso   1.00
O1015  O     0.43988   0.53958   0.74999   0.00000  Uiso   1.00
O1016  O     0.56012   0.46042   0.75000   0.00000  Uiso   1.00
O1017  O     0.56012   0.53958   0.75000   0.00000  Uiso   1.00
O1018  O     0.43988   0.46042   0.74999   0.00000  Uiso   1.00
C1019  C     0.42071   0.50067   0.75148   0.00000  Uiso   1.00
C1020  C     0.57929   0.49924   0.74877   0.00000  Uiso   1.00
O1021  O     0.49999   0.53960   0.68513   0.00000  Uiso   1.00
O1022  O     0.50001   0.46040   0.81487   0.00000  Uiso   1.00
O1023  O     0.50001   0.53960   0.81487   0.00000  Uiso   1.00
O1024  O     0.49999   0.46040   0.68513   0.00000  Uiso   1.00
C1025  C     0.50019   0.50011   0.66445   0.00000  Uiso   1.00
C1026  C     0.49891   0.49999   0.83547   0.00000  Uiso   1.00
Cu1027 Cu    0.50000   0.54689   0.75000   0.00000  Uiso   1.00
Cu1028 Cu    0.50000   0.45311   0.75000   0.00000  Uiso   1.00
C1029  C     0.53269   0.48190   0.90728   0.00000  Uiso   1.00
C1030  C     0.46959   0.52560   0.59277   0.00000  Uiso   1.00
C1031  C     0.49881   0.50055   0.88368   0.00000  Uiso   1.00
C1032  C     0.50064   0.50070   0.61616   0.00000  Uiso   1.00
C1033  C     0.46511   0.52013   0.90570   0.00000  Uiso   1.00
C1034  C     0.53225   0.47720   0.59379   0.00000  Uiso   1.00
C1035  C     0.46697   0.52514   0.95243   0.00000  Uiso   1.00
C1036  C     0.53504   0.48248   0.54727   0.00000  Uiso   1.00
C1037  C     0.50075   0.50432   0.97646   0.00000  Uiso   1.00
C1038  C     0.50177   0.50441   0.52335   0.00000  Uiso   1.00
C1039  C     0.53357   0.48315   0.95370   0.00000  Uiso   1.00
C1040  C     0.46927   0.52603   0.54625   0.00000  Uiso   1.00
C1041  C     0.43633   0.54999   0.97614   0.00000  Uiso   1.00
C1042  C     0.56981   0.46671   0.52370   0.00000  Uiso   1.00
C1043  C     0.43716   0.54838   0.52236   0.00000  Uiso   1.00
C1044  C     0.56798   0.46598   0.97753   0.00000  Uiso   1.00
H1045  H     0.41283   0.56629   0.53969   0.00000  Uiso   1.00
H1046  H     0.59471   0.45371   0.96011   0.00000  Uiso   1.00
C1047  C     0.35610   0.46291   0.77177   0.00000  Uiso   1.00
C1048  C     0.64410   0.53562   0.72720   0.00000  Uiso   1.00
C1049  C     0.64683   0.45990   0.76719   0.00000  Uiso   1.00
C1050  C     0.35297   0.53957   0.73363   0.00000  Uiso   1.00
C1051  C     0.62402   0.49736   0.74647   0.00000  Uiso   1.00
C1052  C     0.37595   0.50200   0.75368   0.00000  Uiso   1.00
C1053  C     0.47631   0.35900   0.72022   0.00000  Uiso   1.00
C1054  C     0.52370   0.64101   0.77979   0.00000  Uiso   1.00
C1055  C     0.52364   0.35733   0.77984   0.00000  Uiso   1.00
C1056  C     0.47637   0.64268   0.72018   0.00000  Uiso   1.00
H1057  H     0.45727   0.37841   0.69643   0.00000  Uiso   1.00
H1058  H     0.54271   0.62158   0.80359   0.00000  Uiso   1.00
H1059  H     0.54247   0.37543   0.80377   0.00000  Uiso   1.00
H1060  H     0.45746   0.62459   0.69636   0.00000  Uiso   1.00
N1061  N     0.50000   0.61736   0.75000   0.00000  Uiso   1.00
N1062  N     0.50000   0.38264   0.75000   0.00000  Uiso   1.00
N1063  N     0.56593   0.46087   0.88378   0.00000  Uiso   1.00
O1064  O     0.58833   0.48650   0.85856   0.00000  Uiso   1.00
O1065  O     0.57316   0.41587   0.88697   0.00000  Uiso   1.00
N1066  N     0.43686   0.54761   0.61651   0.00000  Uiso   1.00
O1067  O     0.43231   0.59310   0.61623   0.00000  Uiso   1.00
O1068  O     0.41244   0.52218   0.63954   0.00000  Uiso   1.00
N1069  N     0.42741   0.52797   0.88120   0.00000  Uiso   1.00
O1070  O     0.42476   0.55887   0.84927   0.00000  Uiso   1.00
O1071  O     0.39561   0.50354   0.89059   0.00000  Uiso   1.00
N1072  N     0.55871   0.44464   0.61786   0.00000  Uiso   1.00
O1073  O     0.58143   0.45871   0.65082   0.00000  Uiso   1.00
O1074  O     0.55942   0.40043   0.60729   0.00000  Uiso   1.00
C1075  C     0.40564   0.58233   0.95449   0.00000  Uiso   1.00
H1076  H     0.41280   0.60085   0.92428   0.00000  Uiso   1.00
O1077  O     0.37232   0.58963   0.97089   0.00000  Uiso   1.00
C1078  C     0.61014   0.45622   0.54551   0.00000  Uiso   1.00
H1079  H     0.61864   0.47329   0.57621   0.00000  Uiso   1.00
O1080  O     0.63481   0.42924   0.52876   0.00000  Uiso   1.00
C1081  C     0.38010   0.42597   0.79698   0.00000  Uiso   1.00
H1082  H     0.40306   0.43615   0.82132   0.00000  Uiso   1.00
O1083  O     0.37591   0.38433   0.78917   0.00000  Uiso   1.00
C1084  C     0.62165   0.57129   0.69884   0.00000  Uiso   1.00
H1085  H     0.62907   0.60815   0.70092   0.00000  Uiso   1.00
O1086  O     0.59580   0.55945   0.67165   0.00000  Uiso   1.00
C1087  C     0.62672   0.41715   0.78390   0.00000  Uiso   1.00
H1088  H     0.60794   0.39655   0.76173   0.00000  Uiso   1.00
O1089  O     0.63189   0.40401   0.82222   0.00000  Uiso   1.00
C1090  C     0.37226   0.58317   0.71816   0.00000  Uiso   1.00
H1091  H     0.37229   0.59180   0.68311   0.00000  Uiso   1.00
O1092  O     0.38565   0.61112   0.74496   0.00000  Uiso   1.00
O1093  O     0.77321   0.53958   0.74999   0.00000  Uiso   1.00
O1094  O     0.89345   0.46042   0.75000   0.00000  Uiso   1.00
O1095  O     0.89345   0.53958   0.75000   0.00000  Uiso   1.00
O1096  O     0.77321   0.46042   0.74999   0.00000  Uiso   1.00
C1097  C     0.75405   0.50067   0.75148   0.00000  Uiso   1.00
C1098  C     0.91262   0.49924   0.74877   0.00000  Uiso   1.00
O1099  O     0.83332   0.53960   0.68513   0.00000  Uiso   1.00
O1100  O     0.83334   0.46040   0.81487   0.00000  Uiso   1.00
O1101  O     0.83334   0.53960   0.81487   0.00000  Uiso   1.00
O1102  O     0.83332   0.46040   0.68513   0.00000  Uiso   1.00
C1103  C     0.83352   0.50011   0.66445   0.00000  Uiso   1.00
C1104  C     0.83224   0.49999   0.83547   0.00000  Uiso   1.00
Cu1105 Cu    0.83333   0.54689   0.75000   0.00000  Uiso   1.00
Cu1106 Cu    0.83333   0.45311   0.75000   0.00000  Uiso   1.00
C1107  C     0.86602   0.48190   0.90728   0.00000  Uiso   1.00
C1108  C     0.80292   0.52560   0.59277   0.00000  Uiso   1.00
C1109  C     0.83214   0.50055   0.88368   0.00000  Uiso   1.00
C1110  C     0.83398   0.50070   0.61616   0.00000  Uiso   1.00
C1111  C     0.79845   0.52013   0.90570   0.00000  Uiso   1.00
C1112  C     0.86558   0.47720   0.59379   0.00000  Uiso   1.00
C1113  C     0.80030   0.52514   0.95243   0.00000  Uiso   1.00
C1114  C     0.86837   0.48248   0.54727   0.00000  Uiso   1.00
C1115  C     0.83408   0.50432   0.97646   0.00000  Uiso   1.00
C1116  C     0.83510   0.50441   0.52335   0.00000  Uiso   1.00
C1117  C     0.86691   0.48315   0.95370   0.00000  Uiso   1.00
C1118  C     0.80260   0.52603   0.54625   0.00000  Uiso   1.00
C1119  C     0.76966   0.54999   0.97614   0.00000  Uiso   1.00
C1120  C     0.90314   0.46671   0.52370   0.00000  Uiso   1.00
C1121  C     0.77049   0.54838   0.52236   0.00000  Uiso   1.00
C1122  C     0.90131   0.46598   0.97753   0.00000  Uiso   1.00
H1123  H     0.74616   0.56629   0.53969   0.00000  Uiso   1.00
H1124  H     0.92804   0.45371   0.96011   0.00000  Uiso   1.00
C1125  C     0.68943   0.46291   0.77177   0.00000  Uiso   1.00
C1126  C     0.97743   0.53562   0.72720   0.00000  Uiso   1.00
C1127  C     0.98016   0.45990   0.76719   0.00000  Uiso   1.00
C1128  C     0.68630   0.53957   0.73363   0.00000  Uiso   1.00
C1129  C     0.95736   0.49736   0.74647   0.00000  Uiso   1.00
C1130  C     0.70928   0.50200   0.75368   0.00000  Uiso   1.00
C1131  C     0.80964   0.35900   0.72022   0.00000  Uiso   1.00
C1132  C     0.85703   0.64101   0.77979   0.00000  Uiso   1.00
C1133  C     0.85697   0.35733   0.77984   0.00000  Uiso   1.00
C1134  C     0.80971   0.64268   0.72018   0.00000  Uiso   1.00
H1135  H     0.79060   0.37841   0.69643   0.00000  Uiso   1.00
H1136  H     0.87604   0.62158   0.80359   0.00000  Uiso   1.00
H1137  H     0.87580   0.37543   0.80377   0.00000  Uiso   1.00
H1138  H     0.79080   0.62459   0.69636   0.00000  Uiso   1.00
N1139  N     0.83333   0.61736   0.75000   0.00000  Uiso   1.00
N1140  N     0.83333   0.38264   0.75000   0.00000  Uiso   1.00
N1141  N     0.89926   0.46087   0.88378   0.00000  Uiso   1.00
O1142  O     0.92166   0.48650   0.85856   0.00000  Uiso   1.00
O1143  O     0.90650   0.41587   0.88697   0.00000  Uiso   1.00
N1144  N     0.77020   0.54761   0.61651   0.00000  Uiso   1.00
O1145  O     0.76564   0.59310   0.61623   0.00000  Uiso   1.00
O1146  O     0.74577   0.52218   0.63954   0.00000  Uiso   1.00
N1147  N     0.76074   0.52797   0.88120   0.00000  Uiso   1.00
O1148  O     0.75810   0.55887   0.84927   0.00000  Uiso   1.00
O1149  O     0.72894   0.50354   0.89059   0.00000  Uiso   1.00
N1150  N     0.89205   0.44464   0.61786   0.00000  Uiso   1.00
O1151  O     0.91476   0.45871   0.65082   0.00000  Uiso   1.00
O1152  O     0.89275   0.40043   0.60729   0.00000  Uiso   1.00
C1153  C     0.73897   0.58233   0.95449   0.00000  Uiso   1.00
H1154  H     0.74613   0.60085   0.92428   0.00000  Uiso   1.00
O1155  O     0.70566   0.58963   0.97089   0.00000  Uiso   1.00
C1156  C     0.94348   0.45622   0.54551   0.00000  Uiso   1.00
H1157  H     0.95197   0.47329   0.57621   0.00000  Uiso   1.00
O1158  O     0.96815   0.42924   0.52876   0.00000  Uiso   1.00
C1159  C     0.71343   0.42597   0.79698   0.00000  Uiso   1.00
H1160  H     0.73639   0.43615   0.82132   0.00000  Uiso   1.00
O1161  O     0.70925   0.38433   0.78917   0.00000  Uiso   1.00
C1162  C     0.95498   0.57129   0.69884   0.00000  Uiso   1.00
H1163  H     0.96241   0.60815   0.70092   0.00000  Uiso   1.00
O1164  O     0.92913   0.55945   0.67165   0.00000  Uiso   1.00
C1165  C     0.96005   0.41715   0.78390   0.00000  Uiso   1.00
H1166  H     0.94127   0.39655   0.76173   0.00000  Uiso   1.00
O1167  O     0.96522   0.40401   0.82222   0.00000  Uiso   1.00
C1168  C     0.70559   0.58317   0.71816   0.00000  Uiso   1.00
H1169  H     0.70563   0.59180   0.68311   0.00000  Uiso   1.00
O1170  O     0.71898   0.61112   0.74496   0.00000  Uiso   1.00
O1171  O     0.10655   0.87291   0.74999   0.00000  Uiso   1.00
O1172  O     0.22679   0.79375   0.75000   0.00000  Uiso   1.00
O1173  O     0.22679   0.87291   0.75000   0.00000  Uiso   1.00
O1174  O     0.10655   0.79375   0.74999   0.00000  Uiso   1.00
C1175  C     0.08738   0.83400   0.75148   0.00000  Uiso   1.00
C1176  C     0.24596   0.83257   0.74877   0.00000  Uiso   1.00
O1177  O     0.16666   0.87293   0.68513   0.00000  Uiso   1.00
O1178  O     0.16668   0.79373   0.81487   0.00000  Uiso   1.00
O1179  O     0.16668   0.87293   0.81487   0.00000  Uiso   1.00
O1180  O     0.16666   0.79373   0.68513   0.00000  Uiso   1.00
C1181  C     0.16685   0.83344   0.66445   0.00000  Uiso   1.00
C1182  C     0.16557   0.83332   0.83547   0.00000  Uiso   1.00
Cu1183 Cu    0.16667   0.88022   0.75000   0.00000  Uiso   1.00
Cu1184 Cu    0.16667   0.78645   0.75000   0.00000  Uiso   1.00
C1185  C     0.19936   0.81524   0.90728   0.00000  Uiso   1.00
C1186  C     0.13625   0.85893   0.59277   0.00000  Uiso   1.00
C1187  C     0.16547   0.83388   0.88368   0.00000  Uiso   1.00
C1188  C     0.16731   0.83403   0.61616   0.00000  Uiso   1.00
C1189  C     0.13178   0.85347   0.90570   0.00000  Uiso   1.00
C1190  C     0.19891   0.81053   0.59379   0.00000  Uiso   1.00
C1191  C     0.13363   0.85848   0.95243   0.00000  Uiso   1.00
C1192  C     0.20170   0.81581   0.54727   0.00000  Uiso   1.00
C1193  C     0.16741   0.83765   0.97646   0.00000  Uiso   1.00
C1194  C     0.16843   0.83774   0.52335   0.00000  Uiso   1.00
C1195  C     0.20024   0.81649   0.95370   0.00000  Uiso   1.00
C1196  C     0.13593   0.85937   0.54625   0.00000  Uiso   1.00
C1197  C     0.10300   0.88332   0.97614   0.00000  Uiso   1.00
C1198  C     0.23648   0.80005   0.52370   0.00000  Uiso   1.00
C1199  C     0.10382   0.88171   0.52236   0.00000  Uiso   1.00
C1200  C     0.23464   0.79931   0.97753   0.00000  Uiso   1.00
H1201  H     0.07950   0.89962   0.53969   0.00000  Uiso   1.00
H1202  H     0.26137   0.78704   0.96011   0.00000  Uiso   1.00
C1203  C     0.02276   0.79625   0.77177   0.00000  Uiso   1.00
C1204  C     0.31077   0.86895   0.72720   0.00000  Uiso   1.00
C1205  C     0.31350   0.79323   0.76719   0.00000  Uiso   1.00
C1206  C     0.01963   0.87290   0.73363   0.00000  Uiso   1.00
C1207  C     0.29069   0.83069   0.74647   0.00000  Uiso   1.00
C1208  C     0.04261   0.83533   0.75368   0.00000  Uiso   1.00
C1209  C     0.14297   0.69233   0.72022   0.00000  Uiso   1.00
C1210  C     0.19037   0.97434   0.77979   0.00000  Uiso   1.00
C1211  C     0.19030   0.69066   0.77984   0.00000  Uiso   1.00
C1212  C     0.14304   0.97601   0.72018   0.00000  Uiso   1.00
H1213  H     0.12394   0.71175   0.69643   0.00000  Uiso   1.00
H1214  H     0.20938   0.95492   0.80359   0.00000  Uiso   1.00
H1215  H     0.20914   0.70876   0.80377   0.00000  Uiso   1.00
H1216  H     0.12413   0.95792   0.69636   0.00000  Uiso   1.00
N1217  N     0.16667   0.95069   0.75000   0.00000  Uiso   1.00
N1218  N     0.16667   0.71598   0.75000   0.00000  Uiso   1.00
N1219  N     0.23260   0.79420   0.88378   0.00000  Uiso   1.00
O1220  O     0.25499   0.81983   0.85856   0.00000  Uiso   1.00
O1221  O     0.23983   0.74920   0.88697   0.00000  Uiso   1.00
N1222  N     0.10353   0.88095   0.61651   0.00000  Uiso   1.00
O1223  O     0.09897   0.92643   0.61623   0.00000  Uiso   1.00
O1224  O     0.07910   0.85551   0.63954   0.00000  Uiso   1.00
N1225  N     0.09407   0.86131   0.88120   0.00000  Uiso   1.00
O1226  O     0.09143   0.89221   0.84927   0.00000  Uiso   1.00
O1227  O     0.06227   0.83688   0.89059   0.00000  Uiso   1.00
N1228  N     0.22538   0.77797   0.61786   0.00000  Uiso   1.00
O1229  O     0.24810   0.79204   0.65082   0.00000  Uiso   1.00
O1230  O     0.22609   0.73376   0.60729   0.00000  Uiso   1.00
C1231  C     0.07230   0.91567   0.95449   0.00000  Uiso   1.00
H1232  H     0.07946   0.93419   0.92428   0.00000  Uiso   1.00
O1233  O     0.03899   0.92296   0.97089   0.00000  Uiso   1.00
C1234  C     0.27681   0.78955   0.54551   0.00000  Uiso   1.00
H1235  H     0.28530   0.80662   0.57621   0.00000  Uiso   1.00
O1236  O     0.30148   0.76258   0.52876   0.00000  Uiso   1.00
C1237  C     0.04677   0.75930   0.79698   0.00000  Uiso   1.00
H1238  H     0.06972   0.76948   0.82132   0.00000  Uiso   1.00
O1239  O     0.04258   0.71767   0.78917   0.00000  Uiso   1.00
C1240  C     0.28832   0.90462   0.69884   0.00000  Uiso   1.00
H1241  H     0.29574   0.94148   0.70092   0.00000  Uiso   1.00
O1242  O     0.26246   0.89278   0.67165   0.00000  Uiso   1.00
C1243  C     0.29339   0.75049   0.78390   0.00000  Uiso   1.00
H1244  H     0.27460   0.72988   0.76173   0.00000  Uiso   1.00
O1245  O     0.29855   0.73735   0.82222   0.00000  Uiso   1.00
C1246  C     0.03893   0.91651   0.71816   0.00000  Uiso   1.00
H1247  H     0.03896   0.92514   0.68311   0.00000  Uiso   1.00
O1248  O     0.05232   0.94446   0.74496   0.00000  Uiso   1.00
O1249  O     0.43988   0.87291   0.74999   0.00000  Uiso   1.00
O1250  O     0.56012   0.79375   0.75000   0.00000  Uiso   1.00
O1251  O     0.56012   0.87291   0.75000   0.00000  Uiso   1.00
O1252  O     0.43988   0.79375   0.74999   0.00000  Uiso   1.00
C1253  C     0.42071   0.83400   0.75148   0.00000  Uiso   1.00
C1254  C     0.57929   0.83257   0.74877   0.00000  Uiso   1.00
O1255  O     0.49999   0.87293   0.68513   0.00000  Uiso   1.00
O1256  O     0.50001   0.79373   0.81487   0.00000  Uiso   1.00
O1257  O     0.50001   0.87293   0.81487   0.00000  Uiso   1.00
O1258  O     0.49999   0.79373   0.68513   0.00000  Uiso   1.00
C1259  C     0.50019   0.83344   0.66445   0.00000  Uiso   1.00
C1260  C     0.49891   0.83332   0.83547   0.00000  Uiso   1.00
Cu1261 Cu    0.50000   0.88022   0.75000   0.00000  Uiso   1.00
Cu1262 Cu    0.50000   0.78645   0.75000   0.00000  Uiso   1.00
C1263  C     0.53269   0.81524   0.90728   0.00000  Uiso   1.00
C1264  C     0.46959   0.85893   0.59277   0.00000  Uiso   1.00
C1265  C     0.49881   0.83388   0.88368   0.00000  Uiso   1.00
C1266  C     0.50064   0.83403   0.61616   0.00000  Uiso   1.00
C1267  C     0.46511   0.85347   0.90570   0.00000  Uiso   1.00
C1268  C     0.53225   0.81053   0.59379   0.00000  Uiso   1.00
C1269  C     0.46697   0.85848   0.95243   0.00000  Uiso   1.00
C1270  C     0.53504   0.81581   0.54727   0.00000  Uiso   1.00
C1271  C     0.50075   0.83765   0.97646   0.00000  Uiso   1.00
C1272  C     0.50177   0.83774   0.52335   0.00000  Uiso   1.00
C1273  C     0.53357   0.81649   0.95370   0.00000  Uiso   1.00
C1274  C     0.46927   0.85937   0.54625   0.00000  Uiso   1.00
C1275  C     0.43633   0.88332   0.97614   0.00000  Uiso   1.00
C1276  C     0.56981   0.80005   0.52370   0.00000  Uiso   1.00
C1277  C     0.43716   0.88171   0.52236   0.00000  Uiso   1.00
C1278  C     0.56798   0.79931   0.97753   0.00000  Uiso   1.00
H1279  H     0.41283   0.89962   0.53969   0.00000  Uiso   1.00
H1280  H     0.59471   0.78704   0.96011   0.00000  Uiso   1.00
C1281  C     0.35610   0.79625   0.77177   0.00000  Uiso   1.00
C1282  C     0.64410   0.86895   0.72720   0.00000  Uiso   1.00
C1283  C     0.64683   0.79323   0.76719   0.00000  Uiso   1.00
C1284  C     0.35297   0.87290   0.73363   0.00000  Uiso   1.00
C1285  C     0.62402   0.83069   0.74647   0.00000  Uiso   1.00
C1286  C     0.37595   0.83533   0.75368   0.00000  Uiso   1.00
C1287  C     0.47631   0.69233   0.72022   0.00000  Uiso   1.00
C1288  C     0.52370   0.97434   0.77979   0.00000  Uiso   1.00
C1289  C     0.52364   0.69066   0.77984   0.00000  Uiso   1.00
C1290  C     0.47637   0.97601   0.72018   0.00000  Uiso   1.00
H1291  H     0.45727   0.71175   0.69643   0.00000  Uiso   1.00
H1292  H     0.54271   0.95492   0.80359   0.00000  Uiso   1.00
H1293  H     0.54247   0.70876   0.80377   0.00000  Uiso   1.00
H1294  H     0.45746   0.95792   0.69636   0.00000  Uiso   1.00
N1295  N     0.50000   0.95069   0.75000   0.00000  Uiso   1.00
N1296  N     0.50000   0.71598   0.75000   0.00000  Uiso   1.00
N1297  N     0.56593   0.79420   0.88378   0.00000  Uiso   1.00
O1298  O     0.58833   0.81983   0.85856   0.00000  Uiso   1.00
O1299  O     0.57316   0.74920   0.88697   0.00000  Uiso   1.00
N1300  N     0.43686   0.88095   0.61651   0.00000  Uiso   1.00
O1301  O     0.43231   0.92643   0.61623   0.00000  Uiso   1.00
O1302  O     0.41244   0.85551   0.63954   0.00000  Uiso   1.00
N1303  N     0.42741   0.86131   0.88120   0.00000  Uiso   1.00
O1304  O     0.42476   0.89221   0.84927   0.00000  Uiso   1.00
O1305  O     0.39561   0.83688   0.89059   0.00000  Uiso   1.00
N1306  N     0.55871   0.77797   0.61786   0.00000  Uiso   1.00
O1307  O     0.58143   0.79204   0.65082   0.00000  Uiso   1.00
O1308  O     0.55942   0.73376   0.60729   0.00000  Uiso   1.00
C1309  C     0.40564   0.91567   0.95449   0.00000  Uiso   1.00
H1310  H     0.41280   0.93419   0.92428   0.00000  Uiso   1.00
O1311  O     0.37232   0.92296   0.97089   0.00000  Uiso   1.00
C1312  C     0.61014   0.78955   0.54551   0.00000  Uiso   1.00
H1313  H     0.61864   0.80662   0.57621   0.00000  Uiso   1.00
O1314  O     0.63481   0.76258   0.52876   0.00000  Uiso   1.00
C1315  C     0.38010   0.75930   0.79698   0.00000  Uiso   1.00
H1316  H     0.40306   0.76948   0.82132   0.00000  Uiso   1.00
O1317  O     0.37591   0.71767   0.78917   0.00000  Uiso   1.00
C1318  C     0.62165   0.90462   0.69884   0.00000  Uiso   1.00
H1319  H     0.62907   0.94148   0.70092   0.00000  Uiso   1.00
O1320  O     0.59580   0.89278   0.67165   0.00000  Uiso   1.00
C1321  C     0.62672   0.75049   0.78390   0.00000  Uiso   1.00
H1322  H     0.60794   0.72988   0.76173   0.00000  Uiso   1.00
O1323  O     0.63189   0.73735   0.82222   0.00000  Uiso   1.00
C1324  C     0.37226   0.91651   0.71816   0.00000  Uiso   1.00
H1325  H     0.37229   0.92514   0.68311   0.00000  Uiso   1.00
O1326  O     0.38565   0.94446   0.74496   0.00000  Uiso   1.00
O1327  O     0.77321   0.87291   0.74999   0.00000  Uiso   1.00
O1328  O     0.89345   0.79375   0.75000   0.00000  Uiso   1.00
O1329  O     0.89345   0.87291   0.75000   0.00000  Uiso   1.00
O1330  O     0.77321   0.79375   0.74999   0.00000  Uiso   1.00
C1331  C     0.75405   0.83400   0.75148   0.00000  Uiso   1.00
C1332  C     0.91262   0.83257   0.74877   0.00000  Uiso   1.00
O1333  O     0.83332   0.87293   0.68513   0.00000  Uiso   1.00
O1334  O     0.83334   0.79373   0.81487   0.00000  Uiso   1.00
O1335  O     0.83334   0.87293   0.81487   0.00000  Uiso   1.00
O1336  O     0.83332   0.79373   0.68513   0.00000  Uiso   1.00
C1337  C     0.83352   0.83344   0.66445   0.00000  Uiso   1.00
C1338  C     0.83224   0.83332   0.83547   0.00000  Uiso   1.00
Cu1339 Cu    0.83333   0.88022   0.75000   0.00000  Uiso   1.00
Cu1340 Cu    0.83333   0.78645   0.75000   0.00000  Uiso   1.00
C1341  C     0.86602   0.81524   0.90728   0.00000  Uiso   1.00
C1342  C     0.80292   0.85893   0.59277   0.00000  Uiso   1.00
C1343  C     0.83214   0.83388   0.88368   0.00000  Uiso   1.00
C1344  C     0.83398   0.83403   0.61616   0.00000  Uiso   1.00
C1345  C     0.79845   0.85347   0.90570   0.00000  Uiso   1.00
C1346  C     0.86558   0.81053   0.59379   0.00000  Uiso   1.00
C1347  C     0.80030   0.85848   0.95243   0.00000  Uiso   1.00
C1348  C     0.86837   0.81581   0.54727   0.00000  Uiso   1.00
C1349  C     0.83408   0.83765   0.97646   0.00000  Uiso   1.00
C1350  C     0.83510   0.83774   0.52335   0.00000  Uiso   1.00
C1351  C     0.86691   0.81649   0.95370   0.00000  Uiso   1.00
C1352  C     0.80260   0.85937   0.54625   0.00000  Uiso   1.00
C1353  C     0.76966   0.88332   0.97614   0.00000  Uiso   1.00
C1354  C     0.90314   0.80005   0.52370   0.00000  Uiso   1.00
C1355  C     0.77049   0.88171   0.52236   0.00000  Uiso   1.00
C1356  C     0.90131   0.79931   0.97753   0.00000  Uiso   1.00
H1357  H     0.74616   0.89962   0.53969   0.00000  Uiso   1.00
H1358  H     0.92804   0.78704   0.96011   0.00000  Uiso   1.00
C1359  C     0.68943   0.79625   0.77177   0.00000  Uiso   1.00
C1360  C     0.97743   0.86895   0.72720   0.00000  Uiso   1.00
C1361  C     0.98016   0.79323   0.76719   0.00000  Uiso   1.00
C1362  C     0.68630   0.87290   0.73363   0.00000  Uiso   1.00
C1363  C     0.95736   0.83069   0.74647   0.00000  Uiso   1.00
C1364  C     0.70928   0.83533   0.75368   0.00000  Uiso   1.00
C1365  C     0.80964   0.69233   0.72022   0.00000  Uiso   1.00
C1366  C     0.85703   0.97434   0.77979   0.00000  Uiso   1.00
C1367  C     0.85697   0.69066   0.77984   0.00000  Uiso   1.00
C1368  C     0.80971   0.97601   0.72018   0.00000  Uiso   1.00
H1369  H     0.79060   0.71175   0.69643   0.00000  Uiso   1.00
H1370  H     0.87604   0.95492   0.80359   0.00000  Uiso   1.00
H1371  H     0.87580   0.70876   0.80377   0.00000  Uiso   1.00
H1372  H     0.79080   0.95792   0.69636   0.00000  Uiso   1.00
N1373  N     0.83333   0.95069   0.75000   0.00000  Uiso   1.00
N1374  N     0.83333   0.71598   0.75000   0.00000  Uiso   1.00
N1375  N     0.89926   0.79420   0.88378   0.00000  Uiso   1.00
O1376  O     0.92166   0.81983   0.85856   0.00000  Uiso   1.00
O1377  O     0.90650   0.74920   0.88697   0.00000  Uiso   1.00
N1378  N     0.77020   0.88095   0.61651   0.00000  Uiso   1.00
O1379  O     0.76564   0.92643   0.61623   0.00000  Uiso   1.00
O1380  O     0.74577   0.85551   0.63954   0.00000  Uiso   1.00
N1381  N     0.76074   0.86131   0.88120   0.00000  Uiso   1.00
O1382  O     0.75810   0.89221   0.84927   0.00000  Uiso   1.00
O1383  O     0.72894   0.83688   0.89059   0.00000  Uiso   1.00
N1384  N     0.89205   0.77797   0.61786   0.00000  Uiso   1.00
O1385  O     0.91476   0.79204   0.65082   0.00000  Uiso   1.00
O1386  O     0.89275   0.73376   0.60729   0.00000  Uiso   1.00
C1387  C     0.73897   0.91567   0.95449   0.00000  Uiso   1.00
H1388  H     0.74613   0.93419   0.92428   0.00000  Uiso   1.00
O1389  O     0.70566   0.92296   0.97089   0.00000  Uiso   1.00
C1390  C     0.94348   0.78955   0.54551   0.00000  Uiso   1.00
H1391  H     0.95197   0.80662   0.57621   0.00000  Uiso   1.00
O1392  O     0.96815   0.76258   0.52876   0.00000  Uiso   1.00
C1393  C     0.71343   0.75930   0.79698   0.00000  Uiso   1.00
H1394  H     0.73639   0.76948   0.82132   0.00000  Uiso   1.00
O1395  O     0.70925   0.71767   0.78917   0.00000  Uiso   1.00
C1396  C     0.95498   0.90462   0.69884   0.00000  Uiso   1.00
H1397  H     0.96241   0.94148   0.70092   0.00000  Uiso   1.00
O1398  O     0.92913   0.89278   0.67165   0.00000  Uiso   1.00
C1399  C     0.96005   0.75049   0.78390   0.00000  Uiso   1.00
H1400  H     0.94127   0.72988   0.76173   0.00000  Uiso   1.00
O1401  O     0.96522   0.73735   0.82222   0.00000  Uiso   1.00
C1402  C     0.70559   0.91651   0.71816   0.00000  Uiso   1.00
H1403  H     0.70563   0.92514   0.68311   0.00000  Uiso   1.00
O1404  O     0.71898   0.94446   0.74496   0.00000  Uiso   1.00
loop_
_geom_bond_atom_site_label_1
_geom_bond_atom_site_label_2
_geom_bond_distance
_geom_bond_site_symmetry_2
_ccdc_geom_bond_type
O1     C5      1.288   .     A
O1     Cu13    1.985   .     S
O2     C6      1.285   .     A
O2     Cu14    1.985   .     S
O3     C6      1.298   .     A
O3     Cu13    1.975   .     S
O4     C5      1.296   .     A
O4     Cu14    1.975   .     S
C5     C38     1.469   .     S
C6     C37     1.468   .     S
O7     C11     1.290   .     A
O7     Cu13    1.970   .     S
O8     C12     1.291   .     A
O8     Cu14    1.970   .     S
O9     Cu13    1.967   .     S
O9     C12     1.287   .     A
O10    Cu14    1.967   .     S
O10    C11     1.289   .     A
C11    C18     1.458   .     S
C12    C17     1.455   .     S
Cu13   N47     2.008   .     S
Cu13   Cu14    2.672   .     S
Cu14   N48     2.008   .     S
C15    C25     1.401   .     A
C15    C17     1.398   .     A
C15    N49     1.433   .     S
C16    C26     1.404   .     A
C16    N52     1.436   .     S
C16    C18     1.402   .     A
C17    C19     1.406   .     A
C18    C20     1.406   .     A
C19    N55     1.438   .     S
C19    C21     1.419   .     A
C20    C22     1.416   .     A
C20    N58     1.438   .     S
C21    C27     1.422   .     A
C21    C23     1.425   .     A
C22    C28     1.421   .     A
C22    C24     1.424   .     A
C23    C25     1.413   .     A
C23    C726    1.415   .     S
C24    C26     1.413   .     A
C24    C725    1.415   1_554 S
C25    C30     1.401   .     A
C26    C29     1.401   .     A
C27    C61     1.486   .     S
C27    C731    1.395   .     S
C28    C64     1.487   .     S
C28    C732    1.394   1_554 S
C29    H31     1.082   .     S
C29    C729    1.395   1_554 S
C30    H32     1.083   .     S
C30    C730    1.394   .     S
C33    C67     1.493   .     S
C33    C38     1.415   .     A
C33    C191    1.404   1_455 S
C34    C37     1.414   .     A
C34    C70     1.494   .     S
C34    C114    1.399   .     S
C35    C37     1.422   .     A
C35    C73     1.488   .     S
C35    C111    1.404   .     S
C36    C76     1.484   .     S
C36    C38     1.419   .     A
C36    C190    1.399   1_455 S
C39    H43     1.082   .     S
C39    N48     1.366   .     A
C39    C510    1.415   1_545 S
C40    N47     1.367   .     A
C40    H44     1.082   .     S
C40    C275    1.415   .     S
C41    N48     1.366   .     A
C41    H45     1.081   .     S
C41    C508    1.415   1_545 S
C42    H46     1.080   .     S
C42    N47     1.366   .     A
C42    C273    1.415   .     S
N49    O51     1.301   .     A
N49    O50     1.301   .     A
N52    O54     1.301   .     A
N52    O53     1.301   .     A
N55    O56     1.301   .     A
N55    O57     1.301   .     A
N58    O60     1.301   .     A
N58    O59     1.301   .     A
C61    O63     1.222   .     D
C61    H62     1.083   .     S
C64    O66     1.222   .     D
C64    H65     1.083   .     S
C67    H68     1.086   .     S
C67    O69     1.221   .     D
C70    H71     1.085   .     S
C70    O72     1.221   .     D
C73    H74     1.084   .     S
C73    O75     1.220   .     D
C76    H77     1.084   .     S
C76    O78     1.221   .     D
O79    C83     1.288   .     A
O79    Cu91    1.985   .     S
O80    C84     1.285   .     A
O80    Cu92    1.985   .     S
O81    C84     1.298   .     A
O81    Cu91    1.975   .     S
O82    C83     1.296   .     A
O82    Cu92    1.975   .     S
C83    C116    1.469   .     S
C84    C115    1.468   .     S
O85    C89     1.290   .     A
O85    Cu91    1.970   .     S
O86    C90     1.291   .     A
O86    Cu92    1.970   .     S
O87    Cu91    1.967   .     S
O87    C90     1.287   .     A
O88    Cu92    1.967   .     S
O88    C89     1.289   .     A
C89    C96     1.458   .     S
C90    C95     1.455   .     S
Cu91   N125    2.008   .     S
Cu91   Cu92    2.672   .     S
Cu92   N126    2.008   .     S
C93    C103    1.401   .     A
C93    C95     1.398   .     A
C93    N127    1.433   .     S
C94    C104    1.404   .     A
C94    N130    1.436   .     S
C94    C96     1.402   .     A
C95    C97     1.406   .     A
C96    C98     1.406   .     A
C97    N133    1.438   .     S
C97    C99     1.419   .     A
C98    C100    1.416   .     A
C98    N136    1.438   .     S
C99    C105    1.422   .     A
C99    C101    1.425   .     A
C100   C106    1.421   .     A
C100   C102    1.424   .     A
C101   C103    1.413   .     A
C101   C804    1.415   .     S
C102   C104    1.413   .     A
C102   C803    1.415   1_554 S
C103   C108    1.401   .     A
C104   C107    1.401   .     A
C105   C139    1.486   .     S
C105   C809    1.395   .     S
C106   C142    1.487   .     S
C106   C810    1.394   1_554 S
C107   H109    1.082   .     S
C107   C807    1.395   1_554 S
C108   H110    1.083   .     S
C108   C808    1.394   .     S
C111   C145    1.493   .     S
C111   C116    1.415   .     A
C112   C115    1.414   .     A
C112   C148    1.494   .     S
C112   C192    1.399   .     S
C113   C115    1.422   .     A
C113   C151    1.488   .     S
C113   C189    1.404   .     S
C114   C154    1.484   .     S
C114   C116    1.419   .     A
C117   H121    1.082   .     S
C117   N126    1.366   .     A
C117   C588    1.415   1_545 S
C118   N125    1.367   .     A
C118   H122    1.082   .     S
C118   C353    1.415   .     S
C119   N126    1.366   .     A
C119   H123    1.081   .     S
C119   C586    1.415   1_545 S
C120   H124    1.080   .     S
C120   N125    1.366   .     A
C120   C351    1.415   .     S
N127   O129    1.301   .     A
N127   O128    1.301   .     A
N130   O132    1.301   .     A
N130   O131    1.301   .     A
N133   O134    1.301   .     A
N133   O135    1.301   .     A
N136   O138    1.301   .     A
N136   O137    1.301   .     A
C139   O141    1.222   .     D
C139   H140    1.083   .     S
C142   O144    1.222   .     D
C142   H143    1.083   .     S
C145   H146    1.086   .     S
C145   O147    1.221   .     D
C148   H149    1.085   .     S
C148   O150    1.221   .     D
C151   H152    1.084   .     S
C151   O153    1.220   .     D
C154   H155    1.084   .     S
C154   O156    1.221   .     D
O157   C161    1.288   .     A
O157   Cu169   1.985   .     S
O158   C162    1.285   .     A
O158   Cu170   1.985   .     S
O159   C162    1.298   .     A
O159   Cu169   1.975   .     S
O160   C161    1.296   .     A
O160   Cu170   1.975   .     S
C161   C194    1.469   .     S
C162   C193    1.468   .     S
O163   C167    1.290   .     A
O163   Cu169   1.970   .     S
O164   C168    1.291   .     A
O164   Cu170   1.970   .     S
O165   Cu169   1.967   .     S
O165   C168    1.287   .     A
O166   Cu170   1.967   .     S
O166   C167    1.289   .     A
C167   C174    1.458   .     S
C168   C173    1.455   .     S
Cu169  N203    2.008   .     S
Cu169  Cu170   2.672   .     S
Cu170  N204    2.008   .     S
C171   C181    1.401   .     A
C171   C173    1.398   .     A
C171   N205    1.433   .     S
C172   C182    1.404   .     A
C172   N208    1.436   .     S
C172   C174    1.402   .     A
C173   C175    1.406   .     A
C174   C176    1.406   .     A
C175   N211    1.438   .     S
C175   C177    1.419   .     A
C176   C178    1.416   .     A
C176   N214    1.438   .     S
C177   C183    1.422   .     A
C177   C179    1.425   .     A
C178   C184    1.421   .     A
C178   C180    1.424   .     A
C179   C181    1.413   .     A
C179   C882    1.415   .     S
C180   C182    1.413   .     A
C180   C881    1.415   1_554 S
C181   C186    1.401   .     A
C182   C185    1.401   .     A
C183   C217    1.486   .     S
C183   C887    1.395   .     S
C184   C220    1.487   .     S
C184   C888    1.394   1_554 S
C185   H187    1.082   .     S
C185   C885    1.395   1_554 S
C186   H188    1.083   .     S
C186   C886    1.394   .     S
C189   C223    1.493   .     S
C189   C194    1.415   .     A
C190   C193    1.414   .     A
C190   C226    1.494   .     S
C190   C36     1.399   1_655 S
C191   C193    1.422   .     A
C191   C229    1.488   .     S
C191   C33     1.404   1_655 S
C192   C232    1.484   .     S
C192   C194    1.419   .     A
C195   H199    1.082   .     S
C195   N204    1.366   .     A
C195   C666    1.415   1_545 S
C196   N203    1.367   .     A
C196   H200    1.082   .     S
C196   C431    1.415   .     S
C197   N204    1.366   .     A
C197   H201    1.081   .     S
C197   C664    1.415   1_545 S
C198   H202    1.080   .     S
C198   N203    1.366   .     A
C198   C429    1.415   .     S
N205   O207    1.301   .     A
N205   O206    1.301   .     A
N208   O210    1.301   .     A
N208   O209    1.301   .     A
N211   O212    1.301   .     A
N211   O213    1.301   .     A
N214   O216    1.301   .     A
N214   O215    1.301   .     A
C217   O219    1.222   .     D
C217   H218    1.083   .     S
C220   O222    1.222   .     D
C220   H221    1.083   .     S
C223   H224    1.086   .     S
C223   O225    1.221   .     D
C226   H227    1.085   .     S
C226   O228    1.221   .     D
C229   H230    1.084   .     S
C229   O231    1.220   .     D
C232   H233    1.084   .     S
C232   O234    1.221   .     D
O235   C239    1.288   .     A
O235   Cu247   1.985   .     S
O236   C240    1.285   .     A
O236   Cu248   1.985   .     S
O237   C240    1.298   .     A
O237   Cu247   1.975   .     S
O238   C239    1.296   .     A
O238   Cu248   1.975   .     S
C239   C272    1.469   .     S
C240   C271    1.468   .     S
O241   C245    1.290   .     A
O241   Cu247   1.970   .     S
O242   C246    1.291   .     A
O242   Cu248   1.970   .     S
O243   Cu247   1.967   .     S
O243   C246    1.287   .     A
O244   Cu248   1.967   .     S
O244   C245    1.289   .     A
C245   C252    1.458   .     S
C246   C251    1.455   .     S
Cu247  N281    2.008   .     S
Cu247  Cu248   2.672   .     S
Cu248  N282    2.008   .     S
C249   C259    1.401   .     A
C249   C251    1.398   .     A
C249   N283    1.433   .     S
C250   C260    1.404   .     A
C250   N286    1.436   .     S
C250   C252    1.402   .     A
C251   C253    1.406   .     A
C252   C254    1.406   .     A
C253   N289    1.438   .     S
C253   C255    1.419   .     A
C254   C256    1.416   .     A
C254   N292    1.438   .     S
C255   C261    1.422   .     A
C255   C257    1.425   .     A
C256   C262    1.421   .     A
C256   C258    1.424   .     A
C257   C259    1.413   .     A
C257   C960    1.415   .     S
C258   C260    1.413   .     A
C258   C959    1.415   1_554 S
C259   C264    1.401   .     A
C260   C263    1.401   .     A
C261   C295    1.486   .     S
C261   C965    1.395   .     S
C262   C298    1.487   .     S
C262   C966    1.394   1_554 S
C263   H265    1.082   .     S
C263   C963    1.395   1_554 S
C264   H266    1.083   .     S
C264   C964    1.394   .     S
C267   C301    1.493   .     S
C267   C272    1.415   .     A
C267   C425    1.404   1_455 S
C268   C271    1.414   .     A
C268   C304    1.494   .     S
C268   C348    1.399   .     S
C269   C271    1.422   .     A
C269   C307    1.488   .     S
C269   C345    1.404   .     S
C270   C310    1.484   .     S
C270   C272    1.419   .     A
C270   C424    1.399   1_455 S
C273   H277    1.082   .     S
C273   N282    1.366   .     A
C274   N281    1.367   .     A
C274   H278    1.082   .     S
C274   C509    1.415   .     S
C275   N282    1.366   .     A
C275   H279    1.081   .     S
C276   H280    1.080   .     S
C276   N281    1.366   .     A
C276   C507    1.415   .     S
N283   O285    1.301   .     A
N283   O284    1.301   .     A
N286   O288    1.301   .     A
N286   O287    1.301   .     A
N289   O290    1.301   .     A
N289   O291    1.301   .     A
N292   O294    1.301   .     A
N292   O293    1.301   .     A
C295   O297    1.222   .     D
C295   H296    1.083   .     S
C298   O300    1.222   .     D
C298   H299    1.083   .     S
C301   H302    1.086   .     S
C301   O303    1.221   .     D
C304   H305    1.085   .     S
C304   O306    1.221   .     D
C307   H308    1.084   .     S
C307   O309    1.220   .     D
C310   H311    1.084   .     S
C310   O312    1.221   .     D
O313   C317    1.288   .     A
O313   Cu325   1.985   .     S
O314   C318    1.285   .     A
O314   Cu326   1.985   .     S
O315   C318    1.298   .     A
O315   Cu325   1.975   .     S
O316   C317    1.296   .     A
O316   Cu326   1.975   .     S
C317   C350    1.469   .     S
C318   C349    1.468   .     S
O319   C323    1.290   .     A
O319   Cu325   1.970   .     S
O320   C324    1.291   .     A
O320   Cu326   1.970   .     S
O321   Cu325   1.967   .     S
O321   C324    1.287   .     A
O322   Cu326   1.967   .     S
O322   C323    1.289   .     A
C323   C330    1.458   .     S
C324   C329    1.455   .     S
Cu325  N359    2.008   .     S
Cu325  Cu326   2.672   .     S
Cu326  N360    2.008   .     S
C327   C337    1.401   .     A
C327   C329    1.398   .     A
C327   N361    1.433   .     S
C328   C338    1.404   .     A
C328   N364    1.436   .     S
C328   C330    1.402   .     A
C329   C331    1.406   .     A
C330   C332    1.406   .     A
C331   N367    1.438   .     S
C331   C333    1.419   .     A
C332   C334    1.416   .     A
C332   N370    1.438   .     S
C333   C339    1.422   .     A
C333   C335    1.425   .     A
C334   C340    1.421   .     A
C334   C336    1.424   .     A
C335   C337    1.413   .     A
C335   C1038   1.415   .     S
C336   C338    1.413   .     A
C336   C1037   1.415   1_554 S
C337   C342    1.401   .     A
C338   C341    1.401   .     A
C339   C373    1.486   .     S
C339   C1043   1.395   .     S
C340   C376    1.487   .     S
C340   C1044   1.394   1_554 S
C341   H343    1.082   .     S
C341   C1041   1.395   1_554 S
C342   H344    1.083   .     S
C342   C1042   1.394   .     S
C345   C379    1.493   .     S
C345   C350    1.415   .     A
C346   C349    1.414   .     A
C346   C382    1.494   .     S
C346   C426    1.399   .     S
C347   C349    1.422   .     A
C347   C385    1.488   .     S
C347   C423    1.404   .     S
C348   C388    1.484   .     S
C348   C350    1.419   .     A
C351   H355    1.082   .     S
C351   N360    1.366   .     A
C352   N359    1.367   .     A
C352   H356    1.082   .     S
C352   C587    1.415   .     S
C353   N360    1.366   .     A
C353   H357    1.081   .     S
C354   H358    1.080   .     S
C354   N359    1.366   .     A
C354   C585    1.415   .     S
N361   O363    1.301   .     A
N361   O362    1.301   .     A
N364   O366    1.301   .     A
N364   O365    1.301   .     A
N367   O368    1.301   .     A
N367   O369    1.301   .     A
N370   O372    1.301   .     A
N370   O371    1.301   .     A
C373   O375    1.222   .     D
C373   H374    1.083   .     S
C376   O378    1.222   .     D
C376   H377    1.083   .     S
C379   H380    1.086   .     S
C379   O381    1.221   .     D
C382   H383    1.085   .     S
C382   O384    1.221   .     D
C385   H386    1.084   .     S
C385   O387    1.220   .     D
C388   H389    1.084   .     S
C388   O390    1.221   .     D
O391   C395    1.288   .     A
O391   Cu403   1.985   .     S
O392   C396    1.285   .     A
O392   Cu404   1.985   .     S
O393   C396    1.298   .     A
O393   Cu403   1.975   .     S
O394   C395    1.296   .     A
O394   Cu404   1.975   .     S
C395   C428    1.469   .     S
C396   C427    1.468   .     S
O397   C401    1.290   .     A
O397   Cu403   1.970   .     S
O398   C402    1.291   .     A
O398   Cu404   1.970   .     S
O399   Cu403   1.967   .     S
O399   C402    1.287   .     A
O400   Cu404   1.967   .     S
O400   C401    1.289   .     A
C401   C408    1.458   .     S
C402   C407    1.455   .     S
Cu403  N437    2.008   .     S
Cu403  Cu404   2.672   .     S
Cu404  N438    2.008   .     S
C405   C415    1.401   .     A
C405   C407    1.398   .     A
C405   N439    1.433   .     S
C406   C416    1.404   .     A
C406   N442    1.436   .     S
C406   C408    1.402   .     A
C407   C409    1.406   .     A
C408   C410    1.406   .     A
C409   N445    1.438   .     S
C409   C411    1.419   .     A
C410   C412    1.416   .     A
C410   N448    1.438   .     S
C411   C417    1.422   .     A
C411   C413    1.425   .     A
C412   C418    1.421   .     A
C412   C414    1.424   .     A
C413   C415    1.413   .     A
C413   C1116   1.415   .     S
C414   C416    1.413   .     A
C414   C1115   1.415   1_554 S
C415   C420    1.401   .     A
C416   C419    1.401   .     A
C417   C451    1.486   .     S
C417   C1121   1.395   .     S
C418   C454    1.487   .     S
C418   C1122   1.394   1_554 S
C419   H421    1.082   .     S
C419   C1119   1.395   1_554 S
C420   H422    1.083   .     S
C420   C1120   1.394   .     S
C423   C457    1.493   .     S
C423   C428    1.415   .     A
C424   C427    1.414   .     A
C424   C460    1.494   .     S
C424   C270    1.399   1_655 S
C425   C427    1.422   .     A
C425   C463    1.488   .     S
C425   C267    1.404   1_655 S
C426   C466    1.484   .     S
C426   C428    1.419   .     A
C429   H433    1.082   .     S
C429   N438    1.366   .     A
C430   N437    1.367   .     A
C430   H434    1.082   .     S
C430   C665    1.415   .     S
C431   N438    1.366   .     A
C431   H435    1.081   .     S
C432   H436    1.080   .     S
C432   N437    1.366   .     A
C432   C663    1.415   .     S
N439   O441    1.301   .     A
N439   O440    1.301   .     A
N442   O444    1.301   .     A
N442   O443    1.301   .     A
N445   O446    1.301   .     A
N445   O447    1.301   .     A
N448   O450    1.301   .     A
N448   O449    1.301   .     A
C451   O453    1.222   .     D
C451   H452    1.083   .     S
C454   O456    1.222   .     D
C454   H455    1.083   .     S
C457   H458    1.086   .     S
C457   O459    1.221   .     D
C460   H461    1.085   .     S
C460   O462    1.221   .     D
C463   H464    1.084   .     S
C463   O465    1.220   .     D
C466   H467    1.084   .     S
C466   O468    1.221   .     D
O469   C473    1.288   .     A
O469   Cu481   1.985   .     S
O470   C474    1.285   .     A
O470   Cu482   1.985   .     S
O471   C474    1.298   .     A
O471   Cu481   1.975   .     S
O472   C473    1.296   .     A
O472   Cu482   1.975   .     S
C473   C506    1.469   .     S
C474   C505    1.468   .     S
O475   C479    1.290   .     A
O475   Cu481   1.970   .     S
O476   C480    1.291   .     A
O476   Cu482   1.970   .     S
O477   Cu481   1.967   .     S
O477   C480    1.287   .     A
O478   Cu482   1.967   .     S
O478   C479    1.289   .     A
C479   C486    1.458   .     S
C480   C485    1.455   .     S
Cu481  N515    2.008   .     S
Cu481  Cu482   2.672   .     S
Cu482  N516    2.008   .     S
C483   C493    1.401   .     A
C483   C485    1.398   .     A
C483   N517    1.433   .     S
C484   C494    1.404   .     A
C484   N520    1.436   .     S
C484   C486    1.402   .     A
C485   C487    1.406   .     A
C486   C488    1.406   .     A
C487   N523    1.438   .     S
C487   C489    1.419   .     A
C488   C490    1.416   .     A
C488   N526    1.438   .     S
C489   C495    1.422   .     A
C489   C491    1.425   .     A
C490   C496    1.421   .     A
C490   C492    1.424   .     A
C491   C493    1.413   .     A
C491   C1194   1.415   .     S
C492   C494    1.413   .     A
C492   C1193   1.415   1_554 S
C493   C498    1.401   .     A
C494   C497    1.401   .     A
C495   C529    1.486   .     S
C495   C1199   1.395   .     S
C496   C532    1.487   .     S
C496   C1200   1.394   1_554 S
C497   H499    1.082   .     S
C497   C1197   1.395   1_554 S
C498   H500    1.083   .     S
C498   C1198   1.394   .     S
C501   C535    1.493   .     S
C501   C506    1.415   .     A
C501   C659    1.404   1_455 S
C502   C505    1.414   .     A
C502   C538    1.494   .     S
C502   C582    1.399   .     S
C503   C505    1.422   .     A
C503   C541    1.488   .     S
C503   C579    1.404   .     S
C504   C544    1.484   .     S
C504   C506    1.419   .     A
C504   C658    1.399   1_455 S
C507   H511    1.082   .     S
C507   N516    1.366   .     A
C508   N515    1.367   .     A
C508   H512    1.082   .     S
C508   C41     1.415   1_565 S
C509   N516    1.366   .     A
C509   H513    1.081   .     S
C510   H514    1.080   .     S
C510   N515    1.366   .     A
C510   C39     1.415   1_565 S
N517   O519    1.301   .     A
N517   O518    1.301   .     A
N520   O522    1.301   .     A
N520   O521    1.301   .     A
N523   O524    1.301   .     A
N523   O525    1.301   .     A
N526   O528    1.301   .     A
N526   O527    1.301   .     A
C529   O531    1.222   .     D
C529   H530    1.083   .     S
C532   O534    1.222   .     D
C532   H533    1.083   .     S
C535   H536    1.086   .     S
C535   O537    1.221   .     D
C538   H539    1.085   .     S
C538   O540    1.221   .     D
C541   H542    1.084   .     S
C541   O543    1.220   .     D
C544   H545    1.084   .     S
C544   O546    1.221   .     D
O547   C551    1.288   .     A
O547   Cu559   1.985   .     S
O548   C552    1.285   .     A
O548   Cu560   1.985   .     S
O549   C552    1.298   .     A
O549   Cu559   1.975   .     S
O550   C551    1.296   .     A
O550   Cu560   1.975   .     S
C551   C584    1.469   .     S
C552   C583    1.468   .     S
O553   C557    1.290   .     A
O553   Cu559   1.970   .     S
O554   C558    1.291   .     A
O554   Cu560   1.970   .     S
O555   Cu559   1.967   .     S
O555   C558    1.287   .     A
O556   Cu560   1.967   .     S
O556   C557    1.289   .     A
C557   C564    1.458   .     S
C558   C563    1.455   .     S
Cu559  N593    2.008   .     S
Cu559  Cu560   2.672   .     S
Cu560  N594    2.008   .     S
C561   C571    1.401   .     A
C561   C563    1.398   .     A
C561   N595    1.433   .     S
C562   C572    1.404   .     A
C562   N598    1.436   .     S
C562   C564    1.402   .     A
C563   C565    1.406   .     A
C564   C566    1.406   .     A
C565   N601    1.438   .     S
C565   C567    1.419   .     A
C566   C568    1.416   .     A
C566   N604    1.438   .     S
C567   C573    1.422   .     A
C567   C569    1.425   .     A
C568   C574    1.421   .     A
C568   C570    1.424   .     A
C569   C571    1.413   .     A
C569   C1272   1.415   .     S
C570   C572    1.413   .     A
C570   C1271   1.415   1_554 S
C571   C576    1.401   .     A
C572   C575    1.401   .     A
C573   C607    1.486   .     S
C573   C1277   1.395   .     S
C574   C610    1.487   .     S
C574   C1278   1.394   1_554 S
C575   H577    1.082   .     S
C575   C1275   1.395   1_554 S
C576   H578    1.083   .     S
C576   C1276   1.394   .     S
C579   C613    1.493   .     S
C579   C584    1.415   .     A
C580   C583    1.414   .     A
C580   C616    1.494   .     S
C580   C660    1.399   .     S
C581   C583    1.422   .     A
C581   C619    1.488   .     S
C581   C657    1.404   .     S
C582   C622    1.484   .     S
C582   C584    1.419   .     A
C585   H589    1.082   .     S
C585   N594    1.366   .     A
C586   N593    1.367   .     A
C586   H590    1.082   .     S
C586   C119    1.415   1_565 S
C587   N594    1.366   .     A
C587   H591    1.081   .     S
C588   H592    1.080   .     S
C588   N593    1.366   .     A
C588   C117    1.415   1_565 S
N595   O597    1.301   .     A
N595   O596    1.301   .     A
N598   O600    1.301   .     A
N598   O599    1.301   .     A
N601   O602    1.301   .     A
N601   O603    1.301   .     A
N604   O606    1.301   .     A
N604   O605    1.301   .     A
C607   O609    1.222   .     D
C607   H608    1.083   .     S
C610   O612    1.222   .     D
C610   H611    1.083   .     S
C613   H614    1.086   .     S
C613   O615    1.221   .     D
C616   H617    1.085   .     S
C616   O618    1.221   .     D
C619   H620    1.084   .     S
C619   O621    1.220   .     D
C622   H623    1.084   .     S
C622   O624    1.221   .     D
O625   C629    1.288   .     A
O625   Cu637   1.985   .     S
O626   C630    1.285   .     A
O626   Cu638   1.985   .     S
O627   C630    1.298   .     A
O627   Cu637   1.975   .     S
O628   C629    1.296   .     A
O628   Cu638   1.975   .     S
C629   C662    1.469   .     S
C630   C661    1.468   .     S
O631   C635    1.290   .     A
O631   Cu637   1.970   .     S
O632   C636    1.291   .     A
O632   Cu638   1.970   .     S
O633   Cu637   1.967   .     S
O633   C636    1.287   .     A
O634   Cu638   1.967   .     S
O634   C635    1.289   .     A
C635   C642    1.458   .     S
C636   C641    1.455   .     S
Cu637  N671    2.008   .     S
Cu637  Cu638   2.672   .     S
Cu638  N672    2.008   .     S
C639   C649    1.401   .     A
C639   C641    1.398   .     A
C639   N673    1.433   .     S
C640   C650    1.404   .     A
C640   N676    1.436   .     S
C640   C642    1.402   .     A
C641   C643    1.406   .     A
C642   C644    1.406   .     A
C643   N679    1.438   .     S
C643   C645    1.419   .     A
C644   C646    1.416   .     A
C644   N682    1.438   .     S
C645   C651    1.422   .     A
C645   C647    1.425   .     A
C646   C652    1.421   .     A
C646   C648    1.424   .     A
C647   C649    1.413   .     A
C647   C1350   1.415   .     S
C648   C650    1.413   .     A
C648   C1349   1.415   1_554 S
C649   C654    1.401   .     A
C650   C653    1.401   .     A
C651   C685    1.486   .     S
C651   C1355   1.395   .     S
C652   C688    1.487   .     S
C652   C1356   1.394   1_554 S
C653   H655    1.082   .     S
C653   C1353   1.395   1_554 S
C654   H656    1.083   .     S
C654   C1354   1.394   .     S
C657   C691    1.493   .     S
C657   C662    1.415   .     A
C658   C661    1.414   .     A
C658   C694    1.494   .     S
C658   C504    1.399   1_655 S
C659   C661    1.422   .     A
C659   C697    1.488   .     S
C659   C501    1.404   1_655 S
C660   C700    1.484   .     S
C660   C662    1.419   .     A
C663   H667    1.082   .     S
C663   N672    1.366   .     A
C664   N671    1.367   .     A
C664   H668    1.082   .     S
C664   C197    1.415   1_565 S
C665   N672    1.366   .     A
C665   H669    1.081   .     S
C666   H670    1.080   .     S
C666   N671    1.366   .     A
C666   C195    1.415   1_565 S
N673   O675    1.301   .     A
N673   O674    1.301   .     A
N676   O678    1.301   .     A
N676   O677    1.301   .     A
N679   O680    1.301   .     A
N679   O681    1.301   .     A
N682   O684    1.301   .     A
N682   O683    1.301   .     A
C685   O687    1.222   .     D
C685   H686    1.083   .     S
C688   O690    1.222   .     D
C688   H689    1.083   .     S
C691   H692    1.086   .     S
C691   O693    1.221   .     D
C694   H695    1.085   .     S
C694   O696    1.221   .     D
C697   H698    1.084   .     S
C697   O699    1.220   .     D
C700   H701    1.084   .     S
C700   O702    1.221   .     D
O703   C707    1.288   .     A
O703   Cu715   1.985   .     S
O704   C708    1.285   .     A
O704   Cu716   1.985   .     S
O705   C708    1.298   .     A
O705   Cu715   1.975   .     S
O706   C707    1.296   .     A
O706   Cu716   1.975   .     S
C707   C740    1.469   .     S
C708   C739    1.468   .     S
O709   C713    1.290   .     A
O709   Cu715   1.970   .     S
O710   C714    1.291   .     A
O710   Cu716   1.970   .     S
O711   Cu715   1.967   .     S
O711   C714    1.287   .     A
O712   Cu716   1.967   .     S
O712   C713    1.289   .     A
C713   C720    1.458   .     S
C714   C719    1.455   .     S
Cu715  N749    2.008   .     S
Cu715  Cu716   2.672   .     S
Cu716  N750    2.008   .     S
C717   C727    1.401   .     A
C717   C719    1.398   .     A
C717   N751    1.433   .     S
C718   C728    1.404   .     A
C718   N754    1.436   .     S
C718   C720    1.402   .     A
C719   C721    1.406   .     A
C720   C722    1.406   .     A
C721   N757    1.438   .     S
C721   C723    1.419   .     A
C722   C724    1.416   .     A
C722   N760    1.438   .     S
C723   C729    1.422   .     A
C723   C725    1.425   .     A
C724   C730    1.421   .     A
C724   C726    1.424   .     A
C725   C727    1.413   .     A
C725   C24     1.415   1_556 S
C726   C728    1.413   .     A
C727   C732    1.401   .     A
C728   C731    1.401   .     A
C729   C763    1.486   .     S
C729   C29     1.395   1_556 S
C730   C766    1.487   .     S
C731   H733    1.082   .     S
C732   H734    1.083   .     S
C732   C28     1.394   1_556 S
C735   C769    1.493   .     S
C735   C740    1.415   .     A
C735   C893    1.404   1_455 S
C736   C739    1.414   .     A
C736   C772    1.494   .     S
C736   C816    1.399   .     S
C737   C739    1.422   .     A
C737   C775    1.488   .     S
C737   C813    1.404   .     S
C738   C778    1.484   .     S
C738   C740    1.419   .     A
C738   C892    1.399   1_455 S
C741   H745    1.082   .     S
C741   N750    1.366   .     A
C741   C1212   1.415   1_545 S
C742   N749    1.367   .     A
C742   H746    1.082   .     S
C742   C977    1.415   .     S
C743   N750    1.366   .     A
C743   H747    1.081   .     S
C743   C1210   1.415   1_545 S
C744   H748    1.080   .     S
C744   N749    1.366   .     A
C744   C975    1.415   .     S
N751   O753    1.301   .     A
N751   O752    1.301   .     A
N754   O756    1.301   .     A
N754   O755    1.301   .     A
N757   O758    1.301   .     A
N757   O759    1.301   .     A
N760   O762    1.301   .     A
N760   O761    1.301   .     A
C763   O765    1.222   .     D
C763   H764    1.083   .     S
C766   O768    1.222   .     D
C766   H767    1.083   .     S
C769   H770    1.086   .     S
C769   O771    1.221   .     D
C772   H773    1.085   .     S
C772   O774    1.221   .     D
C775   H776    1.084   .     S
C775   O777    1.220   .     D
C778   H779    1.084   .     S
C778   O780    1.221   .     D
O781   C785    1.288   .     A
O781   Cu793   1.985   .     S
O782   C786    1.285   .     A
O782   Cu794   1.985   .     S
O783   C786    1.298   .     A
O783   Cu793   1.975   .     S
O784   C785    1.296   .     A
O784   Cu794   1.975   .     S
C785   C818    1.469   .     S
C786   C817    1.468   .     S
O787   C791    1.290   .     A
O787   Cu793   1.970   .     S
O788   C792    1.291   .     A
O788   Cu794   1.970   .     S
O789   Cu793   1.967   .     S
O789   C792    1.287   .     A
O790   Cu794   1.967   .     S
O790   C791    1.289   .     A
C791   C798    1.458   .     S
C792   C797    1.455   .     S
Cu793  N827    2.008   .     S
Cu793  Cu794   2.672   .     S
Cu794  N828    2.008   .     S
C795   C805    1.401   .     A
C795   C797    1.398   .     A
C795   N829    1.433   .     S
C796   C806    1.404   .     A
C796   N832    1.436   .     S
C796   C798    1.402   .     A
C797   C799    1.406   .     A
C798   C800    1.406   .     A
C799   N835    1.438   .     S
C799   C801    1.419   .     A
C800   C802    1.416   .     A
C800   N838    1.438   .     S
C801   C807    1.422   .     A
C801   C803    1.425   .     A
C802   C808    1.421   .     A
C802   C804    1.424   .     A
C803   C805    1.413   .     A
C803   C102    1.415   1_556 S
C804   C806    1.413   .     A
C805   C810    1.401   .     A
C806   C809    1.401   .     A
C807   C841    1.486   .     S
C807   C107    1.395   1_556 S
C808   C844    1.487   .     S
C809   H811    1.082   .     S
C810   H812    1.083   .     S
C810   C106    1.394   1_556 S
C813   C847    1.493   .     S
C813   C818    1.415   .     A
C814   C817    1.414   .     A
C814   C850    1.494   .     S
C814   C894    1.399   .     S
C815   C817    1.422   .     A
C815   C853    1.488   .     S
C815   C891    1.404   .     S
C816   C856    1.484   .     S
C816   C818    1.419   .     A
C819   H823    1.082   .     S
C819   N828    1.366   .     A
C819   C1290   1.415   1_545 S
C820   N827    1.367   .     A
C820   H824    1.082   .     S
C820   C1055   1.415   .     S
C821   N828    1.366   .     A
C821   H825    1.081   .     S
C821   C1288   1.415   1_545 S
C822   H826    1.080   .     S
C822   N827    1.366   .     A
C822   C1053   1.415   .     S
N829   O831    1.301   .     A
N829   O830    1.301   .     A
N832   O834    1.301   .     A
N832   O833    1.301   .     A
N835   O836    1.301   .     A
N835   O837    1.301   .     A
N838   O840    1.301   .     A
N838   O839    1.301   .     A
C841   O843    1.222   .     D
C841   H842    1.083   .     S
C844   O846    1.222   .     D
C844   H845    1.083   .     S
C847   H848    1.086   .     S
C847   O849    1.221   .     D
C850   H851    1.085   .     S
C850   O852    1.221   .     D
C853   H854    1.084   .     S
C853   O855    1.220   .     D
C856   H857    1.084   .     S
C856   O858    1.221   .     D
O859   C863    1.288   .     A
O859   Cu871   1.985   .     S
O860   C864    1.285   .     A
O860   Cu872   1.985   .     S
O861   C864    1.298   .     A
O861   Cu871   1.975   .     S
O862   C863    1.296   .     A
O862   Cu872   1.975   .     S
C863   C896    1.469   .     S
C864   C895    1.468   .     S
O865   C869    1.290   .     A
O865   Cu871   1.970   .     S
O866   C870    1.291   .     A
O866   Cu872   1.970   .     S
O867   Cu871   1.967   .     S
O867   C870    1.287   .     A
O868   Cu872   1.967   .     S
O868   C869    1.289   .     A
C869   C876    1.458   .     S
C870   C875    1.455   .     S
Cu871  N905    2.008   .     S
Cu871  Cu872   2.672   .     S
Cu872  N906    2.008   .     S
C873   C883    1.401   .     A
C873   C875    1.398   .     A
C873   N907    1.433   .     S
C874   C884    1.404   .     A
C874   N910    1.436   .     S
C874   C876    1.402   .     A
C875   C877    1.406   .     A
C876   C878    1.406   .     A
C877   N913    1.438   .     S
C877   C879    1.419   .     A
C878   C880    1.416   .     A
C878   N916    1.438   .     S
C879   C885    1.422   .     A
C879   C881    1.425   .     A
C880   C886    1.421   .     A
C880   C882    1.424   .     A
C881   C883    1.413   .     A
C881   C180    1.415   1_556 S
C882   C884    1.413   .     A
C883   C888    1.401   .     A
C884   C887    1.401   .     A
C885   C919    1.486   .     S
C885   C185    1.395   1_556 S
C886   C922    1.487   .     S
C887   H889    1.082   .     S
C888   H890    1.083   .     S
C888   C184    1.394   1_556 S
C891   C925    1.493   .     S
C891   C896    1.415   .     A
C892   C895    1.414   .     A
C892   C928    1.494   .     S
C892   C738    1.399   1_655 S
C893   C895    1.422   .     A
C893   C931    1.488   .     S
C893   C735    1.404   1_655 S
C894   C934    1.484   .     S
C894   C896    1.419   .     A
C897   H901    1.082   .     S
C897   N906    1.366   .     A
C897   C1368   1.415   1_545 S
C898   N905    1.367   .     A
C898   H902    1.082   .     S
C898   C1133   1.415   .     S
C899   N906    1.366   .     A
C899   H903    1.081   .     S
C899   C1366   1.415   1_545 S
C900   H904    1.080   .     S
C900   N905    1.366   .     A
C900   C1131   1.415   .     S
N907   O909    1.301   .     A
N907   O908    1.301   .     A
N910   O912    1.301   .     A
N910   O911    1.301   .     A
N913   O914    1.301   .     A
N913   O915    1.301   .     A
N916   O918    1.301   .     A
N916   O917    1.301   .     A
C919   O921    1.222   .     D
C919   H920    1.083   .     S
C922   O924    1.222   .     D
C922   H923    1.083   .     S
C925   H926    1.086   .     S
C925   O927    1.221   .     D
C928   H929    1.085   .     S
C928   O930    1.221   .     D
C931   H932    1.084   .     S
C931   O933    1.220   .     D
C934   H935    1.084   .     S
C934   O936    1.221   .     D
O937   C941    1.288   .     A
O937   Cu949   1.985   .     S
O938   C942    1.285   .     A
O938   Cu950   1.985   .     S
O939   C942    1.298   .     A
O939   Cu949   1.975   .     S
O940   C941    1.296   .     A
O940   Cu950   1.975   .     S
C941   C974    1.469   .     S
C942   C973    1.468   .     S
O943   C947    1.290   .     A
O943   Cu949   1.970   .     S
O944   C948    1.291   .     A
O944   Cu950   1.970   .     S
O945   Cu949   1.967   .     S
O945   C948    1.287   .     A
O946   Cu950   1.967   .     S
O946   C947    1.289   .     A
C947   C954    1.458   .     S
C948   C953    1.455   .     S
Cu949  N983    2.008   .     S
Cu949  Cu950   2.672   .     S
Cu950  N984    2.008   .     S
C951   C961    1.401   .     A
C951   C953    1.398   .     A
C951   N985    1.433   .     S
C952   C962    1.404   .     A
C952   N988    1.436   .     S
C952   C954    1.402   .     A
C953   C955    1.406   .     A
C954   C956    1.406   .     A
C955   N991    1.438   .     S
C955   C957    1.419   .     A
C956   C958    1.416   .     A
C956   N994    1.438   .     S
C957   C963    1.422   .     A
C957   C959    1.425   .     A
C958   C964    1.421   .     A
C958   C960    1.424   .     A
C959   C961    1.413   .     A
C959   C258    1.415   1_556 S
C960   C962    1.413   .     A
C961   C966    1.401   .     A
C962   C965    1.401   .     A
C963   C997    1.486   .     S
C963   C263    1.395   1_556 S
C964   C1000   1.487   .     S
C965   H967    1.082   .     S
C966   H968    1.083   .     S
C966   C262    1.394   1_556 S
C969   C1003   1.493   .     S
C969   C974    1.415   .     A
C969   C1127   1.404   1_455 S
C970   C973    1.414   .     A
C970   C1006   1.494   .     S
C970   C1050   1.399   .     S
C971   C973    1.422   .     A
C971   C1009   1.488   .     S
C971   C1047   1.404   .     S
C972   C1012   1.484   .     S
C972   C974    1.419   .     A
C972   C1126   1.399   1_455 S
C975   H979    1.082   .     S
C975   N984    1.366   .     A
C976   N983    1.367   .     A
C976   H980    1.082   .     S
C976   C1211   1.415   .     S
C977   N984    1.366   .     A
C977   H981    1.081   .     S
C978   H982    1.080   .     S
C978   N983    1.366   .     A
C978   C1209   1.415   .     S
N985   O987    1.301   .     A
N985   O986    1.301   .     A
N988   O990    1.301   .     A
N988   O989    1.301   .     A
N991   O992    1.301   .     A
N991   O993    1.301   .     A
N994   O996    1.301   .     A
N994   O995    1.301   .     A
C997   O999    1.222   .     D
C997   H998    1.083   .     S
C1000  O1002   1.222   .     D
C1000  H1001   1.083   .     S
C1003  H1004   1.086   .     S
C1003  O1005   1.221   .     D
C1006  H1007   1.085   .     S
C1006  O1008   1.221   .     D
C1009  H1010   1.084   .     S
C1009  O1011   1.220   .     D
C1012  H1013   1.084   .     S
C1012  O1014   1.221   .     D
O1015  C1019   1.288   .     A
O1015  Cu1027  1.985   .     S
O1016  C1020   1.285   .     A
O1016  Cu1028  1.985   .     S
O1017  C1020   1.298   .     A
O1017  Cu1027  1.975   .     S
O1018  C1019   1.296   .     A
O1018  Cu1028  1.975   .     S
C1019  C1052   1.469   .     S
C1020  C1051   1.468   .     S
O1021  C1025   1.290   .     A
O1021  Cu1027  1.970   .     S
O1022  C1026   1.291   .     A
O1022  Cu1028  1.970   .     S
O1023  Cu1027  1.967   .     S
O1023  C1026   1.287   .     A
O1024  Cu1028  1.967   .     S
O1024  C1025   1.289   .     A
C1025  C1032   1.458   .     S
C1026  C1031   1.455   .     S
Cu1027 N1061   2.008   .     S
Cu1027 Cu1028  2.672   .     S
Cu1028 N1062   2.008   .     S
C1029  C1039   1.401   .     A
C1029  C1031   1.398   .     A
C1029  N1063   1.433   .     S
C1030  C1040   1.404   .     A
C1030  N1066   1.436   .     S
C1030  C1032   1.402   .     A
C1031  C1033   1.406   .     A
C1032  C1034   1.406   .     A
C1033  N1069   1.438   .     S
C1033  C1035   1.419   .     A
C1034  C1036   1.416   .     A
C1034  N1072   1.438   .     S
C1035  C1041   1.422   .     A
C1035  C1037   1.425   .     A
C1036  C1042   1.421   .     A
C1036  C1038   1.424   .     A
C1037  C1039   1.413   .     A
C1037  C336    1.415   1_556 S
C1038  C1040   1.413   .     A
C1039  C1044   1.401   .     A
C1040  C1043   1.401   .     A
C1041  C1075   1.486   .     S
C1041  C341    1.395   1_556 S
C1042  C1078   1.487   .     S
C1043  H1045   1.082   .     S
C1044  H1046   1.083   .     S
C1044  C340    1.394   1_556 S
C1047  C1081   1.493   .     S
C1047  C1052   1.415   .     A
C1048  C1051   1.414   .     A
C1048  C1084   1.494   .     S
C1048  C1128   1.399   .     S
C1049  C1051   1.422   .     A
C1049  C1087   1.488   .     S
C1049  C1125   1.404   .     S
C1050  C1090   1.484   .     S
C1050  C1052   1.419   .     A
C1053  H1057   1.082   .     S
C1053  N1062   1.366   .     A
C1054  N1061   1.367   .     A
C1054  H1058   1.082   .     S
C1054  C1289   1.415   .     S
C1055  N1062   1.366   .     A
C1055  H1059   1.081   .     S
C1056  H1060   1.080   .     S
C1056  N1061   1.366   .     A
C1056  C1287   1.415   .     S
N1063  O1065   1.301   .     A
N1063  O1064   1.301   .     A
N1066  O1068   1.301   .     A
N1066  O1067   1.301   .     A
N1069  O1070   1.301   .     A
N1069  O1071   1.301   .     A
N1072  O1074   1.301   .     A
N1072  O1073   1.301   .     A
C1075  O1077   1.222   .     D
C1075  H1076   1.083   .     S
C1078  O1080   1.222   .     D
C1078  H1079   1.083   .     S
C1081  H1082   1.086   .     S
C1081  O1083   1.221   .     D
C1084  H1085   1.085   .     S
C1084  O1086   1.221   .     D
C1087  H1088   1.084   .     S
C1087  O1089   1.220   .     D
C1090  H1091   1.084   .     S
C1090  O1092   1.221   .     D
O1093  C1097   1.288   .     A
O1093  Cu1105  1.985   .     S
O1094  C1098   1.285   .     A
O1094  Cu1106  1.985   .     S
O1095  C1098   1.298   .     A
O1095  Cu1105  1.975   .     S
O1096  C1097   1.296   .     A
O1096  Cu1106  1.975   .     S
C1097  C1130   1.469   .     S
C1098  C1129   1.468   .     S
O1099  C1103   1.290   .     A
O1099  Cu1105  1.970   .     S
O1100  C1104   1.291   .     A
O1100  Cu1106  1.970   .     S
O1101  Cu1105  1.967   .     S
O1101  C1104   1.287   .     A
O1102  Cu1106  1.967   .     S
O1102  C1103   1.289   .     A
C1103  C1110   1.458   .     S
C1104  C1109   1.455   .     S
Cu1105 N1139   2.008   .     S
Cu1105 Cu1106  2.672   .     S
Cu1106 N1140   2.008   .     S
C1107  C1117   1.401   .     A
C1107  C1109   1.398   .     A
C1107  N1141   1.433   .     S
C1108  C1118   1.404   .     A
C1108  N1144   1.436   .     S
C1108  C1110   1.402   .     A
C1109  C1111   1.406   .     A
C1110  C1112   1.406   .     A
C1111  N1147   1.438   .     S
C1111  C1113   1.419   .     A
C1112  C1114   1.416   .     A
C1112  N1150   1.438   .     S
C1113  C1119   1.422   .     A
C1113  C1115   1.425   .     A
C1114  C1120   1.421   .     A
C1114  C1116   1.424   .     A
C1115  C1117   1.413   .     A
C1115  C414    1.415   1_556 S
C1116  C1118   1.413   .     A
C1117  C1122   1.401   .     A
C1118  C1121   1.401   .     A
C1119  C1153   1.486   .     S
C1119  C419    1.395   1_556 S
C1120  C1156   1.487   .     S
C1121  H1123   1.082   .     S
C1122  H1124   1.083   .     S
C1122  C418    1.394   1_556 S
C1125  C1159   1.493   .     S
C1125  C1130   1.415   .     A
C1126  C1129   1.414   .     A
C1126  C1162   1.494   .     S
C1126  C972    1.399   1_655 S
C1127  C1129   1.422   .     A
C1127  C1165   1.488   .     S
C1127  C969    1.404   1_655 S
C1128  C1168   1.484   .     S
C1128  C1130   1.419   .     A
C1131  H1135   1.082   .     S
C1131  N1140   1.366   .     A
C1132  N1139   1.367   .     A
C1132  H1136   1.082   .     S
C1132  C1367   1.415   .     S
C1133  N1140   1.366   .     A
C1133  H1137   1.081   .     S
C1134  H1138   1.080   .     S
C1134  N1139   1.366   .     A
C1134  C1365   1.415   .     S
N1141  O1143   1.301   .     A
N1141  O1142   1.301   .     A
N1144  O1146   1.301   .     A
N1144  O1145   1.301   .     A
N1147  O1148   1.301   .     A
N1147  O1149   1.301   .     A
N1150  O1152   1.301   .     A
N1150  O1151   1.301   .     A
C1153  O1155   1.222   .     D
C1153  H1154   1.083   .     S
C1156  O1158   1.222   .     D
C1156  H1157   1.083   .     S
C1159  H1160   1.086   .     S
C1159  O1161   1.221   .     D
C1162  H1163   1.085   .     S
C1162  O1164   1.221   .     D
C1165  H1166   1.084   .     S
C1165  O1167   1.220   .     D
C1168  H1169   1.084   .     S
C1168  O1170   1.221   .     D
O1171  C1175   1.288   .     A
O1171  Cu1183  1.985   .     S
O1172  C1176   1.285   .     A
O1172  Cu1184  1.985   .     S
O1173  C1176   1.298   .     A
O1173  Cu1183  1.975   .     S
O1174  C1175   1.296   .     A
O1174  Cu1184  1.975   .     S
C1175  C1208   1.469   .     S
C1176  C1207   1.468   .     S
O1177  C1181   1.290   .     A
O1177  Cu1183  1.970   .     S
O1178  C1182   1.291   .     A
O1178  Cu1184  1.970   .     S
O1179  Cu1183  1.967   .     S
O1179  C1182   1.287   .     A
O1180  Cu1184  1.967   .     S
O1180  C1181   1.289   .     A
C1181  C1188   1.458   .     S
C1182  C1187   1.455   .     S
Cu1183 N1217   2.008   .     S
Cu1183 Cu1184  2.672   .     S
Cu1184 N1218   2.008   .     S
C1185  C1195   1.401   .     A
C1185  C1187   1.398   .     A
C1185  N1219   1.433   .     S
C1186  C1196   1.404   .     A
C1186  N1222   1.436   .     S
C1186  C1188   1.402   .     A
C1187  C1189   1.406   .     A
C1188  C1190   1.406   .     A
C1189  N1225   1.438   .     S
C1189  C1191   1.419   .     A
C1190  C1192   1.416   .     A
C1190  N1228   1.438   .     S
C1191  C1197   1.422   .     A
C1191  C1193   1.425   .     A
C1192  C1198   1.421   .     A
C1192  C1194   1.424   .     A
C1193  C1195   1.413   .     A
C1193  C492    1.415   1_556 S
C1194  C1196   1.413   .     A
C1195  C1200   1.401   .     A
C1196  C1199   1.401   .     A
C1197  C1231   1.486   .     S
C1197  C497    1.395   1_556 S
C1198  C1234   1.487   .     S
C1199  H1201   1.082   .     S
C1200  H1202   1.083   .     S
C1200  C496    1.394   1_556 S
C1203  C1237   1.493   .     S
C1203  C1208   1.415   .     A
C1203  C1361   1.404   1_455 S
C1204  C1207   1.414   .     A
C1204  C1240   1.494   .     S
C1204  C1284   1.399   .     S
C1205  C1207   1.422   .     A
C1205  C1243   1.488   .     S
C1205  C1281   1.404   .     S
C1206  C1246   1.484   .     S
C1206  C1208   1.419   .     A
C1206  C1360   1.399   1_455 S
C1209  H1213   1.082   .     S
C1209  N1218   1.366   .     A
C1210  N1217   1.367   .     A
C1210  H1214   1.082   .     S
C1210  C743    1.415   1_565 S
C1211  N1218   1.366   .     A
C1211  H1215   1.081   .     S
C1212  H1216   1.080   .     S
C1212  N1217   1.366   .     A
C1212  C741    1.415   1_565 S
N1219  O1221   1.301   .     A
N1219  O1220   1.301   .     A
N1222  O1224   1.301   .     A
N1222  O1223   1.301   .     A
N1225  O1226   1.301   .     A
N1225  O1227   1.301   .     A
N1228  O1230   1.301   .     A
N1228  O1229   1.301   .     A
C1231  O1233   1.222   .     D
C1231  H1232   1.083   .     S
C1234  O1236   1.222   .     D
C1234  H1235   1.083   .     S
C1237  H1238   1.086   .     S
C1237  O1239   1.221   .     D
C1240  H1241   1.085   .     S
C1240  O1242   1.221   .     D
C1243  H1244   1.084   .     S
C1243  O1245   1.220   .     D
C1246  H1247   1.084   .     S
C1246  O1248   1.221   .     D
O1249  C1253   1.288   .     A
O1249  Cu1261  1.985   .     S
O1250  C1254   1.285   .     A
O1250  Cu1262  1.985   .     S
O1251  C1254   1.298   .     A
O1251  Cu1261  1.975   .     S
O1252  C1253   1.296   .     A
O1252  Cu1262  1.975   .     S
C1253  C1286   1.469   .     S
C1254  C1285   1.468   .     S
O1255  C1259   1.290   .     A
O1255  Cu1261  1.970   .     S
O1256  C1260   1.291   .     A
O1256  Cu1262  1.970   .     S
O1257  Cu1261  1.967   .     S
O1257  C1260   1.287   .     A
O1258  Cu1262  1.967   .     S
O1258  C1259   1.289   .     A
C1259  C1266   1.458   .     S
C1260  C1265   1.455   .     S
Cu1261 N1295   2.008   .     S
Cu1261 Cu1262  2.672   .     S
Cu1262 N1296   2.008   .     S
C1263  C1273   1.401   .     A
C1263  C1265   1.398   .     A
C1263  N1297   1.433   .     S
C1264  C1274   1.404   .     A
C1264  N1300   1.436   .     S
C1264  C1266   1.402   .     A
C1265  C1267   1.406   .     A
C1266  C1268   1.406   .     A
C1267  N1303   1.438   .     S
C1267  C1269   1.419   .     A
C1268  C1270   1.416   .     A
C1268  N1306   1.438   .     S
C1269  C1275   1.422   .     A
C1269  C1271   1.425   .     A
C1270  C1276   1.421   .     A
C1270  C1272   1.424   .     A
C1271  C1273   1.413   .     A
C1271  C570    1.415   1_556 S
C1272  C1274   1.413   .     A
C1273  C1278   1.401   .     A
C1274  C1277   1.401   .     A
C1275  C1309   1.486   .     S
C1275  C575    1.395   1_556 S
C1276  C1312   1.487   .     S
C1277  H1279   1.082   .     S
C1278  H1280   1.083   .     S
C1278  C574    1.394   1_556 S
C1281  C1315   1.493   .     S
C1281  C1286   1.415   .     A
C1282  C1285   1.414   .     A
C1282  C1318   1.494   .     S
C1282  C1362   1.399   .     S
C1283  C1285   1.422   .     A
C1283  C1321   1.488   .     S
C1283  C1359   1.404   .     S
C1284  C1324   1.484   .     S
C1284  C1286   1.419   .     A
C1287  H1291   1.082   .     S
C1287  N1296   1.366   .     A
C1288  N1295   1.367   .     A
C1288  H1292   1.082   .     S
C1288  C821    1.415   1_565 S
C1289  N1296   1.366   .     A
C1289  H1293   1.081   .     S
C1290  H1294   1.080   .     S
C1290  N1295   1.366   .     A
C1290  C819    1.415   1_565 S
N1297  O1299   1.301   .     A
N1297  O1298   1.301   .     A
N1300  O1302   1.301   .     A
N1300  O1301   1.301   .     A
N1303  O1304   1.301   .     A
N1303  O1305   1.301   .     A
N1306  O1308   1.301   .     A
N1306  O1307   1.301   .     A
C1309  O1311   1.222   .     D
C1309  H1310   1.083   .     S
C1312  O1314   1.222   .     D
C1312  H1313   1.083   .     S
C1315  H1316   1.086   .     S
C1315  O1317   1.221   .     D
C1318  H1319   1.085   .     S
C1318  O1320   1.221   .     D
C1321  H1322   1.084   .     S
C1321  O1323   1.220   .     D
C1324  H1325   1.084   .     S
C1324  O1326   1.221   .     D
O1327  C1331   1.288   .     A
O1327  Cu1339  1.985   .     S
O1328  C1332   1.285   .     A
O1328  Cu1340  1.985   .     S
O1329  C1332   1.298   .     A
O1329  Cu1339  1.975   .     S
O1330  C1331   1.296   .     A
O1330  Cu1340  1.975   .     S
C1331  C1364   1.469   .     S
C1332  C1363   1.468   .     S
O1333  C1337   1.290   .     A
O1333  Cu1339  1.970   .     S
O1334  C1338   1.291   .     A
O1334  Cu1340  1.970   .     S
O1335  Cu1339  1.967   .     S
O1335  C1338   1.287   .     A
O1336  Cu1340  1.967   .     S
O1336  C1337   1.289   .     A
C1337  C1344   1.458   .     S
C1338  C1343   1.455   .     S
Cu1339 N1373   2.008   .     S
Cu1339 Cu1340  2.672   .     S
Cu1340 N1374   2.008   .     S
C1341  C1351   1.401   .     A
C1341  C1343   1.398   .     A
C1341  N1375   1.433   .     S
C1342  C1352   1.404   .     A
C1342  N1378   1.436   .     S
C1342  C1344   1.402   .     A
C1343  C1345   1.406   .     A
C1344  C1346   1.406   .     A
C1345  N1381   1.438   .     S
C1345  C1347   1.419   .     A
C1346  C1348   1.416   .     A
C1346  N1384   1.438   .     S
C1347  C1353   1.422   .     A
C1347  C1349   1.425   .     A
C1348  C1354   1.421   .     A
C1348  C1350   1.424   .     A
C1349  C1351   1.413   .     A
C1349  C648    1.415   1_556 S
C1350  C1352   1.413   .     A
C1351  C1356   1.401   .     A
C1352  C1355   1.401   .     A
C1353  C1387   1.486   .     S
C1353  C653    1.395   1_556 S
C1354  C1390   1.487   .     S
C1355  H1357   1.082   .     S
C1356  H1358   1.083   .     S
C1356  C652    1.394   1_556 S
C1359  C1393   1.493   .     S
C1359  C1364   1.415   .     A
C1360  C1363   1.414   .     A
C1360  C1396   1.494   .     S
C1360  C1206   1.399   1_655 S
C1361  C1363   1.422   .     A
C1361  C1399   1.488   .     S
C1361  C1203   1.404   1_655 S
C1362  C1402   1.484   .     S
C1362  C1364   1.419   .     A
C1365  H1369   1.082   .     S
C1365  N1374   1.366   .     A
C1366  N1373   1.367   .     A
C1366  H1370   1.082   .     S
C1366  C899    1.415   1_565 S
C1367  N1374   1.366   .     A
C1367  H1371   1.081   .     S
C1368  H1372   1.080   .     S
C1368  N1373   1.366   .     A
C1368  C897    1.415   1_565 S
N1375  O1377   1.301   .     A
N1375  O1376   1.301   .     A
N1378  O1380   1.301   .     A
N1378  O1379   1.301   .     A
N1381  O1382   1.301   .     A
N1381  O1383   1.301   .     A
N1384  O1386   1.301   .     A
N1384  O1385   1.301   .     A
C1387  O1389   1.222   .     D
C1387  H1388   1.083   .     S
C1390  O1392   1.222   .     D
C1390  H1391   1.083   .     S
C1393  H1394   1.086   .     S
C1393  O1395   1.221   .     D
C1396  H1397   1.085   .     S
C1396  O1398   1.221   .     D
C1399  H1400   1.084   .     S
C1399  O1401   1.220   .     D
C1402  H1403   1.084   .     S
C1402  O1404   1.221   .     D
