data_str_m2_o1_o17_pcu_sym.149
_audit_creation_date              2020-01-03
_audit_creation_method            'Materials Studio'
_symmetry_space_group_name_H-M    'P1'
_symmetry_Int_Tables_number       1
_symmetry_cell_setting            triclinic
loop_
_symmetry_equiv_pos_as_xyz
  x,y,z
_cell_length_a                    32.9168
_cell_length_b                    29.0461
_cell_length_c                    30.0313
_cell_angle_alpha                 89.7823
_cell_angle_beta                  92.2991
_cell_angle_gamma                 89.5504
loop_
_atom_site_label
_atom_site_type_symbol
_atom_site_fract_x
_atom_site_fract_y
_atom_site_fract_z
_atom_site_U_iso_or_equiv
_atom_site_adp_type
_atom_site_occupancy
O1     O     0.10655   0.20625   0.24999   0.00000  Uiso   1.00
O2     O     0.22679   0.12709   0.25000   0.00000  Uiso   1.00
O3     O     0.22679   0.20625   0.25000   0.00000  Uiso   1.00
O4     O     0.10655   0.12709   0.24999   0.00000  Uiso   1.00
C5     C     0.08756   0.16684   0.25280   0.00000  Uiso   1.00
C6     C     0.24575   0.16642   0.24690   0.00000  Uiso   1.00
O7     O     0.16666   0.20627   0.18513   0.00000  Uiso   1.00
O8     O     0.16668   0.12707   0.31487   0.00000  Uiso   1.00
O9     O     0.16668   0.20627   0.31487   0.00000  Uiso   1.00
O10    O     0.16666   0.12707   0.18513   0.00000  Uiso   1.00
C11    C     0.16769   0.16669   0.16471   0.00000  Uiso   1.00
C12    C     0.16569   0.16661   0.33532   0.00000  Uiso   1.00
Cu13   Cu    0.16667   0.21355   0.25000   0.00000  Uiso   1.00
Cu14   Cu    0.16667   0.11978   0.25000   0.00000  Uiso   1.00
C15    C     0.20147   0.15872   0.40750   0.00000  Uiso   1.00
C16    C     0.13160   0.16790   0.09244   0.00000  Uiso   1.00
C17    C     0.16497   0.16603   0.38367   0.00000  Uiso   1.00
C18    C     0.16852   0.16609   0.11642   0.00000  Uiso   1.00
C19    C     0.12841   0.17052   0.40587   0.00000  Uiso   1.00
C20    C     0.20526   0.16054   0.09471   0.00000  Uiso   1.00
C21    C     0.12863   0.16417   0.45247   0.00000  Uiso   1.00
C22    C     0.20452   0.15493   0.04797   0.00000  Uiso   1.00
C23    C     0.16612   0.16082   0.47675   0.00000  Uiso   1.00
C24    C     0.16701   0.16027   0.02363   0.00000  Uiso   1.00
C25    C     0.20258   0.15661   0.45410   0.00000  Uiso   1.00
C26    C     0.13019   0.16415   0.04606   0.00000  Uiso   1.00
C27    C     0.09261   0.15751   0.47521   0.00000  Uiso   1.00
C28    C     0.23946   0.14247   0.02464   0.00000  Uiso   1.00
C29    C     0.09279   0.16134   0.02173   0.00000  Uiso   1.00
C30    C     0.23900   0.14673   0.47814   0.00000  Uiso   1.00
H31    H     0.22896   0.15484   0.38915   0.00000  Uiso   1.00
H32    H     0.10409   0.17231   0.11062   0.00000  Uiso   1.00
C33    C     0.02142   0.12525   0.25829   0.00000  Uiso   1.00
C34    C     0.31197   0.20755   0.24135   0.00000  Uiso   1.00
C35    C     0.31306   0.12425   0.24777   0.00000  Uiso   1.00
C36    C     0.02025   0.20852   0.25220   0.00000  Uiso   1.00
C37    C     0.29063   0.16585   0.24371   0.00000  Uiso   1.00
C38    C     0.04269   0.16705   0.25585   0.00000  Uiso   1.00
C39    C     0.14161   0.02499   0.22070   0.00000  Uiso   1.00
C40    C     0.19174   0.30833   0.27929   0.00000  Uiso   1.00
C41    C     0.19149   0.02430   0.27954   0.00000  Uiso   1.00
C42    C     0.14173   0.30901   0.22058   0.00000  Uiso   1.00
N43    N     0.16667   0.28402   0.25000   0.00000  Uiso   1.00
N44    N     0.16667   0.04931   0.25000   0.00000  Uiso   1.00
N45    N     0.09220   0.18568   0.38188   0.00000  Uiso   1.00
O46    O     0.07781   0.16213   0.34827   0.00000  Uiso   1.00
O47    O     0.07168   0.22086   0.39593   0.00000  Uiso   1.00
N48    N     0.24288   0.16646   0.11952   0.00000  Uiso   1.00
O49    O     0.25293   0.13866   0.15214   0.00000  Uiso   1.00
O50    O     0.26762   0.19903   0.10880   0.00000  Uiso   1.00
I51    I     0.04514   0.11848   0.44408   0.00000  Uiso   1.00
I52    I     0.28814   0.10271   0.05476   0.00000  Uiso   1.00
N53    N     0.05520   0.15846   0.04404   0.00000  Uiso   1.00
O54    O     0.02486   0.18529   0.03199   0.00000  Uiso   1.00
O55    O     0.05031   0.12698   0.07426   0.00000  Uiso   1.00
N56    N     0.27537   0.13893   0.45500   0.00000  Uiso   1.00
O57    O     0.29498   0.17441   0.44069   0.00000  Uiso   1.00
O58    O     0.28135   0.09879   0.43720   0.00000  Uiso   1.00
I59    I     0.04751   0.06646   0.29224   0.00000  Uiso   1.00
I60    I     0.28631   0.26601   0.20687   0.00000  Uiso   1.00
I61    I     0.28978   0.06045   0.22310   0.00000  Uiso   1.00
I62    I     0.04316   0.27114   0.27977   0.00000  Uiso   1.00
I63    I     0.10040   0.05991   0.17412   0.00000  Uiso   1.00
I64    I     0.23311   0.27335   0.32567   0.00000  Uiso   1.00
I65    I     0.23082   0.05805   0.32808   0.00000  Uiso   1.00
I66    I     0.10189   0.27513   0.17263   0.00000  Uiso   1.00
O67    O     0.43988   0.20625   0.24999   0.00000  Uiso   1.00
O68    O     0.56012   0.12709   0.25000   0.00000  Uiso   1.00
O69    O     0.56012   0.20625   0.25000   0.00000  Uiso   1.00
O70    O     0.43988   0.12709   0.24999   0.00000  Uiso   1.00
C71    C     0.42089   0.16684   0.25280   0.00000  Uiso   1.00
C72    C     0.57909   0.16642   0.24690   0.00000  Uiso   1.00
O73    O     0.49999   0.20627   0.18513   0.00000  Uiso   1.00
O74    O     0.50001   0.12707   0.31487   0.00000  Uiso   1.00
O75    O     0.50001   0.20627   0.31487   0.00000  Uiso   1.00
O76    O     0.49999   0.12707   0.18513   0.00000  Uiso   1.00
C77    C     0.50102   0.16669   0.16471   0.00000  Uiso   1.00
C78    C     0.49902   0.16661   0.33532   0.00000  Uiso   1.00
Cu79   Cu    0.50000   0.21355   0.25000   0.00000  Uiso   1.00
Cu80   Cu    0.50000   0.11978   0.25000   0.00000  Uiso   1.00
C81    C     0.53481   0.15872   0.40750   0.00000  Uiso   1.00
C82    C     0.46493   0.16790   0.09244   0.00000  Uiso   1.00
C83    C     0.49830   0.16603   0.38367   0.00000  Uiso   1.00
C84    C     0.50185   0.16609   0.11642   0.00000  Uiso   1.00
C85    C     0.46174   0.17052   0.40587   0.00000  Uiso   1.00
C86    C     0.53860   0.16054   0.09471   0.00000  Uiso   1.00
C87    C     0.46197   0.16417   0.45247   0.00000  Uiso   1.00
C88    C     0.53785   0.15493   0.04797   0.00000  Uiso   1.00
C89    C     0.49945   0.16082   0.47675   0.00000  Uiso   1.00
C90    C     0.50034   0.16027   0.02363   0.00000  Uiso   1.00
C91    C     0.53592   0.15661   0.45410   0.00000  Uiso   1.00
C92    C     0.46352   0.16415   0.04606   0.00000  Uiso   1.00
C93    C     0.42595   0.15751   0.47521   0.00000  Uiso   1.00
C94    C     0.57280   0.14247   0.02464   0.00000  Uiso   1.00
C95    C     0.42612   0.16134   0.02173   0.00000  Uiso   1.00
C96    C     0.57234   0.14673   0.47814   0.00000  Uiso   1.00
H97    H     0.56229   0.15484   0.38915   0.00000  Uiso   1.00
H98    H     0.43743   0.17231   0.11062   0.00000  Uiso   1.00
C99    C     0.35476   0.12525   0.25829   0.00000  Uiso   1.00
C100   C     0.64531   0.20755   0.24135   0.00000  Uiso   1.00
C101   C     0.64639   0.12425   0.24777   0.00000  Uiso   1.00
C102   C     0.35358   0.20852   0.25220   0.00000  Uiso   1.00
C103   C     0.62396   0.16585   0.24371   0.00000  Uiso   1.00
C104   C     0.37602   0.16705   0.25585   0.00000  Uiso   1.00
C105   C     0.47494   0.02499   0.22070   0.00000  Uiso   1.00
C106   C     0.52507   0.30833   0.27929   0.00000  Uiso   1.00
C107   C     0.52482   0.02430   0.27954   0.00000  Uiso   1.00
C108   C     0.47506   0.30901   0.22058   0.00000  Uiso   1.00
N109   N     0.50000   0.28402   0.25000   0.00000  Uiso   1.00
N110   N     0.50000   0.04931   0.25000   0.00000  Uiso   1.00
N111   N     0.42553   0.18568   0.38188   0.00000  Uiso   1.00
O112   O     0.41115   0.16213   0.34827   0.00000  Uiso   1.00
O113   O     0.40501   0.22086   0.39593   0.00000  Uiso   1.00
N114   N     0.57621   0.16646   0.11952   0.00000  Uiso   1.00
O115   O     0.58627   0.13866   0.15214   0.00000  Uiso   1.00
O116   O     0.60096   0.19903   0.10880   0.00000  Uiso   1.00
I117   I     0.37848   0.11848   0.44408   0.00000  Uiso   1.00
I118   I     0.62148   0.10271   0.05476   0.00000  Uiso   1.00
N119   N     0.38853   0.15846   0.04404   0.00000  Uiso   1.00
O120   O     0.35819   0.18529   0.03199   0.00000  Uiso   1.00
O121   O     0.38365   0.12698   0.07426   0.00000  Uiso   1.00
N122   N     0.60870   0.13893   0.45500   0.00000  Uiso   1.00
O123   O     0.62831   0.17441   0.44069   0.00000  Uiso   1.00
O124   O     0.61468   0.09879   0.43720   0.00000  Uiso   1.00
I125   I     0.38084   0.06646   0.29224   0.00000  Uiso   1.00
I126   I     0.61965   0.26601   0.20687   0.00000  Uiso   1.00
I127   I     0.62311   0.06045   0.22310   0.00000  Uiso   1.00
I128   I     0.37649   0.27114   0.27977   0.00000  Uiso   1.00
I129   I     0.43373   0.05991   0.17412   0.00000  Uiso   1.00
I130   I     0.56644   0.27335   0.32567   0.00000  Uiso   1.00
I131   I     0.56415   0.05805   0.32808   0.00000  Uiso   1.00
I132   I     0.43522   0.27513   0.17263   0.00000  Uiso   1.00
O133   O     0.77321   0.20625   0.24999   0.00000  Uiso   1.00
O134   O     0.89345   0.12709   0.25000   0.00000  Uiso   1.00
O135   O     0.89345   0.20625   0.25000   0.00000  Uiso   1.00
O136   O     0.77321   0.12709   0.24999   0.00000  Uiso   1.00
C137   C     0.75422   0.16684   0.25280   0.00000  Uiso   1.00
C138   C     0.91242   0.16642   0.24690   0.00000  Uiso   1.00
O139   O     0.83332   0.20627   0.18513   0.00000  Uiso   1.00
O140   O     0.83334   0.12707   0.31487   0.00000  Uiso   1.00
O141   O     0.83334   0.20627   0.31487   0.00000  Uiso   1.00
O142   O     0.83332   0.12707   0.18513   0.00000  Uiso   1.00
C143   C     0.83435   0.16669   0.16471   0.00000  Uiso   1.00
C144   C     0.83235   0.16661   0.33532   0.00000  Uiso   1.00
Cu145  Cu    0.83333   0.21355   0.25000   0.00000  Uiso   1.00
Cu146  Cu    0.83333   0.11978   0.25000   0.00000  Uiso   1.00
C147   C     0.86814   0.15872   0.40750   0.00000  Uiso   1.00
C148   C     0.79826   0.16790   0.09244   0.00000  Uiso   1.00
C149   C     0.83163   0.16603   0.38367   0.00000  Uiso   1.00
C150   C     0.83519   0.16609   0.11642   0.00000  Uiso   1.00
C151   C     0.79508   0.17052   0.40587   0.00000  Uiso   1.00
C152   C     0.87193   0.16054   0.09471   0.00000  Uiso   1.00
C153   C     0.79530   0.16417   0.45247   0.00000  Uiso   1.00
C154   C     0.87118   0.15493   0.04797   0.00000  Uiso   1.00
C155   C     0.83279   0.16082   0.47675   0.00000  Uiso   1.00
C156   C     0.83367   0.16027   0.02363   0.00000  Uiso   1.00
C157   C     0.86925   0.15661   0.45410   0.00000  Uiso   1.00
C158   C     0.79686   0.16415   0.04606   0.00000  Uiso   1.00
C159   C     0.75928   0.15751   0.47521   0.00000  Uiso   1.00
C160   C     0.90613   0.14247   0.02464   0.00000  Uiso   1.00
C161   C     0.75946   0.16134   0.02173   0.00000  Uiso   1.00
C162   C     0.90567   0.14673   0.47814   0.00000  Uiso   1.00
H163   H     0.89563   0.15484   0.38915   0.00000  Uiso   1.00
H164   H     0.77076   0.17231   0.11062   0.00000  Uiso   1.00
C165   C     0.68809   0.12525   0.25829   0.00000  Uiso   1.00
C166   C     0.97864   0.20755   0.24135   0.00000  Uiso   1.00
C167   C     0.97972   0.12425   0.24777   0.00000  Uiso   1.00
C168   C     0.68692   0.20852   0.25220   0.00000  Uiso   1.00
C169   C     0.95730   0.16585   0.24371   0.00000  Uiso   1.00
C170   C     0.70935   0.16705   0.25585   0.00000  Uiso   1.00
C171   C     0.80828   0.02499   0.22070   0.00000  Uiso   1.00
C172   C     0.85840   0.30833   0.27929   0.00000  Uiso   1.00
C173   C     0.85815   0.02430   0.27954   0.00000  Uiso   1.00
C174   C     0.80839   0.30901   0.22058   0.00000  Uiso   1.00
N175   N     0.83333   0.28402   0.25000   0.00000  Uiso   1.00
N176   N     0.83333   0.04931   0.25000   0.00000  Uiso   1.00
N177   N     0.75887   0.18568   0.38188   0.00000  Uiso   1.00
O178   O     0.74448   0.16213   0.34827   0.00000  Uiso   1.00
O179   O     0.73835   0.22086   0.39593   0.00000  Uiso   1.00
N180   N     0.90955   0.16646   0.11952   0.00000  Uiso   1.00
O181   O     0.91960   0.13866   0.15214   0.00000  Uiso   1.00
O182   O     0.93429   0.19903   0.10880   0.00000  Uiso   1.00
I183   I     0.71181   0.11848   0.44408   0.00000  Uiso   1.00
I184   I     0.95481   0.10271   0.05476   0.00000  Uiso   1.00
N185   N     0.72186   0.15846   0.04404   0.00000  Uiso   1.00
O186   O     0.69153   0.18529   0.03199   0.00000  Uiso   1.00
O187   O     0.71698   0.12698   0.07426   0.00000  Uiso   1.00
N188   N     0.94204   0.13893   0.45500   0.00000  Uiso   1.00
O189   O     0.96164   0.17441   0.44069   0.00000  Uiso   1.00
O190   O     0.94802   0.09879   0.43720   0.00000  Uiso   1.00
I191   I     0.71418   0.06646   0.29224   0.00000  Uiso   1.00
I192   I     0.95298   0.26601   0.20687   0.00000  Uiso   1.00
I193   I     0.95645   0.06045   0.22310   0.00000  Uiso   1.00
I194   I     0.70982   0.27114   0.27977   0.00000  Uiso   1.00
I195   I     0.76707   0.05991   0.17412   0.00000  Uiso   1.00
I196   I     0.89978   0.27335   0.32567   0.00000  Uiso   1.00
I197   I     0.89748   0.05805   0.32808   0.00000  Uiso   1.00
I198   I     0.76856   0.27513   0.17263   0.00000  Uiso   1.00
O199   O     0.10655   0.53958   0.24999   0.00000  Uiso   1.00
O200   O     0.22679   0.46042   0.25000   0.00000  Uiso   1.00
O201   O     0.22679   0.53958   0.25000   0.00000  Uiso   1.00
O202   O     0.10655   0.46042   0.24999   0.00000  Uiso   1.00
C203   C     0.08756   0.50017   0.25280   0.00000  Uiso   1.00
C204   C     0.24575   0.49976   0.24690   0.00000  Uiso   1.00
O205   O     0.16666   0.53960   0.18513   0.00000  Uiso   1.00
O206   O     0.16668   0.46040   0.31487   0.00000  Uiso   1.00
O207   O     0.16668   0.53960   0.31487   0.00000  Uiso   1.00
O208   O     0.16666   0.46040   0.18513   0.00000  Uiso   1.00
C209   C     0.16769   0.50002   0.16471   0.00000  Uiso   1.00
C210   C     0.16569   0.49995   0.33532   0.00000  Uiso   1.00
Cu211  Cu    0.16667   0.54689   0.25000   0.00000  Uiso   1.00
Cu212  Cu    0.16667   0.45311   0.25000   0.00000  Uiso   1.00
C213   C     0.20147   0.49205   0.40750   0.00000  Uiso   1.00
C214   C     0.13160   0.50123   0.09244   0.00000  Uiso   1.00
C215   C     0.16497   0.49937   0.38367   0.00000  Uiso   1.00
C216   C     0.16852   0.49942   0.11642   0.00000  Uiso   1.00
C217   C     0.12841   0.50385   0.40587   0.00000  Uiso   1.00
C218   C     0.20526   0.49387   0.09471   0.00000  Uiso   1.00
C219   C     0.12863   0.49750   0.45247   0.00000  Uiso   1.00
C220   C     0.20452   0.48826   0.04797   0.00000  Uiso   1.00
C221   C     0.16612   0.49416   0.47675   0.00000  Uiso   1.00
C222   C     0.16701   0.49360   0.02363   0.00000  Uiso   1.00
C223   C     0.20258   0.48994   0.45410   0.00000  Uiso   1.00
C224   C     0.13019   0.49749   0.04606   0.00000  Uiso   1.00
C225   C     0.09261   0.49084   0.47521   0.00000  Uiso   1.00
C226   C     0.23946   0.47581   0.02464   0.00000  Uiso   1.00
C227   C     0.09279   0.49467   0.02173   0.00000  Uiso   1.00
C228   C     0.23900   0.48007   0.47814   0.00000  Uiso   1.00
H229   H     0.22896   0.48817   0.38915   0.00000  Uiso   1.00
H230   H     0.10409   0.50565   0.11062   0.00000  Uiso   1.00
C231   C     0.02142   0.45858   0.25829   0.00000  Uiso   1.00
C232   C     0.31197   0.54088   0.24135   0.00000  Uiso   1.00
C233   C     0.31306   0.45759   0.24777   0.00000  Uiso   1.00
C234   C     0.02025   0.54186   0.25220   0.00000  Uiso   1.00
C235   C     0.29063   0.49918   0.24371   0.00000  Uiso   1.00
C236   C     0.04269   0.50038   0.25585   0.00000  Uiso   1.00
C237   C     0.14161   0.35832   0.22070   0.00000  Uiso   1.00
C238   C     0.19174   0.64166   0.27929   0.00000  Uiso   1.00
C239   C     0.19149   0.35764   0.27954   0.00000  Uiso   1.00
C240   C     0.14173   0.64234   0.22058   0.00000  Uiso   1.00
N241   N     0.16667   0.61736   0.25000   0.00000  Uiso   1.00
N242   N     0.16667   0.38264   0.25000   0.00000  Uiso   1.00
N243   N     0.09220   0.51902   0.38188   0.00000  Uiso   1.00
O244   O     0.07781   0.49546   0.34827   0.00000  Uiso   1.00
O245   O     0.07168   0.55419   0.39593   0.00000  Uiso   1.00
N246   N     0.24288   0.49979   0.11952   0.00000  Uiso   1.00
O247   O     0.25293   0.47199   0.15214   0.00000  Uiso   1.00
O248   O     0.26762   0.53237   0.10880   0.00000  Uiso   1.00
I249   I     0.04514   0.45181   0.44408   0.00000  Uiso   1.00
I250   I     0.28814   0.43605   0.05476   0.00000  Uiso   1.00
N251   N     0.05520   0.49179   0.04404   0.00000  Uiso   1.00
O252   O     0.02486   0.51863   0.03199   0.00000  Uiso   1.00
O253   O     0.05031   0.46031   0.07426   0.00000  Uiso   1.00
N254   N     0.27537   0.47226   0.45500   0.00000  Uiso   1.00
O255   O     0.29498   0.50774   0.44069   0.00000  Uiso   1.00
O256   O     0.28135   0.43212   0.43720   0.00000  Uiso   1.00
I257   I     0.04751   0.39979   0.29224   0.00000  Uiso   1.00
I258   I     0.28631   0.59934   0.20687   0.00000  Uiso   1.00
I259   I     0.28978   0.39379   0.22310   0.00000  Uiso   1.00
I260   I     0.04316   0.60447   0.27977   0.00000  Uiso   1.00
I261   I     0.10040   0.39324   0.17412   0.00000  Uiso   1.00
I262   I     0.23311   0.60669   0.32567   0.00000  Uiso   1.00
I263   I     0.23082   0.39138   0.32808   0.00000  Uiso   1.00
I264   I     0.10189   0.60846   0.17263   0.00000  Uiso   1.00
O265   O     0.43988   0.53958   0.24999   0.00000  Uiso   1.00
O266   O     0.56012   0.46042   0.25000   0.00000  Uiso   1.00
O267   O     0.56012   0.53958   0.25000   0.00000  Uiso   1.00
O268   O     0.43988   0.46042   0.24999   0.00000  Uiso   1.00
C269   C     0.42089   0.50017   0.25280   0.00000  Uiso   1.00
C270   C     0.57909   0.49976   0.24690   0.00000  Uiso   1.00
O271   O     0.49999   0.53960   0.18513   0.00000  Uiso   1.00
O272   O     0.50001   0.46040   0.31487   0.00000  Uiso   1.00
O273   O     0.50001   0.53960   0.31487   0.00000  Uiso   1.00
O274   O     0.49999   0.46040   0.18513   0.00000  Uiso   1.00
C275   C     0.50102   0.50002   0.16471   0.00000  Uiso   1.00
C276   C     0.49902   0.49995   0.33532   0.00000  Uiso   1.00
Cu277  Cu    0.50000   0.54689   0.25000   0.00000  Uiso   1.00
Cu278  Cu    0.50000   0.45311   0.25000   0.00000  Uiso   1.00
C279   C     0.53481   0.49205   0.40750   0.00000  Uiso   1.00
C280   C     0.46493   0.50123   0.09244   0.00000  Uiso   1.00
C281   C     0.49830   0.49937   0.38367   0.00000  Uiso   1.00
C282   C     0.50185   0.49942   0.11642   0.00000  Uiso   1.00
C283   C     0.46174   0.50385   0.40587   0.00000  Uiso   1.00
C284   C     0.53860   0.49387   0.09471   0.00000  Uiso   1.00
C285   C     0.46197   0.49750   0.45247   0.00000  Uiso   1.00
C286   C     0.53785   0.48826   0.04797   0.00000  Uiso   1.00
C287   C     0.49945   0.49416   0.47675   0.00000  Uiso   1.00
C288   C     0.50034   0.49360   0.02363   0.00000  Uiso   1.00
C289   C     0.53592   0.48994   0.45410   0.00000  Uiso   1.00
C290   C     0.46352   0.49749   0.04606   0.00000  Uiso   1.00
C291   C     0.42595   0.49084   0.47521   0.00000  Uiso   1.00
C292   C     0.57280   0.47581   0.02464   0.00000  Uiso   1.00
C293   C     0.42612   0.49467   0.02173   0.00000  Uiso   1.00
C294   C     0.57234   0.48007   0.47814   0.00000  Uiso   1.00
H295   H     0.56229   0.48817   0.38915   0.00000  Uiso   1.00
H296   H     0.43743   0.50565   0.11062   0.00000  Uiso   1.00
C297   C     0.35476   0.45858   0.25829   0.00000  Uiso   1.00
C298   C     0.64531   0.54088   0.24135   0.00000  Uiso   1.00
C299   C     0.64639   0.45759   0.24777   0.00000  Uiso   1.00
C300   C     0.35358   0.54186   0.25220   0.00000  Uiso   1.00
C301   C     0.62396   0.49918   0.24371   0.00000  Uiso   1.00
C302   C     0.37602   0.50038   0.25585   0.00000  Uiso   1.00
C303   C     0.47494   0.35832   0.22070   0.00000  Uiso   1.00
C304   C     0.52507   0.64166   0.27929   0.00000  Uiso   1.00
C305   C     0.52482   0.35764   0.27954   0.00000  Uiso   1.00
C306   C     0.47506   0.64234   0.22058   0.00000  Uiso   1.00
N307   N     0.50000   0.61736   0.25000   0.00000  Uiso   1.00
N308   N     0.50000   0.38264   0.25000   0.00000  Uiso   1.00
N309   N     0.42553   0.51902   0.38188   0.00000  Uiso   1.00
O310   O     0.41115   0.49546   0.34827   0.00000  Uiso   1.00
O311   O     0.40501   0.55419   0.39593   0.00000  Uiso   1.00
N312   N     0.57621   0.49979   0.11952   0.00000  Uiso   1.00
O313   O     0.58627   0.47199   0.15214   0.00000  Uiso   1.00
O314   O     0.60096   0.53237   0.10880   0.00000  Uiso   1.00
I315   I     0.37848   0.45181   0.44408   0.00000  Uiso   1.00
I316   I     0.62148   0.43605   0.05476   0.00000  Uiso   1.00
N317   N     0.38853   0.49179   0.04404   0.00000  Uiso   1.00
O318   O     0.35819   0.51863   0.03199   0.00000  Uiso   1.00
O319   O     0.38365   0.46031   0.07426   0.00000  Uiso   1.00
N320   N     0.60870   0.47226   0.45500   0.00000  Uiso   1.00
O321   O     0.62831   0.50774   0.44069   0.00000  Uiso   1.00
O322   O     0.61468   0.43212   0.43720   0.00000  Uiso   1.00
I323   I     0.38084   0.39979   0.29224   0.00000  Uiso   1.00
I324   I     0.61965   0.59934   0.20687   0.00000  Uiso   1.00
I325   I     0.62311   0.39379   0.22310   0.00000  Uiso   1.00
I326   I     0.37649   0.60447   0.27977   0.00000  Uiso   1.00
I327   I     0.43373   0.39324   0.17412   0.00000  Uiso   1.00
I328   I     0.56644   0.60669   0.32567   0.00000  Uiso   1.00
I329   I     0.56415   0.39138   0.32808   0.00000  Uiso   1.00
I330   I     0.43522   0.60846   0.17263   0.00000  Uiso   1.00
O331   O     0.77321   0.53958   0.24999   0.00000  Uiso   1.00
O332   O     0.89345   0.46042   0.25000   0.00000  Uiso   1.00
O333   O     0.89345   0.53958   0.25000   0.00000  Uiso   1.00
O334   O     0.77321   0.46042   0.24999   0.00000  Uiso   1.00
C335   C     0.75422   0.50017   0.25280   0.00000  Uiso   1.00
C336   C     0.91242   0.49976   0.24690   0.00000  Uiso   1.00
O337   O     0.83332   0.53960   0.18513   0.00000  Uiso   1.00
O338   O     0.83334   0.46040   0.31487   0.00000  Uiso   1.00
O339   O     0.83334   0.53960   0.31487   0.00000  Uiso   1.00
O340   O     0.83332   0.46040   0.18513   0.00000  Uiso   1.00
C341   C     0.83435   0.50002   0.16471   0.00000  Uiso   1.00
C342   C     0.83235   0.49995   0.33532   0.00000  Uiso   1.00
Cu343  Cu    0.83333   0.54689   0.25000   0.00000  Uiso   1.00
Cu344  Cu    0.83333   0.45311   0.25000   0.00000  Uiso   1.00
C345   C     0.86814   0.49205   0.40750   0.00000  Uiso   1.00
C346   C     0.79826   0.50123   0.09244   0.00000  Uiso   1.00
C347   C     0.83163   0.49937   0.38367   0.00000  Uiso   1.00
C348   C     0.83519   0.49942   0.11642   0.00000  Uiso   1.00
C349   C     0.79508   0.50385   0.40587   0.00000  Uiso   1.00
C350   C     0.87193   0.49387   0.09471   0.00000  Uiso   1.00
C351   C     0.79530   0.49750   0.45247   0.00000  Uiso   1.00
C352   C     0.87118   0.48826   0.04797   0.00000  Uiso   1.00
C353   C     0.83279   0.49416   0.47675   0.00000  Uiso   1.00
C354   C     0.83367   0.49360   0.02363   0.00000  Uiso   1.00
C355   C     0.86925   0.48994   0.45410   0.00000  Uiso   1.00
C356   C     0.79686   0.49749   0.04606   0.00000  Uiso   1.00
C357   C     0.75928   0.49084   0.47521   0.00000  Uiso   1.00
C358   C     0.90613   0.47581   0.02464   0.00000  Uiso   1.00
C359   C     0.75946   0.49467   0.02173   0.00000  Uiso   1.00
C360   C     0.90567   0.48007   0.47814   0.00000  Uiso   1.00
H361   H     0.89563   0.48817   0.38915   0.00000  Uiso   1.00
H362   H     0.77076   0.50565   0.11062   0.00000  Uiso   1.00
C363   C     0.68809   0.45858   0.25829   0.00000  Uiso   1.00
C364   C     0.97864   0.54088   0.24135   0.00000  Uiso   1.00
C365   C     0.97972   0.45759   0.24777   0.00000  Uiso   1.00
C366   C     0.68692   0.54186   0.25220   0.00000  Uiso   1.00
C367   C     0.95730   0.49918   0.24371   0.00000  Uiso   1.00
C368   C     0.70935   0.50038   0.25585   0.00000  Uiso   1.00
C369   C     0.80828   0.35832   0.22070   0.00000  Uiso   1.00
C370   C     0.85840   0.64166   0.27929   0.00000  Uiso   1.00
C371   C     0.85815   0.35764   0.27954   0.00000  Uiso   1.00
C372   C     0.80839   0.64234   0.22058   0.00000  Uiso   1.00
N373   N     0.83333   0.61736   0.25000   0.00000  Uiso   1.00
N374   N     0.83333   0.38264   0.25000   0.00000  Uiso   1.00
N375   N     0.75887   0.51902   0.38188   0.00000  Uiso   1.00
O376   O     0.74448   0.49546   0.34827   0.00000  Uiso   1.00
O377   O     0.73835   0.55419   0.39593   0.00000  Uiso   1.00
N378   N     0.90955   0.49979   0.11952   0.00000  Uiso   1.00
O379   O     0.91960   0.47199   0.15214   0.00000  Uiso   1.00
O380   O     0.93429   0.53237   0.10880   0.00000  Uiso   1.00
I381   I     0.71181   0.45181   0.44408   0.00000  Uiso   1.00
I382   I     0.95481   0.43605   0.05476   0.00000  Uiso   1.00
N383   N     0.72186   0.49179   0.04404   0.00000  Uiso   1.00
O384   O     0.69153   0.51863   0.03199   0.00000  Uiso   1.00
O385   O     0.71698   0.46031   0.07426   0.00000  Uiso   1.00
N386   N     0.94204   0.47226   0.45500   0.00000  Uiso   1.00
O387   O     0.96164   0.50774   0.44069   0.00000  Uiso   1.00
O388   O     0.94802   0.43212   0.43720   0.00000  Uiso   1.00
I389   I     0.71418   0.39979   0.29224   0.00000  Uiso   1.00
I390   I     0.95298   0.59934   0.20687   0.00000  Uiso   1.00
I391   I     0.95645   0.39379   0.22310   0.00000  Uiso   1.00
I392   I     0.70982   0.60447   0.27977   0.00000  Uiso   1.00
I393   I     0.76707   0.39324   0.17412   0.00000  Uiso   1.00
I394   I     0.89978   0.60669   0.32567   0.00000  Uiso   1.00
I395   I     0.89748   0.39138   0.32808   0.00000  Uiso   1.00
I396   I     0.76856   0.60846   0.17263   0.00000  Uiso   1.00
O397   O     0.10655   0.87291   0.24999   0.00000  Uiso   1.00
O398   O     0.22679   0.79375   0.25000   0.00000  Uiso   1.00
O399   O     0.22679   0.87291   0.25000   0.00000  Uiso   1.00
O400   O     0.10655   0.79375   0.24999   0.00000  Uiso   1.00
C401   C     0.08756   0.83351   0.25280   0.00000  Uiso   1.00
C402   C     0.24575   0.83309   0.24690   0.00000  Uiso   1.00
O403   O     0.16666   0.87293   0.18513   0.00000  Uiso   1.00
O404   O     0.16668   0.79373   0.31487   0.00000  Uiso   1.00
O405   O     0.16668   0.87293   0.31487   0.00000  Uiso   1.00
O406   O     0.16666   0.79373   0.18513   0.00000  Uiso   1.00
C407   C     0.16769   0.83336   0.16471   0.00000  Uiso   1.00
C408   C     0.16569   0.83328   0.33532   0.00000  Uiso   1.00
Cu409  Cu    0.16667   0.88022   0.25000   0.00000  Uiso   1.00
Cu410  Cu    0.16667   0.78645   0.25000   0.00000  Uiso   1.00
C411   C     0.20147   0.82538   0.40750   0.00000  Uiso   1.00
C412   C     0.13160   0.83457   0.09244   0.00000  Uiso   1.00
C413   C     0.16497   0.83270   0.38367   0.00000  Uiso   1.00
C414   C     0.16852   0.83276   0.11642   0.00000  Uiso   1.00
C415   C     0.12841   0.83718   0.40587   0.00000  Uiso   1.00
C416   C     0.20526   0.82720   0.09471   0.00000  Uiso   1.00
C417   C     0.12863   0.83084   0.45247   0.00000  Uiso   1.00
C418   C     0.20452   0.82159   0.04797   0.00000  Uiso   1.00
C419   C     0.16612   0.82749   0.47675   0.00000  Uiso   1.00
C420   C     0.16701   0.82694   0.02363   0.00000  Uiso   1.00
C421   C     0.20258   0.82327   0.45410   0.00000  Uiso   1.00
C422   C     0.13019   0.83082   0.04606   0.00000  Uiso   1.00
C423   C     0.09261   0.82417   0.47521   0.00000  Uiso   1.00
C424   C     0.23946   0.80914   0.02464   0.00000  Uiso   1.00
C425   C     0.09279   0.82800   0.02173   0.00000  Uiso   1.00
C426   C     0.23900   0.81340   0.47814   0.00000  Uiso   1.00
H427   H     0.22896   0.82151   0.38915   0.00000  Uiso   1.00
H428   H     0.10409   0.83898   0.11062   0.00000  Uiso   1.00
C429   C     0.02142   0.79192   0.25829   0.00000  Uiso   1.00
C430   C     0.31197   0.87422   0.24135   0.00000  Uiso   1.00
C431   C     0.31306   0.79092   0.24777   0.00000  Uiso   1.00
C432   C     0.02025   0.87519   0.25220   0.00000  Uiso   1.00
C433   C     0.29063   0.83252   0.24371   0.00000  Uiso   1.00
C434   C     0.04269   0.83372   0.25585   0.00000  Uiso   1.00
C435   C     0.14161   0.69165   0.22070   0.00000  Uiso   1.00
C436   C     0.19174   0.97500   0.27929   0.00000  Uiso   1.00
C437   C     0.19149   0.69097   0.27954   0.00000  Uiso   1.00
C438   C     0.14173   0.97568   0.22058   0.00000  Uiso   1.00
N439   N     0.16667   0.95069   0.25000   0.00000  Uiso   1.00
N440   N     0.16667   0.71598   0.25000   0.00000  Uiso   1.00
N441   N     0.09220   0.85235   0.38188   0.00000  Uiso   1.00
O442   O     0.07781   0.82880   0.34827   0.00000  Uiso   1.00
O443   O     0.07168   0.88752   0.39593   0.00000  Uiso   1.00
N444   N     0.24288   0.83312   0.11952   0.00000  Uiso   1.00
O445   O     0.25293   0.80532   0.15214   0.00000  Uiso   1.00
O446   O     0.26762   0.86570   0.10880   0.00000  Uiso   1.00
I447   I     0.04514   0.78514   0.44408   0.00000  Uiso   1.00
I448   I     0.28814   0.76938   0.05476   0.00000  Uiso   1.00
N449   N     0.05520   0.82512   0.04404   0.00000  Uiso   1.00
O450   O     0.02486   0.85196   0.03199   0.00000  Uiso   1.00
O451   O     0.05031   0.79364   0.07426   0.00000  Uiso   1.00
N452   N     0.27537   0.80559   0.45500   0.00000  Uiso   1.00
O453   O     0.29498   0.84108   0.44069   0.00000  Uiso   1.00
O454   O     0.28135   0.76545   0.43720   0.00000  Uiso   1.00
I455   I     0.04751   0.73313   0.29224   0.00000  Uiso   1.00
I456   I     0.28631   0.93267   0.20687   0.00000  Uiso   1.00
I457   I     0.28978   0.72712   0.22310   0.00000  Uiso   1.00
I458   I     0.04316   0.93781   0.27977   0.00000  Uiso   1.00
I459   I     0.10040   0.72658   0.17412   0.00000  Uiso   1.00
I460   I     0.23311   0.94002   0.32567   0.00000  Uiso   1.00
I461   I     0.23082   0.72471   0.32808   0.00000  Uiso   1.00
I462   I     0.10189   0.94179   0.17263   0.00000  Uiso   1.00
O463   O     0.43988   0.87291   0.24999   0.00000  Uiso   1.00
O464   O     0.56012   0.79375   0.25000   0.00000  Uiso   1.00
O465   O     0.56012   0.87291   0.25000   0.00000  Uiso   1.00
O466   O     0.43988   0.79375   0.24999   0.00000  Uiso   1.00
C467   C     0.42089   0.83351   0.25280   0.00000  Uiso   1.00
C468   C     0.57909   0.83309   0.24690   0.00000  Uiso   1.00
O469   O     0.49999   0.87293   0.18513   0.00000  Uiso   1.00
O470   O     0.50001   0.79373   0.31487   0.00000  Uiso   1.00
O471   O     0.50001   0.87293   0.31487   0.00000  Uiso   1.00
O472   O     0.49999   0.79373   0.18513   0.00000  Uiso   1.00
C473   C     0.50102   0.83336   0.16471   0.00000  Uiso   1.00
C474   C     0.49902   0.83328   0.33532   0.00000  Uiso   1.00
Cu475  Cu    0.50000   0.88022   0.25000   0.00000  Uiso   1.00
Cu476  Cu    0.50000   0.78645   0.25000   0.00000  Uiso   1.00
C477   C     0.53481   0.82538   0.40750   0.00000  Uiso   1.00
C478   C     0.46493   0.83457   0.09244   0.00000  Uiso   1.00
C479   C     0.49830   0.83270   0.38367   0.00000  Uiso   1.00
C480   C     0.50185   0.83276   0.11642   0.00000  Uiso   1.00
C481   C     0.46174   0.83718   0.40587   0.00000  Uiso   1.00
C482   C     0.53860   0.82720   0.09471   0.00000  Uiso   1.00
C483   C     0.46197   0.83084   0.45247   0.00000  Uiso   1.00
C484   C     0.53785   0.82159   0.04797   0.00000  Uiso   1.00
C485   C     0.49945   0.82749   0.47675   0.00000  Uiso   1.00
C486   C     0.50034   0.82694   0.02363   0.00000  Uiso   1.00
C487   C     0.53592   0.82327   0.45410   0.00000  Uiso   1.00
C488   C     0.46352   0.83082   0.04606   0.00000  Uiso   1.00
C489   C     0.42595   0.82417   0.47521   0.00000  Uiso   1.00
C490   C     0.57280   0.80914   0.02464   0.00000  Uiso   1.00
C491   C     0.42612   0.82800   0.02173   0.00000  Uiso   1.00
C492   C     0.57234   0.81340   0.47814   0.00000  Uiso   1.00
H493   H     0.56229   0.82151   0.38915   0.00000  Uiso   1.00
H494   H     0.43743   0.83898   0.11062   0.00000  Uiso   1.00
C495   C     0.35476   0.79192   0.25829   0.00000  Uiso   1.00
C496   C     0.64531   0.87422   0.24135   0.00000  Uiso   1.00
C497   C     0.64639   0.79092   0.24777   0.00000  Uiso   1.00
C498   C     0.35358   0.87519   0.25220   0.00000  Uiso   1.00
C499   C     0.62396   0.83252   0.24371   0.00000  Uiso   1.00
C500   C     0.37602   0.83372   0.25585   0.00000  Uiso   1.00
C501   C     0.47494   0.69165   0.22070   0.00000  Uiso   1.00
C502   C     0.52507   0.97500   0.27929   0.00000  Uiso   1.00
C503   C     0.52482   0.69097   0.27954   0.00000  Uiso   1.00
C504   C     0.47506   0.97568   0.22058   0.00000  Uiso   1.00
N505   N     0.50000   0.95069   0.25000   0.00000  Uiso   1.00
N506   N     0.50000   0.71598   0.25000   0.00000  Uiso   1.00
N507   N     0.42553   0.85235   0.38188   0.00000  Uiso   1.00
O508   O     0.41115   0.82880   0.34827   0.00000  Uiso   1.00
O509   O     0.40501   0.88752   0.39593   0.00000  Uiso   1.00
N510   N     0.57621   0.83312   0.11952   0.00000  Uiso   1.00
O511   O     0.58627   0.80532   0.15214   0.00000  Uiso   1.00
O512   O     0.60096   0.86570   0.10880   0.00000  Uiso   1.00
I513   I     0.37848   0.78514   0.44408   0.00000  Uiso   1.00
I514   I     0.62148   0.76938   0.05476   0.00000  Uiso   1.00
N515   N     0.38853   0.82512   0.04404   0.00000  Uiso   1.00
O516   O     0.35819   0.85196   0.03199   0.00000  Uiso   1.00
O517   O     0.38365   0.79364   0.07426   0.00000  Uiso   1.00
N518   N     0.60870   0.80559   0.45500   0.00000  Uiso   1.00
O519   O     0.62831   0.84108   0.44069   0.00000  Uiso   1.00
O520   O     0.61468   0.76545   0.43720   0.00000  Uiso   1.00
I521   I     0.38084   0.73313   0.29224   0.00000  Uiso   1.00
I522   I     0.61965   0.93267   0.20687   0.00000  Uiso   1.00
I523   I     0.62311   0.72712   0.22310   0.00000  Uiso   1.00
I524   I     0.37649   0.93781   0.27977   0.00000  Uiso   1.00
I525   I     0.43373   0.72658   0.17412   0.00000  Uiso   1.00
I526   I     0.56644   0.94002   0.32567   0.00000  Uiso   1.00
I527   I     0.56415   0.72471   0.32808   0.00000  Uiso   1.00
I528   I     0.43522   0.94179   0.17263   0.00000  Uiso   1.00
O529   O     0.77321   0.87291   0.24999   0.00000  Uiso   1.00
O530   O     0.89345   0.79375   0.25000   0.00000  Uiso   1.00
O531   O     0.89345   0.87291   0.25000   0.00000  Uiso   1.00
O532   O     0.77321   0.79375   0.24999   0.00000  Uiso   1.00
C533   C     0.75422   0.83351   0.25280   0.00000  Uiso   1.00
C534   C     0.91242   0.83309   0.24690   0.00000  Uiso   1.00
O535   O     0.83332   0.87293   0.18513   0.00000  Uiso   1.00
O536   O     0.83334   0.79373   0.31487   0.00000  Uiso   1.00
O537   O     0.83334   0.87293   0.31487   0.00000  Uiso   1.00
O538   O     0.83332   0.79373   0.18513   0.00000  Uiso   1.00
C539   C     0.83435   0.83336   0.16471   0.00000  Uiso   1.00
C540   C     0.83235   0.83328   0.33532   0.00000  Uiso   1.00
Cu541  Cu    0.83333   0.88022   0.25000   0.00000  Uiso   1.00
Cu542  Cu    0.83333   0.78645   0.25000   0.00000  Uiso   1.00
C543   C     0.86814   0.82538   0.40750   0.00000  Uiso   1.00
C544   C     0.79826   0.83457   0.09244   0.00000  Uiso   1.00
C545   C     0.83163   0.83270   0.38367   0.00000  Uiso   1.00
C546   C     0.83519   0.83276   0.11642   0.00000  Uiso   1.00
C547   C     0.79508   0.83718   0.40587   0.00000  Uiso   1.00
C548   C     0.87193   0.82720   0.09471   0.00000  Uiso   1.00
C549   C     0.79530   0.83084   0.45247   0.00000  Uiso   1.00
C550   C     0.87118   0.82159   0.04797   0.00000  Uiso   1.00
C551   C     0.83279   0.82749   0.47675   0.00000  Uiso   1.00
C552   C     0.83367   0.82694   0.02363   0.00000  Uiso   1.00
C553   C     0.86925   0.82327   0.45410   0.00000  Uiso   1.00
C554   C     0.79686   0.83082   0.04606   0.00000  Uiso   1.00
C555   C     0.75928   0.82417   0.47521   0.00000  Uiso   1.00
C556   C     0.90613   0.80914   0.02464   0.00000  Uiso   1.00
C557   C     0.75946   0.82800   0.02173   0.00000  Uiso   1.00
C558   C     0.90567   0.81340   0.47814   0.00000  Uiso   1.00
H559   H     0.89563   0.82151   0.38915   0.00000  Uiso   1.00
H560   H     0.77076   0.83898   0.11062   0.00000  Uiso   1.00
C561   C     0.68809   0.79192   0.25829   0.00000  Uiso   1.00
C562   C     0.97864   0.87422   0.24135   0.00000  Uiso   1.00
C563   C     0.97972   0.79092   0.24777   0.00000  Uiso   1.00
C564   C     0.68692   0.87519   0.25220   0.00000  Uiso   1.00
C565   C     0.95730   0.83252   0.24371   0.00000  Uiso   1.00
C566   C     0.70935   0.83372   0.25585   0.00000  Uiso   1.00
C567   C     0.80828   0.69165   0.22070   0.00000  Uiso   1.00
C568   C     0.85840   0.97500   0.27929   0.00000  Uiso   1.00
C569   C     0.85815   0.69097   0.27954   0.00000  Uiso   1.00
C570   C     0.80839   0.97568   0.22058   0.00000  Uiso   1.00
N571   N     0.83333   0.95069   0.25000   0.00000  Uiso   1.00
N572   N     0.83333   0.71598   0.25000   0.00000  Uiso   1.00
N573   N     0.75887   0.85235   0.38188   0.00000  Uiso   1.00
O574   O     0.74448   0.82880   0.34827   0.00000  Uiso   1.00
O575   O     0.73835   0.88752   0.39593   0.00000  Uiso   1.00
N576   N     0.90955   0.83312   0.11952   0.00000  Uiso   1.00
O577   O     0.91960   0.80532   0.15214   0.00000  Uiso   1.00
O578   O     0.93429   0.86570   0.10880   0.00000  Uiso   1.00
I579   I     0.71181   0.78514   0.44408   0.00000  Uiso   1.00
I580   I     0.95481   0.76938   0.05476   0.00000  Uiso   1.00
N581   N     0.72186   0.82512   0.04404   0.00000  Uiso   1.00
O582   O     0.69153   0.85196   0.03199   0.00000  Uiso   1.00
O583   O     0.71698   0.79364   0.07426   0.00000  Uiso   1.00
N584   N     0.94204   0.80559   0.45500   0.00000  Uiso   1.00
O585   O     0.96164   0.84108   0.44069   0.00000  Uiso   1.00
O586   O     0.94802   0.76545   0.43720   0.00000  Uiso   1.00
I587   I     0.71418   0.73313   0.29224   0.00000  Uiso   1.00
I588   I     0.95298   0.93267   0.20687   0.00000  Uiso   1.00
I589   I     0.95645   0.72712   0.22310   0.00000  Uiso   1.00
I590   I     0.70982   0.93781   0.27977   0.00000  Uiso   1.00
I591   I     0.76707   0.72658   0.17412   0.00000  Uiso   1.00
I592   I     0.89978   0.94002   0.32567   0.00000  Uiso   1.00
I593   I     0.89748   0.72471   0.32808   0.00000  Uiso   1.00
I594   I     0.76856   0.94179   0.17263   0.00000  Uiso   1.00
O595   O     0.10655   0.20625   0.74999   0.00000  Uiso   1.00
O596   O     0.22679   0.12709   0.75000   0.00000  Uiso   1.00
O597   O     0.22679   0.20625   0.75000   0.00000  Uiso   1.00
O598   O     0.10655   0.12709   0.74999   0.00000  Uiso   1.00
C599   C     0.08756   0.16684   0.75280   0.00000  Uiso   1.00
C600   C     0.24575   0.16642   0.74690   0.00000  Uiso   1.00
O601   O     0.16666   0.20627   0.68513   0.00000  Uiso   1.00
O602   O     0.16668   0.12707   0.81487   0.00000  Uiso   1.00
O603   O     0.16668   0.20627   0.81487   0.00000  Uiso   1.00
O604   O     0.16666   0.12707   0.68513   0.00000  Uiso   1.00
C605   C     0.16769   0.16669   0.66471   0.00000  Uiso   1.00
C606   C     0.16569   0.16661   0.83532   0.00000  Uiso   1.00
Cu607  Cu    0.16667   0.21355   0.75000   0.00000  Uiso   1.00
Cu608  Cu    0.16667   0.11978   0.75000   0.00000  Uiso   1.00
C609   C     0.20147   0.15872   0.90750   0.00000  Uiso   1.00
C610   C     0.13160   0.16790   0.59244   0.00000  Uiso   1.00
C611   C     0.16497   0.16603   0.88367   0.00000  Uiso   1.00
C612   C     0.16852   0.16609   0.61642   0.00000  Uiso   1.00
C613   C     0.12841   0.17052   0.90587   0.00000  Uiso   1.00
C614   C     0.20526   0.16054   0.59471   0.00000  Uiso   1.00
C615   C     0.12863   0.16417   0.95247   0.00000  Uiso   1.00
C616   C     0.20452   0.15493   0.54797   0.00000  Uiso   1.00
C617   C     0.16612   0.16082   0.97675   0.00000  Uiso   1.00
C618   C     0.16701   0.16027   0.52363   0.00000  Uiso   1.00
C619   C     0.20258   0.15661   0.95410   0.00000  Uiso   1.00
C620   C     0.13019   0.16415   0.54606   0.00000  Uiso   1.00
C621   C     0.09261   0.15751   0.97521   0.00000  Uiso   1.00
C622   C     0.23946   0.14247   0.52464   0.00000  Uiso   1.00
C623   C     0.09279   0.16134   0.52173   0.00000  Uiso   1.00
C624   C     0.23900   0.14673   0.97814   0.00000  Uiso   1.00
H625   H     0.22896   0.15484   0.88915   0.00000  Uiso   1.00
H626   H     0.10409   0.17231   0.61062   0.00000  Uiso   1.00
C627   C     0.02142   0.12525   0.75829   0.00000  Uiso   1.00
C628   C     0.31197   0.20755   0.74135   0.00000  Uiso   1.00
C629   C     0.31306   0.12425   0.74777   0.00000  Uiso   1.00
C630   C     0.02025   0.20852   0.75220   0.00000  Uiso   1.00
C631   C     0.29063   0.16585   0.74371   0.00000  Uiso   1.00
C632   C     0.04269   0.16705   0.75585   0.00000  Uiso   1.00
C633   C     0.14161   0.02499   0.72070   0.00000  Uiso   1.00
C634   C     0.19174   0.30833   0.77929   0.00000  Uiso   1.00
C635   C     0.19149   0.02430   0.77954   0.00000  Uiso   1.00
C636   C     0.14173   0.30901   0.72058   0.00000  Uiso   1.00
N637   N     0.16667   0.28402   0.75000   0.00000  Uiso   1.00
N638   N     0.16667   0.04931   0.75000   0.00000  Uiso   1.00
N639   N     0.09220   0.18568   0.88188   0.00000  Uiso   1.00
O640   O     0.07781   0.16213   0.84827   0.00000  Uiso   1.00
O641   O     0.07168   0.22086   0.89593   0.00000  Uiso   1.00
N642   N     0.24288   0.16646   0.61952   0.00000  Uiso   1.00
O643   O     0.25293   0.13866   0.65214   0.00000  Uiso   1.00
O644   O     0.26762   0.19903   0.60880   0.00000  Uiso   1.00
I645   I     0.04514   0.11848   0.94408   0.00000  Uiso   1.00
I646   I     0.28814   0.10271   0.55476   0.00000  Uiso   1.00
N647   N     0.05520   0.15846   0.54404   0.00000  Uiso   1.00
O648   O     0.02486   0.18529   0.53199   0.00000  Uiso   1.00
O649   O     0.05031   0.12698   0.57426   0.00000  Uiso   1.00
N650   N     0.27537   0.13893   0.95500   0.00000  Uiso   1.00
O651   O     0.29498   0.17441   0.94069   0.00000  Uiso   1.00
O652   O     0.28135   0.09879   0.93720   0.00000  Uiso   1.00
I653   I     0.04751   0.06646   0.79224   0.00000  Uiso   1.00
I654   I     0.28631   0.26601   0.70687   0.00000  Uiso   1.00
I655   I     0.28978   0.06045   0.72310   0.00000  Uiso   1.00
I656   I     0.04316   0.27114   0.77977   0.00000  Uiso   1.00
I657   I     0.10040   0.05991   0.67412   0.00000  Uiso   1.00
I658   I     0.23311   0.27335   0.82567   0.00000  Uiso   1.00
I659   I     0.23082   0.05805   0.82808   0.00000  Uiso   1.00
I660   I     0.10189   0.27513   0.67263   0.00000  Uiso   1.00
O661   O     0.43988   0.20625   0.74999   0.00000  Uiso   1.00
O662   O     0.56012   0.12709   0.75000   0.00000  Uiso   1.00
O663   O     0.56012   0.20625   0.75000   0.00000  Uiso   1.00
O664   O     0.43988   0.12709   0.74999   0.00000  Uiso   1.00
C665   C     0.42089   0.16684   0.75280   0.00000  Uiso   1.00
C666   C     0.57909   0.16642   0.74690   0.00000  Uiso   1.00
O667   O     0.49999   0.20627   0.68513   0.00000  Uiso   1.00
O668   O     0.50001   0.12707   0.81487   0.00000  Uiso   1.00
O669   O     0.50001   0.20627   0.81487   0.00000  Uiso   1.00
O670   O     0.49999   0.12707   0.68513   0.00000  Uiso   1.00
C671   C     0.50102   0.16669   0.66471   0.00000  Uiso   1.00
C672   C     0.49902   0.16661   0.83532   0.00000  Uiso   1.00
Cu673  Cu    0.50000   0.21355   0.75000   0.00000  Uiso   1.00
Cu674  Cu    0.50000   0.11978   0.75000   0.00000  Uiso   1.00
C675   C     0.53481   0.15872   0.90750   0.00000  Uiso   1.00
C676   C     0.46493   0.16790   0.59244   0.00000  Uiso   1.00
C677   C     0.49830   0.16603   0.88367   0.00000  Uiso   1.00
C678   C     0.50185   0.16609   0.61642   0.00000  Uiso   1.00
C679   C     0.46174   0.17052   0.90587   0.00000  Uiso   1.00
C680   C     0.53860   0.16054   0.59471   0.00000  Uiso   1.00
C681   C     0.46197   0.16417   0.95247   0.00000  Uiso   1.00
C682   C     0.53785   0.15493   0.54797   0.00000  Uiso   1.00
C683   C     0.49945   0.16082   0.97675   0.00000  Uiso   1.00
C684   C     0.50034   0.16027   0.52363   0.00000  Uiso   1.00
C685   C     0.53592   0.15661   0.95410   0.00000  Uiso   1.00
C686   C     0.46352   0.16415   0.54606   0.00000  Uiso   1.00
C687   C     0.42595   0.15751   0.97521   0.00000  Uiso   1.00
C688   C     0.57280   0.14247   0.52464   0.00000  Uiso   1.00
C689   C     0.42612   0.16134   0.52173   0.00000  Uiso   1.00
C690   C     0.57234   0.14673   0.97814   0.00000  Uiso   1.00
H691   H     0.56229   0.15484   0.88915   0.00000  Uiso   1.00
H692   H     0.43743   0.17231   0.61062   0.00000  Uiso   1.00
C693   C     0.35476   0.12525   0.75829   0.00000  Uiso   1.00
C694   C     0.64531   0.20755   0.74135   0.00000  Uiso   1.00
C695   C     0.64639   0.12425   0.74777   0.00000  Uiso   1.00
C696   C     0.35358   0.20852   0.75220   0.00000  Uiso   1.00
C697   C     0.62396   0.16585   0.74371   0.00000  Uiso   1.00
C698   C     0.37602   0.16705   0.75585   0.00000  Uiso   1.00
C699   C     0.47494   0.02499   0.72070   0.00000  Uiso   1.00
C700   C     0.52507   0.30833   0.77929   0.00000  Uiso   1.00
C701   C     0.52482   0.02430   0.77954   0.00000  Uiso   1.00
C702   C     0.47506   0.30901   0.72058   0.00000  Uiso   1.00
N703   N     0.50000   0.28402   0.75000   0.00000  Uiso   1.00
N704   N     0.50000   0.04931   0.75000   0.00000  Uiso   1.00
N705   N     0.42553   0.18568   0.88188   0.00000  Uiso   1.00
O706   O     0.41115   0.16213   0.84827   0.00000  Uiso   1.00
O707   O     0.40501   0.22086   0.89593   0.00000  Uiso   1.00
N708   N     0.57621   0.16646   0.61952   0.00000  Uiso   1.00
O709   O     0.58627   0.13866   0.65214   0.00000  Uiso   1.00
O710   O     0.60096   0.19903   0.60880   0.00000  Uiso   1.00
I711   I     0.37848   0.11848   0.94408   0.00000  Uiso   1.00
I712   I     0.62148   0.10271   0.55476   0.00000  Uiso   1.00
N713   N     0.38853   0.15846   0.54404   0.00000  Uiso   1.00
O714   O     0.35819   0.18529   0.53199   0.00000  Uiso   1.00
O715   O     0.38365   0.12698   0.57426   0.00000  Uiso   1.00
N716   N     0.60870   0.13893   0.95500   0.00000  Uiso   1.00
O717   O     0.62831   0.17441   0.94069   0.00000  Uiso   1.00
O718   O     0.61468   0.09879   0.93720   0.00000  Uiso   1.00
I719   I     0.38084   0.06646   0.79224   0.00000  Uiso   1.00
I720   I     0.61965   0.26601   0.70687   0.00000  Uiso   1.00
I721   I     0.62311   0.06045   0.72310   0.00000  Uiso   1.00
I722   I     0.37649   0.27114   0.77977   0.00000  Uiso   1.00
I723   I     0.43373   0.05991   0.67412   0.00000  Uiso   1.00
I724   I     0.56644   0.27335   0.82567   0.00000  Uiso   1.00
I725   I     0.56415   0.05805   0.82808   0.00000  Uiso   1.00
I726   I     0.43522   0.27513   0.67263   0.00000  Uiso   1.00
O727   O     0.77321   0.20625   0.74999   0.00000  Uiso   1.00
O728   O     0.89345   0.12709   0.75000   0.00000  Uiso   1.00
O729   O     0.89345   0.20625   0.75000   0.00000  Uiso   1.00
O730   O     0.77321   0.12709   0.74999   0.00000  Uiso   1.00
C731   C     0.75422   0.16684   0.75280   0.00000  Uiso   1.00
C732   C     0.91242   0.16642   0.74690   0.00000  Uiso   1.00
O733   O     0.83332   0.20627   0.68513   0.00000  Uiso   1.00
O734   O     0.83334   0.12707   0.81487   0.00000  Uiso   1.00
O735   O     0.83334   0.20627   0.81487   0.00000  Uiso   1.00
O736   O     0.83332   0.12707   0.68513   0.00000  Uiso   1.00
C737   C     0.83435   0.16669   0.66471   0.00000  Uiso   1.00
C738   C     0.83235   0.16661   0.83532   0.00000  Uiso   1.00
Cu739  Cu    0.83333   0.21355   0.75000   0.00000  Uiso   1.00
Cu740  Cu    0.83333   0.11978   0.75000   0.00000  Uiso   1.00
C741   C     0.86814   0.15872   0.90750   0.00000  Uiso   1.00
C742   C     0.79826   0.16790   0.59244   0.00000  Uiso   1.00
C743   C     0.83163   0.16603   0.88367   0.00000  Uiso   1.00
C744   C     0.83519   0.16609   0.61642   0.00000  Uiso   1.00
C745   C     0.79508   0.17052   0.90587   0.00000  Uiso   1.00
C746   C     0.87193   0.16054   0.59471   0.00000  Uiso   1.00
C747   C     0.79530   0.16417   0.95247   0.00000  Uiso   1.00
C748   C     0.87118   0.15493   0.54797   0.00000  Uiso   1.00
C749   C     0.83279   0.16082   0.97675   0.00000  Uiso   1.00
C750   C     0.83367   0.16027   0.52363   0.00000  Uiso   1.00
C751   C     0.86925   0.15661   0.95410   0.00000  Uiso   1.00
C752   C     0.79686   0.16415   0.54606   0.00000  Uiso   1.00
C753   C     0.75928   0.15751   0.97521   0.00000  Uiso   1.00
C754   C     0.90613   0.14247   0.52464   0.00000  Uiso   1.00
C755   C     0.75946   0.16134   0.52173   0.00000  Uiso   1.00
C756   C     0.90567   0.14673   0.97814   0.00000  Uiso   1.00
H757   H     0.89563   0.15484   0.88915   0.00000  Uiso   1.00
H758   H     0.77076   0.17231   0.61062   0.00000  Uiso   1.00
C759   C     0.68809   0.12525   0.75829   0.00000  Uiso   1.00
C760   C     0.97864   0.20755   0.74135   0.00000  Uiso   1.00
C761   C     0.97972   0.12425   0.74777   0.00000  Uiso   1.00
C762   C     0.68692   0.20852   0.75220   0.00000  Uiso   1.00
C763   C     0.95730   0.16585   0.74371   0.00000  Uiso   1.00
C764   C     0.70935   0.16705   0.75585   0.00000  Uiso   1.00
C765   C     0.80828   0.02499   0.72070   0.00000  Uiso   1.00
C766   C     0.85840   0.30833   0.77929   0.00000  Uiso   1.00
C767   C     0.85815   0.02430   0.77954   0.00000  Uiso   1.00
C768   C     0.80839   0.30901   0.72058   0.00000  Uiso   1.00
N769   N     0.83333   0.28402   0.75000   0.00000  Uiso   1.00
N770   N     0.83333   0.04931   0.75000   0.00000  Uiso   1.00
N771   N     0.75887   0.18568   0.88188   0.00000  Uiso   1.00
O772   O     0.74448   0.16213   0.84827   0.00000  Uiso   1.00
O773   O     0.73835   0.22086   0.89593   0.00000  Uiso   1.00
N774   N     0.90955   0.16646   0.61952   0.00000  Uiso   1.00
O775   O     0.91960   0.13866   0.65214   0.00000  Uiso   1.00
O776   O     0.93429   0.19903   0.60880   0.00000  Uiso   1.00
I777   I     0.71181   0.11848   0.94408   0.00000  Uiso   1.00
I778   I     0.95481   0.10271   0.55476   0.00000  Uiso   1.00
N779   N     0.72186   0.15846   0.54404   0.00000  Uiso   1.00
O780   O     0.69153   0.18529   0.53199   0.00000  Uiso   1.00
O781   O     0.71698   0.12698   0.57426   0.00000  Uiso   1.00
N782   N     0.94204   0.13893   0.95500   0.00000  Uiso   1.00
O783   O     0.96164   0.17441   0.94069   0.00000  Uiso   1.00
O784   O     0.94802   0.09879   0.93720   0.00000  Uiso   1.00
I785   I     0.71418   0.06646   0.79224   0.00000  Uiso   1.00
I786   I     0.95298   0.26601   0.70687   0.00000  Uiso   1.00
I787   I     0.95645   0.06045   0.72310   0.00000  Uiso   1.00
I788   I     0.70982   0.27114   0.77977   0.00000  Uiso   1.00
I789   I     0.76707   0.05991   0.67412   0.00000  Uiso   1.00
I790   I     0.89978   0.27335   0.82567   0.00000  Uiso   1.00
I791   I     0.89748   0.05805   0.82808   0.00000  Uiso   1.00
I792   I     0.76856   0.27513   0.67263   0.00000  Uiso   1.00
O793   O     0.10655   0.53958   0.74999   0.00000  Uiso   1.00
O794   O     0.22679   0.46042   0.75000   0.00000  Uiso   1.00
O795   O     0.22679   0.53958   0.75000   0.00000  Uiso   1.00
O796   O     0.10655   0.46042   0.74999   0.00000  Uiso   1.00
C797   C     0.08756   0.50017   0.75280   0.00000  Uiso   1.00
C798   C     0.24575   0.49976   0.74690   0.00000  Uiso   1.00
O799   O     0.16666   0.53960   0.68513   0.00000  Uiso   1.00
O800   O     0.16668   0.46040   0.81487   0.00000  Uiso   1.00
O801   O     0.16668   0.53960   0.81487   0.00000  Uiso   1.00
O802   O     0.16666   0.46040   0.68513   0.00000  Uiso   1.00
C803   C     0.16769   0.50002   0.66471   0.00000  Uiso   1.00
C804   C     0.16569   0.49995   0.83532   0.00000  Uiso   1.00
Cu805  Cu    0.16667   0.54689   0.75000   0.00000  Uiso   1.00
Cu806  Cu    0.16667   0.45311   0.75000   0.00000  Uiso   1.00
C807   C     0.20147   0.49205   0.90750   0.00000  Uiso   1.00
C808   C     0.13160   0.50123   0.59244   0.00000  Uiso   1.00
C809   C     0.16497   0.49937   0.88367   0.00000  Uiso   1.00
C810   C     0.16852   0.49942   0.61642   0.00000  Uiso   1.00
C811   C     0.12841   0.50385   0.90587   0.00000  Uiso   1.00
C812   C     0.20526   0.49387   0.59471   0.00000  Uiso   1.00
C813   C     0.12863   0.49750   0.95247   0.00000  Uiso   1.00
C814   C     0.20452   0.48826   0.54797   0.00000  Uiso   1.00
C815   C     0.16612   0.49416   0.97675   0.00000  Uiso   1.00
C816   C     0.16701   0.49360   0.52363   0.00000  Uiso   1.00
C817   C     0.20258   0.48994   0.95410   0.00000  Uiso   1.00
C818   C     0.13019   0.49749   0.54606   0.00000  Uiso   1.00
C819   C     0.09261   0.49084   0.97521   0.00000  Uiso   1.00
C820   C     0.23946   0.47581   0.52464   0.00000  Uiso   1.00
C821   C     0.09279   0.49467   0.52173   0.00000  Uiso   1.00
C822   C     0.23900   0.48007   0.97814   0.00000  Uiso   1.00
H823   H     0.22896   0.48817   0.88915   0.00000  Uiso   1.00
H824   H     0.10409   0.50565   0.61062   0.00000  Uiso   1.00
C825   C     0.02142   0.45858   0.75829   0.00000  Uiso   1.00
C826   C     0.31197   0.54088   0.74135   0.00000  Uiso   1.00
C827   C     0.31306   0.45759   0.74777   0.00000  Uiso   1.00
C828   C     0.02025   0.54186   0.75220   0.00000  Uiso   1.00
C829   C     0.29063   0.49918   0.74371   0.00000  Uiso   1.00
C830   C     0.04269   0.50038   0.75585   0.00000  Uiso   1.00
C831   C     0.14161   0.35832   0.72070   0.00000  Uiso   1.00
C832   C     0.19174   0.64166   0.77929   0.00000  Uiso   1.00
C833   C     0.19149   0.35764   0.77954   0.00000  Uiso   1.00
C834   C     0.14173   0.64234   0.72058   0.00000  Uiso   1.00
N835   N     0.16667   0.61736   0.75000   0.00000  Uiso   1.00
N836   N     0.16667   0.38264   0.75000   0.00000  Uiso   1.00
N837   N     0.09220   0.51902   0.88188   0.00000  Uiso   1.00
O838   O     0.07781   0.49546   0.84827   0.00000  Uiso   1.00
O839   O     0.07168   0.55419   0.89593   0.00000  Uiso   1.00
N840   N     0.24288   0.49979   0.61952   0.00000  Uiso   1.00
O841   O     0.25293   0.47199   0.65214   0.00000  Uiso   1.00
O842   O     0.26762   0.53237   0.60880   0.00000  Uiso   1.00
I843   I     0.04514   0.45181   0.94408   0.00000  Uiso   1.00
I844   I     0.28814   0.43605   0.55476   0.00000  Uiso   1.00
N845   N     0.05520   0.49179   0.54404   0.00000  Uiso   1.00
O846   O     0.02486   0.51863   0.53199   0.00000  Uiso   1.00
O847   O     0.05031   0.46031   0.57426   0.00000  Uiso   1.00
N848   N     0.27537   0.47226   0.95500   0.00000  Uiso   1.00
O849   O     0.29498   0.50774   0.94069   0.00000  Uiso   1.00
O850   O     0.28135   0.43212   0.93720   0.00000  Uiso   1.00
I851   I     0.04751   0.39979   0.79224   0.00000  Uiso   1.00
I852   I     0.28631   0.59934   0.70687   0.00000  Uiso   1.00
I853   I     0.28978   0.39379   0.72310   0.00000  Uiso   1.00
I854   I     0.04316   0.60447   0.77977   0.00000  Uiso   1.00
I855   I     0.10040   0.39324   0.67412   0.00000  Uiso   1.00
I856   I     0.23311   0.60669   0.82567   0.00000  Uiso   1.00
I857   I     0.23082   0.39138   0.82808   0.00000  Uiso   1.00
I858   I     0.10189   0.60846   0.67263   0.00000  Uiso   1.00
O859   O     0.43988   0.53958   0.74999   0.00000  Uiso   1.00
O860   O     0.56012   0.46042   0.75000   0.00000  Uiso   1.00
O861   O     0.56012   0.53958   0.75000   0.00000  Uiso   1.00
O862   O     0.43988   0.46042   0.74999   0.00000  Uiso   1.00
C863   C     0.42089   0.50017   0.75280   0.00000  Uiso   1.00
C864   C     0.57909   0.49976   0.74690   0.00000  Uiso   1.00
O865   O     0.49999   0.53960   0.68513   0.00000  Uiso   1.00
O866   O     0.50001   0.46040   0.81487   0.00000  Uiso   1.00
O867   O     0.50001   0.53960   0.81487   0.00000  Uiso   1.00
O868   O     0.49999   0.46040   0.68513   0.00000  Uiso   1.00
C869   C     0.50102   0.50002   0.66471   0.00000  Uiso   1.00
C870   C     0.49902   0.49995   0.83532   0.00000  Uiso   1.00
Cu871  Cu    0.50000   0.54689   0.75000   0.00000  Uiso   1.00
Cu872  Cu    0.50000   0.45311   0.75000   0.00000  Uiso   1.00
C873   C     0.53481   0.49205   0.90750   0.00000  Uiso   1.00
C874   C     0.46493   0.50123   0.59244   0.00000  Uiso   1.00
C875   C     0.49830   0.49937   0.88367   0.00000  Uiso   1.00
C876   C     0.50185   0.49942   0.61642   0.00000  Uiso   1.00
C877   C     0.46174   0.50385   0.90587   0.00000  Uiso   1.00
C878   C     0.53860   0.49387   0.59471   0.00000  Uiso   1.00
C879   C     0.46197   0.49750   0.95247   0.00000  Uiso   1.00
C880   C     0.53785   0.48826   0.54797   0.00000  Uiso   1.00
C881   C     0.49945   0.49416   0.97675   0.00000  Uiso   1.00
C882   C     0.50034   0.49360   0.52363   0.00000  Uiso   1.00
C883   C     0.53592   0.48994   0.95410   0.00000  Uiso   1.00
C884   C     0.46352   0.49749   0.54606   0.00000  Uiso   1.00
C885   C     0.42595   0.49084   0.97521   0.00000  Uiso   1.00
C886   C     0.57280   0.47581   0.52464   0.00000  Uiso   1.00
C887   C     0.42612   0.49467   0.52173   0.00000  Uiso   1.00
C888   C     0.57234   0.48007   0.97814   0.00000  Uiso   1.00
H889   H     0.56229   0.48817   0.88915   0.00000  Uiso   1.00
H890   H     0.43743   0.50565   0.61062   0.00000  Uiso   1.00
C891   C     0.35476   0.45858   0.75829   0.00000  Uiso   1.00
C892   C     0.64531   0.54088   0.74135   0.00000  Uiso   1.00
C893   C     0.64639   0.45759   0.74777   0.00000  Uiso   1.00
C894   C     0.35358   0.54186   0.75220   0.00000  Uiso   1.00
C895   C     0.62396   0.49918   0.74371   0.00000  Uiso   1.00
C896   C     0.37602   0.50038   0.75585   0.00000  Uiso   1.00
C897   C     0.47494   0.35832   0.72070   0.00000  Uiso   1.00
C898   C     0.52507   0.64166   0.77929   0.00000  Uiso   1.00
C899   C     0.52482   0.35764   0.77954   0.00000  Uiso   1.00
C900   C     0.47506   0.64234   0.72058   0.00000  Uiso   1.00
N901   N     0.50000   0.61736   0.75000   0.00000  Uiso   1.00
N902   N     0.50000   0.38264   0.75000   0.00000  Uiso   1.00
N903   N     0.42553   0.51902   0.88188   0.00000  Uiso   1.00
O904   O     0.41115   0.49546   0.84827   0.00000  Uiso   1.00
O905   O     0.40501   0.55419   0.89593   0.00000  Uiso   1.00
N906   N     0.57621   0.49979   0.61952   0.00000  Uiso   1.00
O907   O     0.58627   0.47199   0.65214   0.00000  Uiso   1.00
O908   O     0.60096   0.53237   0.60880   0.00000  Uiso   1.00
I909   I     0.37848   0.45181   0.94408   0.00000  Uiso   1.00
I910   I     0.62148   0.43605   0.55476   0.00000  Uiso   1.00
N911   N     0.38853   0.49179   0.54404   0.00000  Uiso   1.00
O912   O     0.35819   0.51863   0.53199   0.00000  Uiso   1.00
O913   O     0.38365   0.46031   0.57426   0.00000  Uiso   1.00
N914   N     0.60870   0.47226   0.95500   0.00000  Uiso   1.00
O915   O     0.62831   0.50774   0.94069   0.00000  Uiso   1.00
O916   O     0.61468   0.43212   0.93720   0.00000  Uiso   1.00
I917   I     0.38084   0.39979   0.79224   0.00000  Uiso   1.00
I918   I     0.61965   0.59934   0.70687   0.00000  Uiso   1.00
I919   I     0.62311   0.39379   0.72310   0.00000  Uiso   1.00
I920   I     0.37649   0.60447   0.77977   0.00000  Uiso   1.00
I921   I     0.43373   0.39324   0.67412   0.00000  Uiso   1.00
I922   I     0.56644   0.60669   0.82567   0.00000  Uiso   1.00
I923   I     0.56415   0.39138   0.82808   0.00000  Uiso   1.00
I924   I     0.43522   0.60846   0.67263   0.00000  Uiso   1.00
O925   O     0.77321   0.53958   0.74999   0.00000  Uiso   1.00
O926   O     0.89345   0.46042   0.75000   0.00000  Uiso   1.00
O927   O     0.89345   0.53958   0.75000   0.00000  Uiso   1.00
O928   O     0.77321   0.46042   0.74999   0.00000  Uiso   1.00
C929   C     0.75422   0.50017   0.75280   0.00000  Uiso   1.00
C930   C     0.91242   0.49976   0.74690   0.00000  Uiso   1.00
O931   O     0.83332   0.53960   0.68513   0.00000  Uiso   1.00
O932   O     0.83334   0.46040   0.81487   0.00000  Uiso   1.00
O933   O     0.83334   0.53960   0.81487   0.00000  Uiso   1.00
O934   O     0.83332   0.46040   0.68513   0.00000  Uiso   1.00
C935   C     0.83435   0.50002   0.66471   0.00000  Uiso   1.00
C936   C     0.83235   0.49995   0.83532   0.00000  Uiso   1.00
Cu937  Cu    0.83333   0.54689   0.75000   0.00000  Uiso   1.00
Cu938  Cu    0.83333   0.45311   0.75000   0.00000  Uiso   1.00
C939   C     0.86814   0.49205   0.90750   0.00000  Uiso   1.00
C940   C     0.79826   0.50123   0.59244   0.00000  Uiso   1.00
C941   C     0.83163   0.49937   0.88367   0.00000  Uiso   1.00
C942   C     0.83519   0.49942   0.61642   0.00000  Uiso   1.00
C943   C     0.79508   0.50385   0.90587   0.00000  Uiso   1.00
C944   C     0.87193   0.49387   0.59471   0.00000  Uiso   1.00
C945   C     0.79530   0.49750   0.95247   0.00000  Uiso   1.00
C946   C     0.87118   0.48826   0.54797   0.00000  Uiso   1.00
C947   C     0.83279   0.49416   0.97675   0.00000  Uiso   1.00
C948   C     0.83367   0.49360   0.52363   0.00000  Uiso   1.00
C949   C     0.86925   0.48994   0.95410   0.00000  Uiso   1.00
C950   C     0.79686   0.49749   0.54606   0.00000  Uiso   1.00
C951   C     0.75928   0.49084   0.97521   0.00000  Uiso   1.00
C952   C     0.90613   0.47581   0.52464   0.00000  Uiso   1.00
C953   C     0.75946   0.49467   0.52173   0.00000  Uiso   1.00
C954   C     0.90567   0.48007   0.97814   0.00000  Uiso   1.00
H955   H     0.89563   0.48817   0.88915   0.00000  Uiso   1.00
H956   H     0.77076   0.50565   0.61062   0.00000  Uiso   1.00
C957   C     0.68809   0.45858   0.75829   0.00000  Uiso   1.00
C958   C     0.97864   0.54088   0.74135   0.00000  Uiso   1.00
C959   C     0.97972   0.45759   0.74777   0.00000  Uiso   1.00
C960   C     0.68692   0.54186   0.75220   0.00000  Uiso   1.00
C961   C     0.95730   0.49918   0.74371   0.00000  Uiso   1.00
C962   C     0.70935   0.50038   0.75585   0.00000  Uiso   1.00
C963   C     0.80828   0.35832   0.72070   0.00000  Uiso   1.00
C964   C     0.85840   0.64166   0.77929   0.00000  Uiso   1.00
C965   C     0.85815   0.35764   0.77954   0.00000  Uiso   1.00
C966   C     0.80839   0.64234   0.72058   0.00000  Uiso   1.00
N967   N     0.83333   0.61736   0.75000   0.00000  Uiso   1.00
N968   N     0.83333   0.38264   0.75000   0.00000  Uiso   1.00
N969   N     0.75887   0.51902   0.88188   0.00000  Uiso   1.00
O970   O     0.74448   0.49546   0.84827   0.00000  Uiso   1.00
O971   O     0.73835   0.55419   0.89593   0.00000  Uiso   1.00
N972   N     0.90955   0.49979   0.61952   0.00000  Uiso   1.00
O973   O     0.91960   0.47199   0.65214   0.00000  Uiso   1.00
O974   O     0.93429   0.53237   0.60880   0.00000  Uiso   1.00
I975   I     0.71181   0.45181   0.94408   0.00000  Uiso   1.00
I976   I     0.95481   0.43605   0.55476   0.00000  Uiso   1.00
N977   N     0.72186   0.49179   0.54404   0.00000  Uiso   1.00
O978   O     0.69153   0.51863   0.53199   0.00000  Uiso   1.00
O979   O     0.71698   0.46031   0.57426   0.00000  Uiso   1.00
N980   N     0.94204   0.47226   0.95500   0.00000  Uiso   1.00
O981   O     0.96164   0.50774   0.94069   0.00000  Uiso   1.00
O982   O     0.94802   0.43212   0.93720   0.00000  Uiso   1.00
I983   I     0.71418   0.39979   0.79224   0.00000  Uiso   1.00
I984   I     0.95298   0.59934   0.70687   0.00000  Uiso   1.00
I985   I     0.95645   0.39379   0.72310   0.00000  Uiso   1.00
I986   I     0.70982   0.60447   0.77977   0.00000  Uiso   1.00
I987   I     0.76707   0.39324   0.67412   0.00000  Uiso   1.00
I988   I     0.89978   0.60669   0.82567   0.00000  Uiso   1.00
I989   I     0.89748   0.39138   0.82808   0.00000  Uiso   1.00
I990   I     0.76856   0.60846   0.67263   0.00000  Uiso   1.00
O991   O     0.10655   0.87291   0.74999   0.00000  Uiso   1.00
O992   O     0.22679   0.79375   0.75000   0.00000  Uiso   1.00
O993   O     0.22679   0.87291   0.75000   0.00000  Uiso   1.00
O994   O     0.10655   0.79375   0.74999   0.00000  Uiso   1.00
C995   C     0.08756   0.83351   0.75280   0.00000  Uiso   1.00
C996   C     0.24575   0.83309   0.74690   0.00000  Uiso   1.00
O997   O     0.16666   0.87293   0.68513   0.00000  Uiso   1.00
O998   O     0.16668   0.79373   0.81487   0.00000  Uiso   1.00
O999   O     0.16668   0.87293   0.81487   0.00000  Uiso   1.00
O1000  O     0.16666   0.79373   0.68513   0.00000  Uiso   1.00
C1001  C     0.16769   0.83336   0.66471   0.00000  Uiso   1.00
C1002  C     0.16569   0.83328   0.83532   0.00000  Uiso   1.00
Cu1003 Cu    0.16667   0.88022   0.75000   0.00000  Uiso   1.00
Cu1004 Cu    0.16667   0.78645   0.75000   0.00000  Uiso   1.00
C1005  C     0.20147   0.82538   0.90750   0.00000  Uiso   1.00
C1006  C     0.13160   0.83457   0.59244   0.00000  Uiso   1.00
C1007  C     0.16497   0.83270   0.88367   0.00000  Uiso   1.00
C1008  C     0.16852   0.83276   0.61642   0.00000  Uiso   1.00
C1009  C     0.12841   0.83718   0.90587   0.00000  Uiso   1.00
C1010  C     0.20526   0.82720   0.59471   0.00000  Uiso   1.00
C1011  C     0.12863   0.83084   0.95247   0.00000  Uiso   1.00
C1012  C     0.20452   0.82159   0.54797   0.00000  Uiso   1.00
C1013  C     0.16612   0.82749   0.97675   0.00000  Uiso   1.00
C1014  C     0.16701   0.82694   0.52363   0.00000  Uiso   1.00
C1015  C     0.20258   0.82327   0.95410   0.00000  Uiso   1.00
C1016  C     0.13019   0.83082   0.54606   0.00000  Uiso   1.00
C1017  C     0.09261   0.82417   0.97521   0.00000  Uiso   1.00
C1018  C     0.23946   0.80914   0.52464   0.00000  Uiso   1.00
C1019  C     0.09279   0.82800   0.52173   0.00000  Uiso   1.00
C1020  C     0.23900   0.81340   0.97814   0.00000  Uiso   1.00
H1021  H     0.22896   0.82151   0.88915   0.00000  Uiso   1.00
H1022  H     0.10409   0.83898   0.61062   0.00000  Uiso   1.00
C1023  C     0.02142   0.79192   0.75829   0.00000  Uiso   1.00
C1024  C     0.31197   0.87422   0.74135   0.00000  Uiso   1.00
C1025  C     0.31306   0.79092   0.74777   0.00000  Uiso   1.00
C1026  C     0.02025   0.87519   0.75220   0.00000  Uiso   1.00
C1027  C     0.29063   0.83252   0.74371   0.00000  Uiso   1.00
C1028  C     0.04269   0.83372   0.75585   0.00000  Uiso   1.00
C1029  C     0.14161   0.69165   0.72070   0.00000  Uiso   1.00
C1030  C     0.19174   0.97500   0.77929   0.00000  Uiso   1.00
C1031  C     0.19149   0.69097   0.77954   0.00000  Uiso   1.00
C1032  C     0.14173   0.97568   0.72058   0.00000  Uiso   1.00
N1033  N     0.16667   0.95069   0.75000   0.00000  Uiso   1.00
N1034  N     0.16667   0.71598   0.75000   0.00000  Uiso   1.00
N1035  N     0.09220   0.85235   0.88188   0.00000  Uiso   1.00
O1036  O     0.07781   0.82880   0.84827   0.00000  Uiso   1.00
O1037  O     0.07168   0.88752   0.89593   0.00000  Uiso   1.00
N1038  N     0.24288   0.83312   0.61952   0.00000  Uiso   1.00
O1039  O     0.25293   0.80532   0.65214   0.00000  Uiso   1.00
O1040  O     0.26762   0.86570   0.60880   0.00000  Uiso   1.00
I1041  I     0.04514   0.78514   0.94408   0.00000  Uiso   1.00
I1042  I     0.28814   0.76938   0.55476   0.00000  Uiso   1.00
N1043  N     0.05520   0.82512   0.54404   0.00000  Uiso   1.00
O1044  O     0.02486   0.85196   0.53199   0.00000  Uiso   1.00
O1045  O     0.05031   0.79364   0.57426   0.00000  Uiso   1.00
N1046  N     0.27537   0.80559   0.95500   0.00000  Uiso   1.00
O1047  O     0.29498   0.84108   0.94069   0.00000  Uiso   1.00
O1048  O     0.28135   0.76545   0.93720   0.00000  Uiso   1.00
I1049  I     0.04751   0.73313   0.79224   0.00000  Uiso   1.00
I1050  I     0.28631   0.93267   0.70687   0.00000  Uiso   1.00
I1051  I     0.28978   0.72712   0.72310   0.00000  Uiso   1.00
I1052  I     0.04316   0.93781   0.77977   0.00000  Uiso   1.00
I1053  I     0.10040   0.72658   0.67412   0.00000  Uiso   1.00
I1054  I     0.23311   0.94002   0.82567   0.00000  Uiso   1.00
I1055  I     0.23082   0.72471   0.82808   0.00000  Uiso   1.00
I1056  I     0.10189   0.94179   0.67263   0.00000  Uiso   1.00
O1057  O     0.43988   0.87291   0.74999   0.00000  Uiso   1.00
O1058  O     0.56012   0.79375   0.75000   0.00000  Uiso   1.00
O1059  O     0.56012   0.87291   0.75000   0.00000  Uiso   1.00
O1060  O     0.43988   0.79375   0.74999   0.00000  Uiso   1.00
C1061  C     0.42089   0.83351   0.75280   0.00000  Uiso   1.00
C1062  C     0.57909   0.83309   0.74690   0.00000  Uiso   1.00
O1063  O     0.49999   0.87293   0.68513   0.00000  Uiso   1.00
O1064  O     0.50001   0.79373   0.81487   0.00000  Uiso   1.00
O1065  O     0.50001   0.87293   0.81487   0.00000  Uiso   1.00
O1066  O     0.49999   0.79373   0.68513   0.00000  Uiso   1.00
C1067  C     0.50102   0.83336   0.66471   0.00000  Uiso   1.00
C1068  C     0.49902   0.83328   0.83532   0.00000  Uiso   1.00
Cu1069 Cu    0.50000   0.88022   0.75000   0.00000  Uiso   1.00
Cu1070 Cu    0.50000   0.78645   0.75000   0.00000  Uiso   1.00
C1071  C     0.53481   0.82538   0.90750   0.00000  Uiso   1.00
C1072  C     0.46493   0.83457   0.59244   0.00000  Uiso   1.00
C1073  C     0.49830   0.83270   0.88367   0.00000  Uiso   1.00
C1074  C     0.50185   0.83276   0.61642   0.00000  Uiso   1.00
C1075  C     0.46174   0.83718   0.90587   0.00000  Uiso   1.00
C1076  C     0.53860   0.82720   0.59471   0.00000  Uiso   1.00
C1077  C     0.46197   0.83084   0.95247   0.00000  Uiso   1.00
C1078  C     0.53785   0.82159   0.54797   0.00000  Uiso   1.00
C1079  C     0.49945   0.82749   0.97675   0.00000  Uiso   1.00
C1080  C     0.50034   0.82694   0.52363   0.00000  Uiso   1.00
C1081  C     0.53592   0.82327   0.95410   0.00000  Uiso   1.00
C1082  C     0.46352   0.83082   0.54606   0.00000  Uiso   1.00
C1083  C     0.42595   0.82417   0.97521   0.00000  Uiso   1.00
C1084  C     0.57280   0.80914   0.52464   0.00000  Uiso   1.00
C1085  C     0.42612   0.82800   0.52173   0.00000  Uiso   1.00
C1086  C     0.57234   0.81340   0.97814   0.00000  Uiso   1.00
H1087  H     0.56229   0.82151   0.88915   0.00000  Uiso   1.00
H1088  H     0.43743   0.83898   0.61062   0.00000  Uiso   1.00
C1089  C     0.35476   0.79192   0.75829   0.00000  Uiso   1.00
C1090  C     0.64531   0.87422   0.74135   0.00000  Uiso   1.00
C1091  C     0.64639   0.79092   0.74777   0.00000  Uiso   1.00
C1092  C     0.35358   0.87519   0.75220   0.00000  Uiso   1.00
C1093  C     0.62396   0.83252   0.74371   0.00000  Uiso   1.00
C1094  C     0.37602   0.83372   0.75585   0.00000  Uiso   1.00
C1095  C     0.47494   0.69165   0.72070   0.00000  Uiso   1.00
C1096  C     0.52507   0.97500   0.77929   0.00000  Uiso   1.00
C1097  C     0.52482   0.69097   0.77954   0.00000  Uiso   1.00
C1098  C     0.47506   0.97568   0.72058   0.00000  Uiso   1.00
N1099  N     0.50000   0.95069   0.75000   0.00000  Uiso   1.00
N1100  N     0.50000   0.71598   0.75000   0.00000  Uiso   1.00
N1101  N     0.42553   0.85235   0.88188   0.00000  Uiso   1.00
O1102  O     0.41115   0.82880   0.84827   0.00000  Uiso   1.00
O1103  O     0.40501   0.88752   0.89593   0.00000  Uiso   1.00
N1104  N     0.57621   0.83312   0.61952   0.00000  Uiso   1.00
O1105  O     0.58627   0.80532   0.65214   0.00000  Uiso   1.00
O1106  O     0.60096   0.86570   0.60880   0.00000  Uiso   1.00
I1107  I     0.37848   0.78514   0.94408   0.00000  Uiso   1.00
I1108  I     0.62148   0.76938   0.55476   0.00000  Uiso   1.00
N1109  N     0.38853   0.82512   0.54404   0.00000  Uiso   1.00
O1110  O     0.35819   0.85196   0.53199   0.00000  Uiso   1.00
O1111  O     0.38365   0.79364   0.57426   0.00000  Uiso   1.00
N1112  N     0.60870   0.80559   0.95500   0.00000  Uiso   1.00
O1113  O     0.62831   0.84108   0.94069   0.00000  Uiso   1.00
O1114  O     0.61468   0.76545   0.93720   0.00000  Uiso   1.00
I1115  I     0.38084   0.73313   0.79224   0.00000  Uiso   1.00
I1116  I     0.61965   0.93267   0.70687   0.00000  Uiso   1.00
I1117  I     0.62311   0.72712   0.72310   0.00000  Uiso   1.00
I1118  I     0.37649   0.93781   0.77977   0.00000  Uiso   1.00
I1119  I     0.43373   0.72658   0.67412   0.00000  Uiso   1.00
I1120  I     0.56644   0.94002   0.82567   0.00000  Uiso   1.00
I1121  I     0.56415   0.72471   0.82808   0.00000  Uiso   1.00
I1122  I     0.43522   0.94179   0.67263   0.00000  Uiso   1.00
O1123  O     0.77321   0.87291   0.74999   0.00000  Uiso   1.00
O1124  O     0.89345   0.79375   0.75000   0.00000  Uiso   1.00
O1125  O     0.89345   0.87291   0.75000   0.00000  Uiso   1.00
O1126  O     0.77321   0.79375   0.74999   0.00000  Uiso   1.00
C1127  C     0.75422   0.83351   0.75280   0.00000  Uiso   1.00
C1128  C     0.91242   0.83309   0.74690   0.00000  Uiso   1.00
O1129  O     0.83332   0.87293   0.68513   0.00000  Uiso   1.00
O1130  O     0.83334   0.79373   0.81487   0.00000  Uiso   1.00
O1131  O     0.83334   0.87293   0.81487   0.00000  Uiso   1.00
O1132  O     0.83332   0.79373   0.68513   0.00000  Uiso   1.00
C1133  C     0.83435   0.83336   0.66471   0.00000  Uiso   1.00
C1134  C     0.83235   0.83328   0.83532   0.00000  Uiso   1.00
Cu1135 Cu    0.83333   0.88022   0.75000   0.00000  Uiso   1.00
Cu1136 Cu    0.83333   0.78645   0.75000   0.00000  Uiso   1.00
C1137  C     0.86814   0.82538   0.90750   0.00000  Uiso   1.00
C1138  C     0.79826   0.83457   0.59244   0.00000  Uiso   1.00
C1139  C     0.83163   0.83270   0.88367   0.00000  Uiso   1.00
C1140  C     0.83519   0.83276   0.61642   0.00000  Uiso   1.00
C1141  C     0.79508   0.83718   0.90587   0.00000  Uiso   1.00
C1142  C     0.87193   0.82720   0.59471   0.00000  Uiso   1.00
C1143  C     0.79530   0.83084   0.95247   0.00000  Uiso   1.00
C1144  C     0.87118   0.82159   0.54797   0.00000  Uiso   1.00
C1145  C     0.83279   0.82749   0.97675   0.00000  Uiso   1.00
C1146  C     0.83367   0.82694   0.52363   0.00000  Uiso   1.00
C1147  C     0.86925   0.82327   0.95410   0.00000  Uiso   1.00
C1148  C     0.79686   0.83082   0.54606   0.00000  Uiso   1.00
C1149  C     0.75928   0.82417   0.97521   0.00000  Uiso   1.00
C1150  C     0.90613   0.80914   0.52464   0.00000  Uiso   1.00
C1151  C     0.75946   0.82800   0.52173   0.00000  Uiso   1.00
C1152  C     0.90567   0.81340   0.97814   0.00000  Uiso   1.00
H1153  H     0.89563   0.82151   0.88915   0.00000  Uiso   1.00
H1154  H     0.77076   0.83898   0.61062   0.00000  Uiso   1.00
C1155  C     0.68809   0.79192   0.75829   0.00000  Uiso   1.00
C1156  C     0.97864   0.87422   0.74135   0.00000  Uiso   1.00
C1157  C     0.97972   0.79092   0.74777   0.00000  Uiso   1.00
C1158  C     0.68692   0.87519   0.75220   0.00000  Uiso   1.00
C1159  C     0.95730   0.83252   0.74371   0.00000  Uiso   1.00
C1160  C     0.70935   0.83372   0.75585   0.00000  Uiso   1.00
C1161  C     0.80828   0.69165   0.72070   0.00000  Uiso   1.00
C1162  C     0.85840   0.97500   0.77929   0.00000  Uiso   1.00
C1163  C     0.85815   0.69097   0.77954   0.00000  Uiso   1.00
C1164  C     0.80839   0.97568   0.72058   0.00000  Uiso   1.00
N1165  N     0.83333   0.95069   0.75000   0.00000  Uiso   1.00
N1166  N     0.83333   0.71598   0.75000   0.00000  Uiso   1.00
N1167  N     0.75887   0.85235   0.88188   0.00000  Uiso   1.00
O1168  O     0.74448   0.82880   0.84827   0.00000  Uiso   1.00
O1169  O     0.73835   0.88752   0.89593   0.00000  Uiso   1.00
N1170  N     0.90955   0.83312   0.61952   0.00000  Uiso   1.00
O1171  O     0.91960   0.80532   0.65214   0.00000  Uiso   1.00
O1172  O     0.93429   0.86570   0.60880   0.00000  Uiso   1.00
I1173  I     0.71181   0.78514   0.94408   0.00000  Uiso   1.00
I1174  I     0.95481   0.76938   0.55476   0.00000  Uiso   1.00
N1175  N     0.72186   0.82512   0.54404   0.00000  Uiso   1.00
O1176  O     0.69153   0.85196   0.53199   0.00000  Uiso   1.00
O1177  O     0.71698   0.79364   0.57426   0.00000  Uiso   1.00
N1178  N     0.94204   0.80559   0.95500   0.00000  Uiso   1.00
O1179  O     0.96164   0.84108   0.94069   0.00000  Uiso   1.00
O1180  O     0.94802   0.76545   0.93720   0.00000  Uiso   1.00
I1181  I     0.71418   0.73313   0.79224   0.00000  Uiso   1.00
I1182  I     0.95298   0.93267   0.70687   0.00000  Uiso   1.00
I1183  I     0.95645   0.72712   0.72310   0.00000  Uiso   1.00
I1184  I     0.70982   0.93781   0.77977   0.00000  Uiso   1.00
I1185  I     0.76707   0.72658   0.67412   0.00000  Uiso   1.00
I1186  I     0.89978   0.94002   0.82567   0.00000  Uiso   1.00
I1187  I     0.89748   0.72471   0.82808   0.00000  Uiso   1.00
I1188  I     0.76856   0.94179   0.67263   0.00000  Uiso   1.00
loop_
_geom_bond_atom_site_label_1
_geom_bond_atom_site_label_2
_geom_bond_distance
_geom_bond_site_symmetry_2
_ccdc_geom_bond_type
O1     C5      1.313   .     A
O1     Cu13    1.992   .     S
O2     C6      1.311   .     A
O2     Cu14    1.992   .     S
O3     C6      1.316   .     A
O3     Cu13    1.989   .     S
O4     Cu14    1.989   .     S
O4     C5      1.313   .     A
C5     C38     1.483   .     S
C6     C37     1.484   .     S
O7     C11     1.306   .     A
O7     Cu13    1.960   .     S
O8     C12     1.305   .     A
O8     Cu14    1.960   .     S
O9     C12     1.304   .     A
O9     Cu13    1.959   .     S
O10    C11     1.303   .     A
O10    Cu14    1.959   .     S
C11    C18     1.452   .     S
C12    C17     1.453   .     S
Cu13   Cu14    2.724   .     S
Cu13   N43     2.047   .     S
Cu14   N44     2.047   .     S
C15    H31     1.084   .     S
C15    C25     1.399   .     A
C15    C17     1.388   .     A
C16    C18     1.388   .     A
C16    H32     1.083   .     S
C16    C26     1.397   .     A
C17    C19     1.404   .     A
C18    C20     1.405   .     A
C19    N45     1.433   .     S
C19    C21     1.411   .     A
C20    N48     1.431   .     S
C20    C22     1.413   .     A
C21    C27     1.406   .     A
C21    C23     1.410   .     A
C22    C28     1.416   .     A
C22    C24     1.417   .     A
C23    C25     1.408   .     A
C23    C618    1.407   .     S
C24    C26     1.414   .     A
C24    C617    1.407   1_554 S
C25    C30     1.402   .     A
C26    C29     1.409   .     A
C27    I51     2.126   .     S
C27    C623    1.401   .     S
C28    I52     2.137   .     S
C28    C624    1.401   1_554 S
C29    N53     1.434   .     S
C29    C621    1.401   1_554 S
C30    N56     1.425   .     S
C30    C622    1.401   .     S
C33    C38     1.409   .     A
C33    I59     2.141   .     S
C33    C167    1.397   1_455 S
C34    C37     1.408   .     A
C34    I60     2.136   .     S
C34    C102    1.396   .     S
C35    C37     1.413   .     A
C35    I61     2.135   .     S
C35    C99     1.397   .     S
C36    I62     2.132   .     S
C36    C38     1.410   .     A
C36    C166    1.396   1_455 S
C39    N44     1.382   .     A
C39    I63     2.154   .     S
C39    C438    1.432   1_545 S
C40    I64     2.155   .     S
C40    N43     1.381   .     A
C40    C239    1.432   .     S
C41    N44     1.382   .     A
C41    I65     2.154   .     S
C41    C436    1.432   1_545 S
C42    N43     1.382   .     A
C42    I66     2.154   .     S
C42    C237    1.432   .     S
N45    O46     1.297   .     A
N45    O47     1.301   .     A
N48    O50     1.301   .     A
N48    O49     1.298   .     A
N53    O55     1.301   .     A
N53    O54     1.301   .     A
N56    O57     1.301   .     A
N56    O58     1.301   .     A
O67    C71     1.313   .     A
O67    Cu79    1.992   .     S
O68    C72     1.311   .     A
O68    Cu80    1.992   .     S
O69    C72     1.316   .     A
O69    Cu79    1.989   .     S
O70    Cu80    1.989   .     S
O70    C71     1.313   .     A
C71    C104    1.483   .     S
C72    C103    1.484   .     S
O73    C77     1.306   .     A
O73    Cu79    1.960   .     S
O74    C78     1.305   .     A
O74    Cu80    1.960   .     S
O75    C78     1.304   .     A
O75    Cu79    1.959   .     S
O76    C77     1.303   .     A
O76    Cu80    1.959   .     S
C77    C84     1.452   .     S
C78    C83     1.453   .     S
Cu79   Cu80    2.724   .     S
Cu79   N109    2.047   .     S
Cu80   N110    2.047   .     S
C81    H97     1.084   .     S
C81    C91     1.399   .     A
C81    C83     1.388   .     A
C82    C84     1.388   .     A
C82    H98     1.083   .     S
C82    C92     1.397   .     A
C83    C85     1.404   .     A
C84    C86     1.405   .     A
C85    N111    1.433   .     S
C85    C87     1.411   .     A
C86    N114    1.431   .     S
C86    C88     1.413   .     A
C87    C93     1.406   .     A
C87    C89     1.410   .     A
C88    C94     1.416   .     A
C88    C90     1.417   .     A
C89    C91     1.408   .     A
C89    C684    1.407   .     S
C90    C92     1.414   .     A
C90    C683    1.407   1_554 S
C91    C96     1.402   .     A
C92    C95     1.409   .     A
C93    I117    2.126   .     S
C93    C689    1.401   .     S
C94    I118    2.137   .     S
C94    C690    1.401   1_554 S
C95    N119    1.434   .     S
C95    C687    1.401   1_554 S
C96    N122    1.425   .     S
C96    C688    1.401   .     S
C99    C104    1.409   .     A
C99    I125    2.141   .     S
C100   C103    1.408   .     A
C100   I126    2.136   .     S
C100   C168    1.396   .     S
C101   C103    1.413   .     A
C101   I127    2.135   .     S
C101   C165    1.397   .     S
C102   I128    2.132   .     S
C102   C104    1.410   .     A
C105   N110    1.382   .     A
C105   I129    2.154   .     S
C105   C504    1.432   1_545 S
C106   I130    2.155   .     S
C106   N109    1.381   .     A
C106   C305    1.432   .     S
C107   N110    1.382   .     A
C107   I131    2.154   .     S
C107   C502    1.432   1_545 S
C108   N109    1.382   .     A
C108   I132    2.154   .     S
C108   C303    1.432   .     S
N111   O112    1.297   .     A
N111   O113    1.301   .     A
N114   O116    1.301   .     A
N114   O115    1.298   .     A
N119   O121    1.301   .     A
N119   O120    1.301   .     A
N122   O123    1.301   .     A
N122   O124    1.301   .     A
O133   C137    1.313   .     A
O133   Cu145   1.992   .     S
O134   C138    1.311   .     A
O134   Cu146   1.992   .     S
O135   C138    1.316   .     A
O135   Cu145   1.989   .     S
O136   Cu146   1.989   .     S
O136   C137    1.313   .     A
C137   C170    1.483   .     S
C138   C169    1.484   .     S
O139   C143    1.306   .     A
O139   Cu145   1.960   .     S
O140   C144    1.305   .     A
O140   Cu146   1.960   .     S
O141   C144    1.304   .     A
O141   Cu145   1.959   .     S
O142   C143    1.303   .     A
O142   Cu146   1.959   .     S
C143   C150    1.452   .     S
C144   C149    1.453   .     S
Cu145  Cu146   2.724   .     S
Cu145  N175    2.047   .     S
Cu146  N176    2.047   .     S
C147   H163    1.084   .     S
C147   C157    1.399   .     A
C147   C149    1.388   .     A
C148   C150    1.388   .     A
C148   H164    1.083   .     S
C148   C158    1.397   .     A
C149   C151    1.404   .     A
C150   C152    1.405   .     A
C151   N177    1.433   .     S
C151   C153    1.411   .     A
C152   N180    1.431   .     S
C152   C154    1.413   .     A
C153   C159    1.406   .     A
C153   C155    1.410   .     A
C154   C160    1.416   .     A
C154   C156    1.417   .     A
C155   C157    1.408   .     A
C155   C750    1.407   .     S
C156   C158    1.414   .     A
C156   C749    1.407   1_554 S
C157   C162    1.402   .     A
C158   C161    1.409   .     A
C159   I183    2.126   .     S
C159   C755    1.401   .     S
C160   I184    2.137   .     S
C160   C756    1.401   1_554 S
C161   N185    1.434   .     S
C161   C753    1.401   1_554 S
C162   N188    1.425   .     S
C162   C754    1.401   .     S
C165   C170    1.409   .     A
C165   I191    2.141   .     S
C166   C169    1.408   .     A
C166   I192    2.136   .     S
C166   C36     1.396   1_655 S
C167   C169    1.413   .     A
C167   I193    2.135   .     S
C167   C33     1.397   1_655 S
C168   I194    2.132   .     S
C168   C170    1.410   .     A
C171   N176    1.382   .     A
C171   I195    2.154   .     S
C171   C570    1.432   1_545 S
C172   I196    2.155   .     S
C172   N175    1.381   .     A
C172   C371    1.432   .     S
C173   N176    1.382   .     A
C173   I197    2.154   .     S
C173   C568    1.432   1_545 S
C174   N175    1.382   .     A
C174   I198    2.154   .     S
C174   C369    1.432   .     S
N177   O178    1.297   .     A
N177   O179    1.301   .     A
N180   O182    1.301   .     A
N180   O181    1.298   .     A
N185   O187    1.301   .     A
N185   O186    1.301   .     A
N188   O189    1.301   .     A
N188   O190    1.301   .     A
O199   C203    1.313   .     A
O199   Cu211   1.992   .     S
O200   C204    1.311   .     A
O200   Cu212   1.992   .     S
O201   C204    1.316   .     A
O201   Cu211   1.989   .     S
O202   Cu212   1.989   .     S
O202   C203    1.313   .     A
C203   C236    1.483   .     S
C204   C235    1.484   .     S
O205   C209    1.306   .     A
O205   Cu211   1.960   .     S
O206   C210    1.305   .     A
O206   Cu212   1.960   .     S
O207   C210    1.304   .     A
O207   Cu211   1.959   .     S
O208   C209    1.303   .     A
O208   Cu212   1.959   .     S
C209   C216    1.452   .     S
C210   C215    1.453   .     S
Cu211  Cu212   2.724   .     S
Cu211  N241    2.047   .     S
Cu212  N242    2.047   .     S
C213   H229    1.084   .     S
C213   C223    1.399   .     A
C213   C215    1.388   .     A
C214   C216    1.388   .     A
C214   H230    1.083   .     S
C214   C224    1.397   .     A
C215   C217    1.404   .     A
C216   C218    1.405   .     A
C217   N243    1.433   .     S
C217   C219    1.411   .     A
C218   N246    1.431   .     S
C218   C220    1.413   .     A
C219   C225    1.406   .     A
C219   C221    1.410   .     A
C220   C226    1.416   .     A
C220   C222    1.417   .     A
C221   C223    1.408   .     A
C221   C816    1.407   .     S
C222   C224    1.414   .     A
C222   C815    1.407   1_554 S
C223   C228    1.402   .     A
C224   C227    1.409   .     A
C225   I249    2.126   .     S
C225   C821    1.401   .     S
C226   I250    2.137   .     S
C226   C822    1.401   1_554 S
C227   N251    1.434   .     S
C227   C819    1.401   1_554 S
C228   N254    1.425   .     S
C228   C820    1.401   .     S
C231   C236    1.409   .     A
C231   I257    2.141   .     S
C231   C365    1.397   1_455 S
C232   C235    1.408   .     A
C232   I258    2.136   .     S
C232   C300    1.396   .     S
C233   C235    1.413   .     A
C233   I259    2.135   .     S
C233   C297    1.397   .     S
C234   I260    2.132   .     S
C234   C236    1.410   .     A
C234   C364    1.396   1_455 S
C237   N242    1.382   .     A
C237   I261    2.154   .     S
C238   I262    2.155   .     S
C238   N241    1.381   .     A
C238   C437    1.432   .     S
C239   N242    1.382   .     A
C239   I263    2.154   .     S
C240   N241    1.382   .     A
C240   I264    2.154   .     S
C240   C435    1.432   .     S
N243   O244    1.297   .     A
N243   O245    1.301   .     A
N246   O248    1.301   .     A
N246   O247    1.298   .     A
N251   O253    1.301   .     A
N251   O252    1.301   .     A
N254   O255    1.301   .     A
N254   O256    1.301   .     A
O265   C269    1.313   .     A
O265   Cu277   1.992   .     S
O266   C270    1.311   .     A
O266   Cu278   1.992   .     S
O267   C270    1.316   .     A
O267   Cu277   1.989   .     S
O268   Cu278   1.989   .     S
O268   C269    1.313   .     A
C269   C302    1.483   .     S
C270   C301    1.484   .     S
O271   C275    1.306   .     A
O271   Cu277   1.960   .     S
O272   C276    1.305   .     A
O272   Cu278   1.960   .     S
O273   C276    1.304   .     A
O273   Cu277   1.959   .     S
O274   C275    1.303   .     A
O274   Cu278   1.959   .     S
C275   C282    1.452   .     S
C276   C281    1.453   .     S
Cu277  Cu278   2.724   .     S
Cu277  N307    2.047   .     S
Cu278  N308    2.047   .     S
C279   H295    1.084   .     S
C279   C289    1.399   .     A
C279   C281    1.388   .     A
C280   C282    1.388   .     A
C280   H296    1.083   .     S
C280   C290    1.397   .     A
C281   C283    1.404   .     A
C282   C284    1.405   .     A
C283   N309    1.433   .     S
C283   C285    1.411   .     A
C284   N312    1.431   .     S
C284   C286    1.413   .     A
C285   C291    1.406   .     A
C285   C287    1.410   .     A
C286   C292    1.416   .     A
C286   C288    1.417   .     A
C287   C289    1.408   .     A
C287   C882    1.407   .     S
C288   C290    1.414   .     A
C288   C881    1.407   1_554 S
C289   C294    1.402   .     A
C290   C293    1.409   .     A
C291   I315    2.126   .     S
C291   C887    1.401   .     S
C292   I316    2.137   .     S
C292   C888    1.401   1_554 S
C293   N317    1.434   .     S
C293   C885    1.401   1_554 S
C294   N320    1.425   .     S
C294   C886    1.401   .     S
C297   C302    1.409   .     A
C297   I323    2.141   .     S
C298   C301    1.408   .     A
C298   I324    2.136   .     S
C298   C366    1.396   .     S
C299   C301    1.413   .     A
C299   I325    2.135   .     S
C299   C363    1.397   .     S
C300   I326    2.132   .     S
C300   C302    1.410   .     A
C303   N308    1.382   .     A
C303   I327    2.154   .     S
C304   I328    2.155   .     S
C304   N307    1.381   .     A
C304   C503    1.432   .     S
C305   N308    1.382   .     A
C305   I329    2.154   .     S
C306   N307    1.382   .     A
C306   I330    2.154   .     S
C306   C501    1.432   .     S
N309   O310    1.297   .     A
N309   O311    1.301   .     A
N312   O314    1.301   .     A
N312   O313    1.298   .     A
N317   O319    1.301   .     A
N317   O318    1.301   .     A
N320   O321    1.301   .     A
N320   O322    1.301   .     A
O331   C335    1.313   .     A
O331   Cu343   1.992   .     S
O332   C336    1.311   .     A
O332   Cu344   1.992   .     S
O333   C336    1.316   .     A
O333   Cu343   1.989   .     S
O334   Cu344   1.989   .     S
O334   C335    1.313   .     A
C335   C368    1.483   .     S
C336   C367    1.484   .     S
O337   C341    1.306   .     A
O337   Cu343   1.960   .     S
O338   C342    1.305   .     A
O338   Cu344   1.960   .     S
O339   C342    1.304   .     A
O339   Cu343   1.959   .     S
O340   C341    1.303   .     A
O340   Cu344   1.959   .     S
C341   C348    1.452   .     S
C342   C347    1.453   .     S
Cu343  Cu344   2.724   .     S
Cu343  N373    2.047   .     S
Cu344  N374    2.047   .     S
C345   H361    1.084   .     S
C345   C355    1.399   .     A
C345   C347    1.388   .     A
C346   C348    1.388   .     A
C346   H362    1.083   .     S
C346   C356    1.397   .     A
C347   C349    1.404   .     A
C348   C350    1.405   .     A
C349   N375    1.433   .     S
C349   C351    1.411   .     A
C350   N378    1.431   .     S
C350   C352    1.413   .     A
C351   C357    1.406   .     A
C351   C353    1.410   .     A
C352   C358    1.416   .     A
C352   C354    1.417   .     A
C353   C355    1.408   .     A
C353   C948    1.407   .     S
C354   C356    1.414   .     A
C354   C947    1.407   1_554 S
C355   C360    1.402   .     A
C356   C359    1.409   .     A
C357   I381    2.126   .     S
C357   C953    1.401   .     S
C358   I382    2.137   .     S
C358   C954    1.401   1_554 S
C359   N383    1.434   .     S
C359   C951    1.401   1_554 S
C360   N386    1.425   .     S
C360   C952    1.401   .     S
C363   C368    1.409   .     A
C363   I389    2.141   .     S
C364   C367    1.408   .     A
C364   I390    2.136   .     S
C364   C234    1.396   1_655 S
C365   C367    1.413   .     A
C365   I391    2.135   .     S
C365   C231    1.397   1_655 S
C366   I392    2.132   .     S
C366   C368    1.410   .     A
C369   N374    1.382   .     A
C369   I393    2.154   .     S
C370   I394    2.155   .     S
C370   N373    1.381   .     A
C370   C569    1.432   .     S
C371   N374    1.382   .     A
C371   I395    2.154   .     S
C372   N373    1.382   .     A
C372   I396    2.154   .     S
C372   C567    1.432   .     S
N375   O376    1.297   .     A
N375   O377    1.301   .     A
N378   O380    1.301   .     A
N378   O379    1.298   .     A
N383   O385    1.301   .     A
N383   O384    1.301   .     A
N386   O387    1.301   .     A
N386   O388    1.301   .     A
O397   C401    1.313   .     A
O397   Cu409   1.992   .     S
O398   C402    1.311   .     A
O398   Cu410   1.992   .     S
O399   C402    1.316   .     A
O399   Cu409   1.989   .     S
O400   Cu410   1.989   .     S
O400   C401    1.313   .     A
C401   C434    1.483   .     S
C402   C433    1.484   .     S
O403   C407    1.306   .     A
O403   Cu409   1.960   .     S
O404   C408    1.305   .     A
O404   Cu410   1.960   .     S
O405   C408    1.304   .     A
O405   Cu409   1.959   .     S
O406   C407    1.303   .     A
O406   Cu410   1.959   .     S
C407   C414    1.452   .     S
C408   C413    1.453   .     S
Cu409  Cu410   2.724   .     S
Cu409  N439    2.047   .     S
Cu410  N440    2.047   .     S
C411   H427    1.084   .     S
C411   C421    1.399   .     A
C411   C413    1.388   .     A
C412   C414    1.388   .     A
C412   H428    1.083   .     S
C412   C422    1.397   .     A
C413   C415    1.404   .     A
C414   C416    1.405   .     A
C415   N441    1.433   .     S
C415   C417    1.411   .     A
C416   N444    1.431   .     S
C416   C418    1.413   .     A
C417   C423    1.406   .     A
C417   C419    1.410   .     A
C418   C424    1.416   .     A
C418   C420    1.417   .     A
C419   C421    1.408   .     A
C419   C1014   1.407   .     S
C420   C422    1.414   .     A
C420   C1013   1.407   1_554 S
C421   C426    1.402   .     A
C422   C425    1.409   .     A
C423   I447    2.126   .     S
C423   C1019   1.401   .     S
C424   I448    2.137   .     S
C424   C1020   1.401   1_554 S
C425   N449    1.434   .     S
C425   C1017   1.401   1_554 S
C426   N452    1.425   .     S
C426   C1018   1.401   .     S
C429   C434    1.409   .     A
C429   I455    2.141   .     S
C429   C563    1.397   1_455 S
C430   C433    1.408   .     A
C430   I456    2.136   .     S
C430   C498    1.396   .     S
C431   C433    1.413   .     A
C431   I457    2.135   .     S
C431   C495    1.397   .     S
C432   I458    2.132   .     S
C432   C434    1.410   .     A
C432   C562    1.396   1_455 S
C435   N440    1.382   .     A
C435   I459    2.154   .     S
C436   I460    2.155   .     S
C436   N439    1.381   .     A
C436   C41     1.432   1_565 S
C437   N440    1.382   .     A
C437   I461    2.154   .     S
C438   N439    1.382   .     A
C438   I462    2.154   .     S
C438   C39     1.432   1_565 S
N441   O442    1.297   .     A
N441   O443    1.301   .     A
N444   O446    1.301   .     A
N444   O445    1.298   .     A
N449   O451    1.301   .     A
N449   O450    1.301   .     A
N452   O453    1.301   .     A
N452   O454    1.301   .     A
O463   C467    1.313   .     A
O463   Cu475   1.992   .     S
O464   C468    1.311   .     A
O464   Cu476   1.992   .     S
O465   C468    1.316   .     A
O465   Cu475   1.989   .     S
O466   Cu476   1.989   .     S
O466   C467    1.313   .     A
C467   C500    1.483   .     S
C468   C499    1.484   .     S
O469   C473    1.306   .     A
O469   Cu475   1.960   .     S
O470   C474    1.305   .     A
O470   Cu476   1.960   .     S
O471   C474    1.304   .     A
O471   Cu475   1.959   .     S
O472   C473    1.303   .     A
O472   Cu476   1.959   .     S
C473   C480    1.452   .     S
C474   C479    1.453   .     S
Cu475  Cu476   2.724   .     S
Cu475  N505    2.047   .     S
Cu476  N506    2.047   .     S
C477   H493    1.084   .     S
C477   C487    1.399   .     A
C477   C479    1.388   .     A
C478   C480    1.388   .     A
C478   H494    1.083   .     S
C478   C488    1.397   .     A
C479   C481    1.404   .     A
C480   C482    1.405   .     A
C481   N507    1.433   .     S
C481   C483    1.411   .     A
C482   N510    1.431   .     S
C482   C484    1.413   .     A
C483   C489    1.406   .     A
C483   C485    1.410   .     A
C484   C490    1.416   .     A
C484   C486    1.417   .     A
C485   C487    1.408   .     A
C485   C1080   1.407   .     S
C486   C488    1.414   .     A
C486   C1079   1.407   1_554 S
C487   C492    1.402   .     A
C488   C491    1.409   .     A
C489   I513    2.126   .     S
C489   C1085   1.401   .     S
C490   I514    2.137   .     S
C490   C1086   1.401   1_554 S
C491   N515    1.434   .     S
C491   C1083   1.401   1_554 S
C492   N518    1.425   .     S
C492   C1084   1.401   .     S
C495   C500    1.409   .     A
C495   I521    2.141   .     S
C496   C499    1.408   .     A
C496   I522    2.136   .     S
C496   C564    1.396   .     S
C497   C499    1.413   .     A
C497   I523    2.135   .     S
C497   C561    1.397   .     S
C498   I524    2.132   .     S
C498   C500    1.410   .     A
C501   N506    1.382   .     A
C501   I525    2.154   .     S
C502   I526    2.155   .     S
C502   N505    1.381   .     A
C502   C107    1.432   1_565 S
C503   N506    1.382   .     A
C503   I527    2.154   .     S
C504   N505    1.382   .     A
C504   I528    2.154   .     S
C504   C105    1.432   1_565 S
N507   O508    1.297   .     A
N507   O509    1.301   .     A
N510   O512    1.301   .     A
N510   O511    1.298   .     A
N515   O517    1.301   .     A
N515   O516    1.301   .     A
N518   O519    1.301   .     A
N518   O520    1.301   .     A
O529   C533    1.313   .     A
O529   Cu541   1.992   .     S
O530   C534    1.311   .     A
O530   Cu542   1.992   .     S
O531   C534    1.316   .     A
O531   Cu541   1.989   .     S
O532   Cu542   1.989   .     S
O532   C533    1.313   .     A
C533   C566    1.483   .     S
C534   C565    1.484   .     S
O535   C539    1.306   .     A
O535   Cu541   1.960   .     S
O536   C540    1.305   .     A
O536   Cu542   1.960   .     S
O537   C540    1.304   .     A
O537   Cu541   1.959   .     S
O538   C539    1.303   .     A
O538   Cu542   1.959   .     S
C539   C546    1.452   .     S
C540   C545    1.453   .     S
Cu541  Cu542   2.724   .     S
Cu541  N571    2.047   .     S
Cu542  N572    2.047   .     S
C543   H559    1.084   .     S
C543   C553    1.399   .     A
C543   C545    1.388   .     A
C544   C546    1.388   .     A
C544   H560    1.083   .     S
C544   C554    1.397   .     A
C545   C547    1.404   .     A
C546   C548    1.405   .     A
C547   N573    1.433   .     S
C547   C549    1.411   .     A
C548   N576    1.431   .     S
C548   C550    1.413   .     A
C549   C555    1.406   .     A
C549   C551    1.410   .     A
C550   C556    1.416   .     A
C550   C552    1.417   .     A
C551   C553    1.408   .     A
C551   C1146   1.407   .     S
C552   C554    1.414   .     A
C552   C1145   1.407   1_554 S
C553   C558    1.402   .     A
C554   C557    1.409   .     A
C555   I579    2.126   .     S
C555   C1151   1.401   .     S
C556   I580    2.137   .     S
C556   C1152   1.401   1_554 S
C557   N581    1.434   .     S
C557   C1149   1.401   1_554 S
C558   N584    1.425   .     S
C558   C1150   1.401   .     S
C561   C566    1.409   .     A
C561   I587    2.141   .     S
C562   C565    1.408   .     A
C562   I588    2.136   .     S
C562   C432    1.396   1_655 S
C563   C565    1.413   .     A
C563   I589    2.135   .     S
C563   C429    1.397   1_655 S
C564   I590    2.132   .     S
C564   C566    1.410   .     A
C567   N572    1.382   .     A
C567   I591    2.154   .     S
C568   I592    2.155   .     S
C568   N571    1.381   .     A
C568   C173    1.432   1_565 S
C569   N572    1.382   .     A
C569   I593    2.154   .     S
C570   N571    1.382   .     A
C570   I594    2.154   .     S
C570   C171    1.432   1_565 S
N573   O574    1.297   .     A
N573   O575    1.301   .     A
N576   O578    1.301   .     A
N576   O577    1.298   .     A
N581   O583    1.301   .     A
N581   O582    1.301   .     A
N584   O585    1.301   .     A
N584   O586    1.301   .     A
O595   C599    1.313   .     A
O595   Cu607   1.992   .     S
O596   C600    1.311   .     A
O596   Cu608   1.992   .     S
O597   C600    1.316   .     A
O597   Cu607   1.989   .     S
O598   Cu608   1.989   .     S
O598   C599    1.313   .     A
C599   C632    1.483   .     S
C600   C631    1.484   .     S
O601   C605    1.306   .     A
O601   Cu607   1.960   .     S
O602   C606    1.305   .     A
O602   Cu608   1.960   .     S
O603   C606    1.304   .     A
O603   Cu607   1.959   .     S
O604   C605    1.303   .     A
O604   Cu608   1.959   .     S
C605   C612    1.452   .     S
C606   C611    1.453   .     S
Cu607  Cu608   2.724   .     S
Cu607  N637    2.047   .     S
Cu608  N638    2.047   .     S
C609   H625    1.084   .     S
C609   C619    1.399   .     A
C609   C611    1.388   .     A
C610   C612    1.388   .     A
C610   H626    1.083   .     S
C610   C620    1.397   .     A
C611   C613    1.404   .     A
C612   C614    1.405   .     A
C613   N639    1.433   .     S
C613   C615    1.411   .     A
C614   N642    1.431   .     S
C614   C616    1.413   .     A
C615   C621    1.406   .     A
C615   C617    1.410   .     A
C616   C622    1.416   .     A
C616   C618    1.417   .     A
C617   C619    1.408   .     A
C617   C24     1.407   1_556 S
C618   C620    1.414   .     A
C619   C624    1.402   .     A
C620   C623    1.409   .     A
C621   I645    2.126   .     S
C621   C29     1.401   1_556 S
C622   I646    2.137   .     S
C623   N647    1.434   .     S
C624   N650    1.425   .     S
C624   C28     1.401   1_556 S
C627   C632    1.409   .     A
C627   I653    2.141   .     S
C627   C761    1.397   1_455 S
C628   C631    1.408   .     A
C628   I654    2.136   .     S
C628   C696    1.396   .     S
C629   C631    1.413   .     A
C629   I655    2.135   .     S
C629   C693    1.397   .     S
C630   I656    2.132   .     S
C630   C632    1.410   .     A
C630   C760    1.396   1_455 S
C633   N638    1.382   .     A
C633   I657    2.154   .     S
C633   C1032   1.432   1_545 S
C634   I658    2.155   .     S
C634   N637    1.381   .     A
C634   C833    1.432   .     S
C635   N638    1.382   .     A
C635   I659    2.154   .     S
C635   C1030   1.432   1_545 S
C636   N637    1.382   .     A
C636   I660    2.154   .     S
C636   C831    1.432   .     S
N639   O640    1.297   .     A
N639   O641    1.301   .     A
N642   O644    1.301   .     A
N642   O643    1.298   .     A
N647   O649    1.301   .     A
N647   O648    1.301   .     A
N650   O651    1.301   .     A
N650   O652    1.301   .     A
O661   C665    1.313   .     A
O661   Cu673   1.992   .     S
O662   C666    1.311   .     A
O662   Cu674   1.992   .     S
O663   C666    1.316   .     A
O663   Cu673   1.989   .     S
O664   Cu674   1.989   .     S
O664   C665    1.313   .     A
C665   C698    1.483   .     S
C666   C697    1.484   .     S
O667   C671    1.306   .     A
O667   Cu673   1.960   .     S
O668   C672    1.305   .     A
O668   Cu674   1.960   .     S
O669   C672    1.304   .     A
O669   Cu673   1.959   .     S
O670   C671    1.303   .     A
O670   Cu674   1.959   .     S
C671   C678    1.452   .     S
C672   C677    1.453   .     S
Cu673  Cu674   2.724   .     S
Cu673  N703    2.047   .     S
Cu674  N704    2.047   .     S
C675   H691    1.084   .     S
C675   C685    1.399   .     A
C675   C677    1.388   .     A
C676   C678    1.388   .     A
C676   H692    1.083   .     S
C676   C686    1.397   .     A
C677   C679    1.404   .     A
C678   C680    1.405   .     A
C679   N705    1.433   .     S
C679   C681    1.411   .     A
C680   N708    1.431   .     S
C680   C682    1.413   .     A
C681   C687    1.406   .     A
C681   C683    1.410   .     A
C682   C688    1.416   .     A
C682   C684    1.417   .     A
C683   C685    1.408   .     A
C683   C90     1.407   1_556 S
C684   C686    1.414   .     A
C685   C690    1.402   .     A
C686   C689    1.409   .     A
C687   I711    2.126   .     S
C687   C95     1.401   1_556 S
C688   I712    2.137   .     S
C689   N713    1.434   .     S
C690   N716    1.425   .     S
C690   C94     1.401   1_556 S
C693   C698    1.409   .     A
C693   I719    2.141   .     S
C694   C697    1.408   .     A
C694   I720    2.136   .     S
C694   C762    1.396   .     S
C695   C697    1.413   .     A
C695   I721    2.135   .     S
C695   C759    1.397   .     S
C696   I722    2.132   .     S
C696   C698    1.410   .     A
C699   N704    1.382   .     A
C699   I723    2.154   .     S
C699   C1098   1.432   1_545 S
C700   I724    2.155   .     S
C700   N703    1.381   .     A
C700   C899    1.432   .     S
C701   N704    1.382   .     A
C701   I725    2.154   .     S
C701   C1096   1.432   1_545 S
C702   N703    1.382   .     A
C702   I726    2.154   .     S
C702   C897    1.432   .     S
N705   O706    1.297   .     A
N705   O707    1.301   .     A
N708   O710    1.301   .     A
N708   O709    1.298   .     A
N713   O715    1.301   .     A
N713   O714    1.301   .     A
N716   O717    1.301   .     A
N716   O718    1.301   .     A
O727   C731    1.313   .     A
O727   Cu739   1.992   .     S
O728   C732    1.311   .     A
O728   Cu740   1.992   .     S
O729   C732    1.316   .     A
O729   Cu739   1.989   .     S
O730   Cu740   1.989   .     S
O730   C731    1.313   .     A
C731   C764    1.483   .     S
C732   C763    1.484   .     S
O733   C737    1.306   .     A
O733   Cu739   1.960   .     S
O734   C738    1.305   .     A
O734   Cu740   1.960   .     S
O735   C738    1.304   .     A
O735   Cu739   1.959   .     S
O736   C737    1.303   .     A
O736   Cu740   1.959   .     S
C737   C744    1.452   .     S
C738   C743    1.453   .     S
Cu739  Cu740   2.724   .     S
Cu739  N769    2.047   .     S
Cu740  N770    2.047   .     S
C741   H757    1.084   .     S
C741   C751    1.399   .     A
C741   C743    1.388   .     A
C742   C744    1.388   .     A
C742   H758    1.083   .     S
C742   C752    1.397   .     A
C743   C745    1.404   .     A
C744   C746    1.405   .     A
C745   N771    1.433   .     S
C745   C747    1.411   .     A
C746   N774    1.431   .     S
C746   C748    1.413   .     A
C747   C753    1.406   .     A
C747   C749    1.410   .     A
C748   C754    1.416   .     A
C748   C750    1.417   .     A
C749   C751    1.408   .     A
C749   C156    1.407   1_556 S
C750   C752    1.414   .     A
C751   C756    1.402   .     A
C752   C755    1.409   .     A
C753   I777    2.126   .     S
C753   C161    1.401   1_556 S
C754   I778    2.137   .     S
C755   N779    1.434   .     S
C756   N782    1.425   .     S
C756   C160    1.401   1_556 S
C759   C764    1.409   .     A
C759   I785    2.141   .     S
C760   C763    1.408   .     A
C760   I786    2.136   .     S
C760   C630    1.396   1_655 S
C761   C763    1.413   .     A
C761   I787    2.135   .     S
C761   C627    1.397   1_655 S
C762   I788    2.132   .     S
C762   C764    1.410   .     A
C765   N770    1.382   .     A
C765   I789    2.154   .     S
C765   C1164   1.432   1_545 S
C766   I790    2.155   .     S
C766   N769    1.381   .     A
C766   C965    1.432   .     S
C767   N770    1.382   .     A
C767   I791    2.154   .     S
C767   C1162   1.432   1_545 S
C768   N769    1.382   .     A
C768   I792    2.154   .     S
C768   C963    1.432   .     S
N771   O772    1.297   .     A
N771   O773    1.301   .     A
N774   O776    1.301   .     A
N774   O775    1.298   .     A
N779   O781    1.301   .     A
N779   O780    1.301   .     A
N782   O783    1.301   .     A
N782   O784    1.301   .     A
O793   C797    1.313   .     A
O793   Cu805   1.992   .     S
O794   C798    1.311   .     A
O794   Cu806   1.992   .     S
O795   C798    1.316   .     A
O795   Cu805   1.989   .     S
O796   Cu806   1.989   .     S
O796   C797    1.313   .     A
C797   C830    1.483   .     S
C798   C829    1.484   .     S
O799   C803    1.306   .     A
O799   Cu805   1.960   .     S
O800   C804    1.305   .     A
O800   Cu806   1.960   .     S
O801   C804    1.304   .     A
O801   Cu805   1.959   .     S
O802   C803    1.303   .     A
O802   Cu806   1.959   .     S
C803   C810    1.452   .     S
C804   C809    1.453   .     S
Cu805  Cu806   2.724   .     S
Cu805  N835    2.047   .     S
Cu806  N836    2.047   .     S
C807   H823    1.084   .     S
C807   C817    1.399   .     A
C807   C809    1.388   .     A
C808   C810    1.388   .     A
C808   H824    1.083   .     S
C808   C818    1.397   .     A
C809   C811    1.404   .     A
C810   C812    1.405   .     A
C811   N837    1.433   .     S
C811   C813    1.411   .     A
C812   N840    1.431   .     S
C812   C814    1.413   .     A
C813   C819    1.406   .     A
C813   C815    1.410   .     A
C814   C820    1.416   .     A
C814   C816    1.417   .     A
C815   C817    1.408   .     A
C815   C222    1.407   1_556 S
C816   C818    1.414   .     A
C817   C822    1.402   .     A
C818   C821    1.409   .     A
C819   I843    2.126   .     S
C819   C227    1.401   1_556 S
C820   I844    2.137   .     S
C821   N845    1.434   .     S
C822   N848    1.425   .     S
C822   C226    1.401   1_556 S
C825   C830    1.409   .     A
C825   I851    2.141   .     S
C825   C959    1.397   1_455 S
C826   C829    1.408   .     A
C826   I852    2.136   .     S
C826   C894    1.396   .     S
C827   C829    1.413   .     A
C827   I853    2.135   .     S
C827   C891    1.397   .     S
C828   I854    2.132   .     S
C828   C830    1.410   .     A
C828   C958    1.396   1_455 S
C831   N836    1.382   .     A
C831   I855    2.154   .     S
C832   I856    2.155   .     S
C832   N835    1.381   .     A
C832   C1031   1.432   .     S
C833   N836    1.382   .     A
C833   I857    2.154   .     S
C834   N835    1.382   .     A
C834   I858    2.154   .     S
C834   C1029   1.432   .     S
N837   O838    1.297   .     A
N837   O839    1.301   .     A
N840   O842    1.301   .     A
N840   O841    1.298   .     A
N845   O847    1.301   .     A
N845   O846    1.301   .     A
N848   O849    1.301   .     A
N848   O850    1.301   .     A
O859   C863    1.313   .     A
O859   Cu871   1.992   .     S
O860   C864    1.311   .     A
O860   Cu872   1.992   .     S
O861   C864    1.316   .     A
O861   Cu871   1.989   .     S
O862   Cu872   1.989   .     S
O862   C863    1.313   .     A
C863   C896    1.483   .     S
C864   C895    1.484   .     S
O865   C869    1.306   .     A
O865   Cu871   1.960   .     S
O866   C870    1.305   .     A
O866   Cu872   1.960   .     S
O867   C870    1.304   .     A
O867   Cu871   1.959   .     S
O868   C869    1.303   .     A
O868   Cu872   1.959   .     S
C869   C876    1.452   .     S
C870   C875    1.453   .     S
Cu871  Cu872   2.724   .     S
Cu871  N901    2.047   .     S
Cu872  N902    2.047   .     S
C873   H889    1.084   .     S
C873   C883    1.399   .     A
C873   C875    1.388   .     A
C874   C876    1.388   .     A
C874   H890    1.083   .     S
C874   C884    1.397   .     A
C875   C877    1.404   .     A
C876   C878    1.405   .     A
C877   N903    1.433   .     S
C877   C879    1.411   .     A
C878   N906    1.431   .     S
C878   C880    1.413   .     A
C879   C885    1.406   .     A
C879   C881    1.410   .     A
C880   C886    1.416   .     A
C880   C882    1.417   .     A
C881   C883    1.408   .     A
C881   C288    1.407   1_556 S
C882   C884    1.414   .     A
C883   C888    1.402   .     A
C884   C887    1.409   .     A
C885   I909    2.126   .     S
C885   C293    1.401   1_556 S
C886   I910    2.137   .     S
C887   N911    1.434   .     S
C888   N914    1.425   .     S
C888   C292    1.401   1_556 S
C891   C896    1.409   .     A
C891   I917    2.141   .     S
C892   C895    1.408   .     A
C892   I918    2.136   .     S
C892   C960    1.396   .     S
C893   C895    1.413   .     A
C893   I919    2.135   .     S
C893   C957    1.397   .     S
C894   I920    2.132   .     S
C894   C896    1.410   .     A
C897   N902    1.382   .     A
C897   I921    2.154   .     S
C898   I922    2.155   .     S
C898   N901    1.381   .     A
C898   C1097   1.432   .     S
C899   N902    1.382   .     A
C899   I923    2.154   .     S
C900   N901    1.382   .     A
C900   I924    2.154   .     S
C900   C1095   1.432   .     S
N903   O904    1.297   .     A
N903   O905    1.301   .     A
N906   O908    1.301   .     A
N906   O907    1.298   .     A
N911   O913    1.301   .     A
N911   O912    1.301   .     A
N914   O915    1.301   .     A
N914   O916    1.301   .     A
O925   C929    1.313   .     A
O925   Cu937   1.992   .     S
O926   C930    1.311   .     A
O926   Cu938   1.992   .     S
O927   C930    1.316   .     A
O927   Cu937   1.989   .     S
O928   Cu938   1.989   .     S
O928   C929    1.313   .     A
C929   C962    1.483   .     S
C930   C961    1.484   .     S
O931   C935    1.306   .     A
O931   Cu937   1.960   .     S
O932   C936    1.305   .     A
O932   Cu938   1.960   .     S
O933   C936    1.304   .     A
O933   Cu937   1.959   .     S
O934   C935    1.303   .     A
O934   Cu938   1.959   .     S
C935   C942    1.452   .     S
C936   C941    1.453   .     S
Cu937  Cu938   2.724   .     S
Cu937  N967    2.047   .     S
Cu938  N968    2.047   .     S
C939   H955    1.084   .     S
C939   C949    1.399   .     A
C939   C941    1.388   .     A
C940   C942    1.388   .     A
C940   H956    1.083   .     S
C940   C950    1.397   .     A
C941   C943    1.404   .     A
C942   C944    1.405   .     A
C943   N969    1.433   .     S
C943   C945    1.411   .     A
C944   N972    1.431   .     S
C944   C946    1.413   .     A
C945   C951    1.406   .     A
C945   C947    1.410   .     A
C946   C952    1.416   .     A
C946   C948    1.417   .     A
C947   C949    1.408   .     A
C947   C354    1.407   1_556 S
C948   C950    1.414   .     A
C949   C954    1.402   .     A
C950   C953    1.409   .     A
C951   I975    2.126   .     S
C951   C359    1.401   1_556 S
C952   I976    2.137   .     S
C953   N977    1.434   .     S
C954   N980    1.425   .     S
C954   C358    1.401   1_556 S
C957   C962    1.409   .     A
C957   I983    2.141   .     S
C958   C961    1.408   .     A
C958   I984    2.136   .     S
C958   C828    1.396   1_655 S
C959   C961    1.413   .     A
C959   I985    2.135   .     S
C959   C825    1.397   1_655 S
C960   I986    2.132   .     S
C960   C962    1.410   .     A
C963   N968    1.382   .     A
C963   I987    2.154   .     S
C964   I988    2.155   .     S
C964   N967    1.381   .     A
C964   C1163   1.432   .     S
C965   N968    1.382   .     A
C965   I989    2.154   .     S
C966   N967    1.382   .     A
C966   I990    2.154   .     S
C966   C1161   1.432   .     S
N969   O970    1.297   .     A
N969   O971    1.301   .     A
N972   O974    1.301   .     A
N972   O973    1.298   .     A
N977   O979    1.301   .     A
N977   O978    1.301   .     A
N980   O981    1.301   .     A
N980   O982    1.301   .     A
O991   C995    1.313   .     A
O991   Cu1003  1.992   .     S
O992   C996    1.311   .     A
O992   Cu1004  1.992   .     S
O993   C996    1.316   .     A
O993   Cu1003  1.989   .     S
O994   Cu1004  1.989   .     S
O994   C995    1.313   .     A
C995   C1028   1.483   .     S
C996   C1027   1.484   .     S
O997   C1001   1.306   .     A
O997   Cu1003  1.960   .     S
O998   C1002   1.305   .     A
O998   Cu1004  1.960   .     S
O999   C1002   1.304   .     A
O999   Cu1003  1.959   .     S
O1000  C1001   1.303   .     A
O1000  Cu1004  1.959   .     S
C1001  C1008   1.452   .     S
C1002  C1007   1.453   .     S
Cu1003 Cu1004  2.724   .     S
Cu1003 N1033   2.047   .     S
Cu1004 N1034   2.047   .     S
C1005  H1021   1.084   .     S
C1005  C1015   1.399   .     A
C1005  C1007   1.388   .     A
C1006  C1008   1.388   .     A
C1006  H1022   1.083   .     S
C1006  C1016   1.397   .     A
C1007  C1009   1.404   .     A
C1008  C1010   1.405   .     A
C1009  N1035   1.433   .     S
C1009  C1011   1.411   .     A
C1010  N1038   1.431   .     S
C1010  C1012   1.413   .     A
C1011  C1017   1.406   .     A
C1011  C1013   1.410   .     A
C1012  C1018   1.416   .     A
C1012  C1014   1.417   .     A
C1013  C1015   1.408   .     A
C1013  C420    1.407   1_556 S
C1014  C1016   1.414   .     A
C1015  C1020   1.402   .     A
C1016  C1019   1.409   .     A
C1017  I1041   2.126   .     S
C1017  C425    1.401   1_556 S
C1018  I1042   2.137   .     S
C1019  N1043   1.434   .     S
C1020  N1046   1.425   .     S
C1020  C424    1.401   1_556 S
C1023  C1028   1.409   .     A
C1023  I1049   2.141   .     S
C1023  C1157   1.397   1_455 S
C1024  C1027   1.408   .     A
C1024  I1050   2.136   .     S
C1024  C1092   1.396   .     S
C1025  C1027   1.413   .     A
C1025  I1051   2.135   .     S
C1025  C1089   1.397   .     S
C1026  I1052   2.132   .     S
C1026  C1028   1.410   .     A
C1026  C1156   1.396   1_455 S
C1029  N1034   1.382   .     A
C1029  I1053   2.154   .     S
C1030  I1054   2.155   .     S
C1030  N1033   1.381   .     A
C1030  C635    1.432   1_565 S
C1031  N1034   1.382   .     A
C1031  I1055   2.154   .     S
C1032  N1033   1.382   .     A
C1032  I1056   2.154   .     S
C1032  C633    1.432   1_565 S
N1035  O1036   1.297   .     A
N1035  O1037   1.301   .     A
N1038  O1040   1.301   .     A
N1038  O1039   1.298   .     A
N1043  O1045   1.301   .     A
N1043  O1044   1.301   .     A
N1046  O1047   1.301   .     A
N1046  O1048   1.301   .     A
O1057  C1061   1.313   .     A
O1057  Cu1069  1.992   .     S
O1058  C1062   1.311   .     A
O1058  Cu1070  1.992   .     S
O1059  C1062   1.316   .     A
O1059  Cu1069  1.989   .     S
O1060  Cu1070  1.989   .     S
O1060  C1061   1.313   .     A
C1061  C1094   1.483   .     S
C1062  C1093   1.484   .     S
O1063  C1067   1.306   .     A
O1063  Cu1069  1.960   .     S
O1064  C1068   1.305   .     A
O1064  Cu1070  1.960   .     S
O1065  C1068   1.304   .     A
O1065  Cu1069  1.959   .     S
O1066  C1067   1.303   .     A
O1066  Cu1070  1.959   .     S
C1067  C1074   1.452   .     S
C1068  C1073   1.453   .     S
Cu1069 Cu1070  2.724   .     S
Cu1069 N1099   2.047   .     S
Cu1070 N1100   2.047   .     S
C1071  H1087   1.084   .     S
C1071  C1081   1.399   .     A
C1071  C1073   1.388   .     A
C1072  C1074   1.388   .     A
C1072  H1088   1.083   .     S
C1072  C1082   1.397   .     A
C1073  C1075   1.404   .     A
C1074  C1076   1.405   .     A
C1075  N1101   1.433   .     S
C1075  C1077   1.411   .     A
C1076  N1104   1.431   .     S
C1076  C1078   1.413   .     A
C1077  C1083   1.406   .     A
C1077  C1079   1.410   .     A
C1078  C1084   1.416   .     A
C1078  C1080   1.417   .     A
C1079  C1081   1.408   .     A
C1079  C486    1.407   1_556 S
C1080  C1082   1.414   .     A
C1081  C1086   1.402   .     A
C1082  C1085   1.409   .     A
C1083  I1107   2.126   .     S
C1083  C491    1.401   1_556 S
C1084  I1108   2.137   .     S
C1085  N1109   1.434   .     S
C1086  N1112   1.425   .     S
C1086  C490    1.401   1_556 S
C1089  C1094   1.409   .     A
C1089  I1115   2.141   .     S
C1090  C1093   1.408   .     A
C1090  I1116   2.136   .     S
C1090  C1158   1.396   .     S
C1091  C1093   1.413   .     A
C1091  I1117   2.135   .     S
C1091  C1155   1.397   .     S
C1092  I1118   2.132   .     S
C1092  C1094   1.410   .     A
C1095  N1100   1.382   .     A
C1095  I1119   2.154   .     S
C1096  I1120   2.155   .     S
C1096  N1099   1.381   .     A
C1096  C701    1.432   1_565 S
C1097  N1100   1.382   .     A
C1097  I1121   2.154   .     S
C1098  N1099   1.382   .     A
C1098  I1122   2.154   .     S
C1098  C699    1.432   1_565 S
N1101  O1102   1.297   .     A
N1101  O1103   1.301   .     A
N1104  O1106   1.301   .     A
N1104  O1105   1.298   .     A
N1109  O1111   1.301   .     A
N1109  O1110   1.301   .     A
N1112  O1113   1.301   .     A
N1112  O1114   1.301   .     A
O1123  C1127   1.313   .     A
O1123  Cu1135  1.992   .     S
O1124  C1128   1.311   .     A
O1124  Cu1136  1.992   .     S
O1125  C1128   1.316   .     A
O1125  Cu1135  1.989   .     S
O1126  Cu1136  1.989   .     S
O1126  C1127   1.313   .     A
C1127  C1160   1.483   .     S
C1128  C1159   1.484   .     S
O1129  C1133   1.306   .     A
O1129  Cu1135  1.960   .     S
O1130  C1134   1.305   .     A
O1130  Cu1136  1.960   .     S
O1131  C1134   1.304   .     A
O1131  Cu1135  1.959   .     S
O1132  C1133   1.303   .     A
O1132  Cu1136  1.959   .     S
C1133  C1140   1.452   .     S
C1134  C1139   1.453   .     S
Cu1135 Cu1136  2.724   .     S
Cu1135 N1165   2.047   .     S
Cu1136 N1166   2.047   .     S
C1137  H1153   1.084   .     S
C1137  C1147   1.399   .     A
C1137  C1139   1.388   .     A
C1138  C1140   1.388   .     A
C1138  H1154   1.083   .     S
C1138  C1148   1.397   .     A
C1139  C1141   1.404   .     A
C1140  C1142   1.405   .     A
C1141  N1167   1.433   .     S
C1141  C1143   1.411   .     A
C1142  N1170   1.431   .     S
C1142  C1144   1.413   .     A
C1143  C1149   1.406   .     A
C1143  C1145   1.410   .     A
C1144  C1150   1.416   .     A
C1144  C1146   1.417   .     A
C1145  C1147   1.408   .     A
C1145  C552    1.407   1_556 S
C1146  C1148   1.414   .     A
C1147  C1152   1.402   .     A
C1148  C1151   1.409   .     A
C1149  I1173   2.126   .     S
C1149  C557    1.401   1_556 S
C1150  I1174   2.137   .     S
C1151  N1175   1.434   .     S
C1152  N1178   1.425   .     S
C1152  C556    1.401   1_556 S
C1155  C1160   1.409   .     A
C1155  I1181   2.141   .     S
C1156  C1159   1.408   .     A
C1156  I1182   2.136   .     S
C1156  C1026   1.396   1_655 S
C1157  C1159   1.413   .     A
C1157  I1183   2.135   .     S
C1157  C1023   1.397   1_655 S
C1158  I1184   2.132   .     S
C1158  C1160   1.410   .     A
C1161  N1166   1.382   .     A
C1161  I1185   2.154   .     S
C1162  I1186   2.155   .     S
C1162  N1165   1.381   .     A
C1162  C767    1.432   1_565 S
C1163  N1166   1.382   .     A
C1163  I1187   2.154   .     S
C1164  N1165   1.382   .     A
C1164  I1188   2.154   .     S
C1164  C765    1.432   1_565 S
N1167  O1168   1.297   .     A
N1167  O1169   1.301   .     A
N1170  O1172   1.301   .     A
N1170  O1171   1.298   .     A
N1175  O1177   1.301   .     A
N1175  O1176   1.301   .     A
N1178  O1179   1.301   .     A
N1178  O1180   1.301   .     A
