data_str_m2_o10_o16_pcu_sym.80
_audit_creation_date              2020-01-03
_audit_creation_method            'Materials Studio'
_symmetry_space_group_name_H-M    'P1'
_symmetry_Int_Tables_number       1
_symmetry_cell_setting            triclinic
loop_
_symmetry_equiv_pos_as_xyz
  x,y,z
_cell_length_a                    22.3567
_cell_length_b                    26.1425
_cell_length_c                    26.7552
_cell_angle_alpha                 94.4963
_cell_angle_beta                  77.5001
_cell_angle_gamma                 103.3284
loop_
_atom_site_label
_atom_site_type_symbol
_atom_site_fract_x
_atom_site_fract_y
_atom_site_fract_z
_atom_site_U_iso_or_equiv
_atom_site_adp_type
_atom_site_occupancy
C1     C     0.18182   0.26663   0.25161   0.00000  Uiso   1.00
C2     C     0.11265   0.16609   0.40344   0.00000  Uiso   1.00
C3     C     0.19082   0.32247   0.25253   0.00000  Uiso   1.00
C4     C     0.13329   0.16610   0.34724   0.00000  Uiso   1.00
C5     C     0.14373   0.01068   0.24785   0.00000  Uiso   1.00
C6     C     0.15164   0.06662   0.24852   0.00000  Uiso   1.00
C7     C     0.20044   0.17023   0.15296   0.00000  Uiso   1.00
C8     C     0.29082   0.23143   0.02923   0.00000  Uiso   1.00
C9     C     0.22082   0.17975   0.09808   0.00000  Uiso   1.00
C10    C     0.05065   0.14126   0.42464   0.00000  Uiso   1.00
C11    C     0.03185   0.13413   0.47703   0.00000  Uiso   1.00
C12    C     0.13903   0.17160   0.48821   0.00000  Uiso   1.00
C13    C     0.07536   0.14858   0.00857   0.00000  Uiso   1.00
C14    C     0.15548   0.18603   0.43624   0.00000  Uiso   1.00
C15    C     0.18623   0.18311   0.01823   0.00000  Uiso   1.00
C16    C     0.24509   0.21699   0.49890   0.00000  Uiso   1.00
C17    C     0.25719   0.23654   0.44984   0.00000  Uiso   1.00
C18    C     0.21335   0.22117   0.41892   0.00000  Uiso   1.00
C19    C     0.17753   0.16135   0.06648   0.00000  Uiso   1.00
C20    C     0.27804   0.21380   0.07900   0.00000  Uiso   1.00
Cu21   Cu    0.10710   0.16105   0.24435   0.00000  Uiso   1.00
Cu22   Cu    0.22623   0.17228   0.25564   0.00000  Uiso   1.00
F23    F     0.00667   0.21010   0.30112   0.00000  Uiso   1.00
F24    F     0.32669   0.12330   0.19883   0.00000  Uiso   1.00
F25    F     0.01366   0.26416   0.01143   0.00000  Uiso   1.00
F26    F     0.12925   0.12016   0.08258   0.00000  Uiso   1.00
F27    F     0.24812   0.01821   0.25823   0.00000  Uiso   1.00
H28    H     0.31194   0.22810   0.10310   0.00000  Uiso   1.00
H29    H     0.09832   0.32014   0.24341   0.00000  Uiso   1.00
H30    H     0.30104   0.26352   0.43489   0.00000  Uiso   1.00
H31    H     0.01669   0.12677   0.40061   0.00000  Uiso   1.00
H32    H     0.05719   0.14377   0.04905   0.00000  Uiso   1.00
H33    H     0.31674   0.11642   0.49327   0.00000  Uiso   1.00
H34    H     0.22460   0.23908   0.38203   0.00000  Uiso   1.00
N35    N     0.31574   0.18074   0.26416   0.00000  Uiso   1.00
N36    N     0.01759   0.15259   0.23584   0.00000  Uiso   1.00
O37    O     0.12797   0.23807   0.24633   0.00000  Uiso   1.00
O38    O     0.22858   0.24755   0.25586   0.00000  Uiso   1.00
O39    O     0.09181   0.15960   0.31839   0.00000  Uiso   1.00
O40    O     0.19242   0.16908   0.32793   0.00000  Uiso   1.00
O41    O     0.10476   0.08578   0.24413   0.00000  Uiso   1.00
O42    O     0.20536   0.09526   0.25367   0.00000  Uiso   1.00
O43    O     0.14092   0.16425   0.17207   0.00000  Uiso   1.00
O44    O     0.24152   0.17373   0.18160   0.00000  Uiso   1.00
C45    C     0.51515   0.26663   0.25161   0.00000  Uiso   1.00
C46    C     0.44599   0.16609   0.40344   0.00000  Uiso   1.00
C47    C     0.52415   0.32247   0.25253   0.00000  Uiso   1.00
C48    C     0.46662   0.16610   0.34724   0.00000  Uiso   1.00
C49    C     0.47706   0.01068   0.24785   0.00000  Uiso   1.00
C50    C     0.48497   0.06662   0.24852   0.00000  Uiso   1.00
C51    C     0.53377   0.17023   0.15296   0.00000  Uiso   1.00
C52    C     0.62416   0.23143   0.02923   0.00000  Uiso   1.00
C53    C     0.55415   0.17975   0.09808   0.00000  Uiso   1.00
C54    C     0.38398   0.14126   0.42464   0.00000  Uiso   1.00
C55    C     0.36518   0.13413   0.47703   0.00000  Uiso   1.00
C56    C     0.47236   0.17160   0.48821   0.00000  Uiso   1.00
C57    C     0.40869   0.14858   0.00857   0.00000  Uiso   1.00
C58    C     0.48881   0.18603   0.43624   0.00000  Uiso   1.00
C59    C     0.51957   0.18311   0.01823   0.00000  Uiso   1.00
C60    C     0.57842   0.21699   0.49890   0.00000  Uiso   1.00
C61    C     0.59052   0.23654   0.44984   0.00000  Uiso   1.00
C62    C     0.54668   0.22117   0.41892   0.00000  Uiso   1.00
C63    C     0.51086   0.16135   0.06648   0.00000  Uiso   1.00
C64    C     0.61137   0.21380   0.07900   0.00000  Uiso   1.00
Cu65   Cu    0.44043   0.16105   0.24435   0.00000  Uiso   1.00
Cu66   Cu    0.55957   0.17228   0.25564   0.00000  Uiso   1.00
F67    F     0.34000   0.21010   0.30112   0.00000  Uiso   1.00
F68    F     0.66002   0.12330   0.19883   0.00000  Uiso   1.00
F69    F     0.34699   0.26416   0.01143   0.00000  Uiso   1.00
F70    F     0.46258   0.12016   0.08258   0.00000  Uiso   1.00
F71    F     0.58146   0.01821   0.25823   0.00000  Uiso   1.00
H72    H     0.64528   0.22810   0.10310   0.00000  Uiso   1.00
H73    H     0.43165   0.32014   0.24341   0.00000  Uiso   1.00
H74    H     0.63437   0.26352   0.43489   0.00000  Uiso   1.00
H75    H     0.35003   0.12677   0.40061   0.00000  Uiso   1.00
H76    H     0.39052   0.14377   0.04905   0.00000  Uiso   1.00
H77    H     0.65007   0.11642   0.49327   0.00000  Uiso   1.00
H78    H     0.55794   0.23908   0.38203   0.00000  Uiso   1.00
N79    N     0.64908   0.18074   0.26416   0.00000  Uiso   1.00
N80    N     0.35092   0.15259   0.23584   0.00000  Uiso   1.00
O81    O     0.46131   0.23807   0.24633   0.00000  Uiso   1.00
O82    O     0.56191   0.24755   0.25586   0.00000  Uiso   1.00
O83    O     0.42515   0.15960   0.31839   0.00000  Uiso   1.00
O84    O     0.52575   0.16908   0.32793   0.00000  Uiso   1.00
O85    O     0.43809   0.08578   0.24413   0.00000  Uiso   1.00
O86    O     0.53869   0.09526   0.25367   0.00000  Uiso   1.00
O87    O     0.47425   0.16425   0.17207   0.00000  Uiso   1.00
O88    O     0.57485   0.17373   0.18160   0.00000  Uiso   1.00
C89    C     0.84849   0.26663   0.25161   0.00000  Uiso   1.00
C90    C     0.77932   0.16609   0.40344   0.00000  Uiso   1.00
C91    C     0.85749   0.32247   0.25253   0.00000  Uiso   1.00
C92    C     0.79996   0.16610   0.34724   0.00000  Uiso   1.00
C93    C     0.81039   0.01068   0.24785   0.00000  Uiso   1.00
C94    C     0.81831   0.06662   0.24852   0.00000  Uiso   1.00
C95    C     0.86711   0.17023   0.15296   0.00000  Uiso   1.00
C96    C     0.95749   0.23143   0.02923   0.00000  Uiso   1.00
C97    C     0.88748   0.17975   0.09808   0.00000  Uiso   1.00
C98    C     0.71732   0.14126   0.42464   0.00000  Uiso   1.00
C99    C     0.69851   0.13413   0.47703   0.00000  Uiso   1.00
C100   C     0.80570   0.17160   0.48821   0.00000  Uiso   1.00
C101   C     0.74203   0.14858   0.00857   0.00000  Uiso   1.00
C102   C     0.82214   0.18603   0.43624   0.00000  Uiso   1.00
C103   C     0.85290   0.18311   0.01823   0.00000  Uiso   1.00
C104   C     0.91175   0.21699   0.49890   0.00000  Uiso   1.00
C105   C     0.92385   0.23654   0.44984   0.00000  Uiso   1.00
C106   C     0.88002   0.22117   0.41892   0.00000  Uiso   1.00
C107   C     0.84420   0.16135   0.06648   0.00000  Uiso   1.00
C108   C     0.94470   0.21380   0.07900   0.00000  Uiso   1.00
Cu109  Cu    0.77377   0.16105   0.24435   0.00000  Uiso   1.00
Cu110  Cu    0.89290   0.17228   0.25564   0.00000  Uiso   1.00
F111   F     0.67334   0.21010   0.30112   0.00000  Uiso   1.00
F112   F     0.99336   0.12330   0.19883   0.00000  Uiso   1.00
F113   F     0.68032   0.26416   0.01143   0.00000  Uiso   1.00
F114   F     0.79592   0.12016   0.08258   0.00000  Uiso   1.00
F115   F     0.91479   0.01821   0.25823   0.00000  Uiso   1.00
H116   H     0.97861   0.22810   0.10310   0.00000  Uiso   1.00
H117   H     0.76499   0.32014   0.24341   0.00000  Uiso   1.00
H118   H     0.96771   0.26352   0.43489   0.00000  Uiso   1.00
H119   H     0.68336   0.12677   0.40061   0.00000  Uiso   1.00
H120   H     0.72385   0.14377   0.04905   0.00000  Uiso   1.00
H121   H     0.98340   0.11642   0.49327   0.00000  Uiso   1.00
H122   H     0.89127   0.23908   0.38203   0.00000  Uiso   1.00
N123   N     0.98241   0.18074   0.26416   0.00000  Uiso   1.00
N124   N     0.68426   0.15259   0.23584   0.00000  Uiso   1.00
O125   O     0.79464   0.23807   0.24633   0.00000  Uiso   1.00
O126   O     0.89524   0.24755   0.25586   0.00000  Uiso   1.00
O127   O     0.75848   0.15960   0.31839   0.00000  Uiso   1.00
O128   O     0.85908   0.16908   0.32793   0.00000  Uiso   1.00
O129   O     0.77142   0.08578   0.24413   0.00000  Uiso   1.00
O130   O     0.87203   0.09526   0.25367   0.00000  Uiso   1.00
O131   O     0.80758   0.16425   0.17207   0.00000  Uiso   1.00
O132   O     0.90819   0.17373   0.18160   0.00000  Uiso   1.00
C133   C     0.18182   0.59997   0.25161   0.00000  Uiso   1.00
C134   C     0.11265   0.49942   0.40344   0.00000  Uiso   1.00
C135   C     0.19082   0.65580   0.25253   0.00000  Uiso   1.00
C136   C     0.13329   0.49944   0.34724   0.00000  Uiso   1.00
C137   C     0.14373   0.34402   0.24785   0.00000  Uiso   1.00
C138   C     0.15164   0.39995   0.24852   0.00000  Uiso   1.00
C139   C     0.20044   0.50356   0.15296   0.00000  Uiso   1.00
C140   C     0.29082   0.56476   0.02923   0.00000  Uiso   1.00
C141   C     0.22082   0.51308   0.09808   0.00000  Uiso   1.00
C142   C     0.05065   0.47459   0.42464   0.00000  Uiso   1.00
C143   C     0.03185   0.46747   0.47703   0.00000  Uiso   1.00
C144   C     0.13903   0.50494   0.48821   0.00000  Uiso   1.00
C145   C     0.07536   0.48191   0.00857   0.00000  Uiso   1.00
C146   C     0.15548   0.51936   0.43624   0.00000  Uiso   1.00
C147   C     0.18623   0.51644   0.01823   0.00000  Uiso   1.00
C148   C     0.24509   0.55033   0.49890   0.00000  Uiso   1.00
C149   C     0.25719   0.56987   0.44984   0.00000  Uiso   1.00
C150   C     0.21335   0.55451   0.41892   0.00000  Uiso   1.00
C151   C     0.17753   0.49468   0.06648   0.00000  Uiso   1.00
C152   C     0.27804   0.54713   0.07900   0.00000  Uiso   1.00
Cu153  Cu    0.10710   0.49439   0.24435   0.00000  Uiso   1.00
Cu154  Cu    0.22623   0.50561   0.25564   0.00000  Uiso   1.00
F155   F     0.00667   0.54343   0.30112   0.00000  Uiso   1.00
F156   F     0.32669   0.45663   0.19883   0.00000  Uiso   1.00
F157   F     0.01366   0.59749   0.01143   0.00000  Uiso   1.00
F158   F     0.12925   0.45349   0.08258   0.00000  Uiso   1.00
F159   F     0.24812   0.35154   0.25823   0.00000  Uiso   1.00
H160   H     0.31194   0.56143   0.10310   0.00000  Uiso   1.00
H161   H     0.09832   0.65347   0.24341   0.00000  Uiso   1.00
H162   H     0.30104   0.59685   0.43489   0.00000  Uiso   1.00
H163   H     0.01669   0.46011   0.40061   0.00000  Uiso   1.00
H164   H     0.05719   0.47710   0.04905   0.00000  Uiso   1.00
H165   H     0.31674   0.44975   0.49327   0.00000  Uiso   1.00
H166   H     0.22460   0.57242   0.38203   0.00000  Uiso   1.00
N167   N     0.31574   0.51407   0.26416   0.00000  Uiso   1.00
N168   N     0.01759   0.48593   0.23584   0.00000  Uiso   1.00
O169   O     0.12797   0.57141   0.24633   0.00000  Uiso   1.00
O170   O     0.22858   0.58089   0.25586   0.00000  Uiso   1.00
O171   O     0.09181   0.49293   0.31839   0.00000  Uiso   1.00
O172   O     0.19242   0.50241   0.32793   0.00000  Uiso   1.00
O173   O     0.10476   0.41911   0.24413   0.00000  Uiso   1.00
O174   O     0.20536   0.42859   0.25367   0.00000  Uiso   1.00
O175   O     0.14092   0.49759   0.17207   0.00000  Uiso   1.00
O176   O     0.24152   0.50707   0.18160   0.00000  Uiso   1.00
C177   C     0.51515   0.59997   0.25161   0.00000  Uiso   1.00
C178   C     0.44599   0.49942   0.40344   0.00000  Uiso   1.00
C179   C     0.52415   0.65580   0.25253   0.00000  Uiso   1.00
C180   C     0.46662   0.49944   0.34724   0.00000  Uiso   1.00
C181   C     0.47706   0.34402   0.24785   0.00000  Uiso   1.00
C182   C     0.48497   0.39995   0.24852   0.00000  Uiso   1.00
C183   C     0.53377   0.50356   0.15296   0.00000  Uiso   1.00
C184   C     0.62416   0.56476   0.02923   0.00000  Uiso   1.00
C185   C     0.55415   0.51308   0.09808   0.00000  Uiso   1.00
C186   C     0.38398   0.47459   0.42464   0.00000  Uiso   1.00
C187   C     0.36518   0.46747   0.47703   0.00000  Uiso   1.00
C188   C     0.47236   0.50494   0.48821   0.00000  Uiso   1.00
C189   C     0.40869   0.48191   0.00857   0.00000  Uiso   1.00
C190   C     0.48881   0.51936   0.43624   0.00000  Uiso   1.00
C191   C     0.51957   0.51644   0.01823   0.00000  Uiso   1.00
C192   C     0.57842   0.55033   0.49890   0.00000  Uiso   1.00
C193   C     0.59052   0.56987   0.44984   0.00000  Uiso   1.00
C194   C     0.54668   0.55451   0.41892   0.00000  Uiso   1.00
C195   C     0.51086   0.49468   0.06648   0.00000  Uiso   1.00
C196   C     0.61137   0.54713   0.07900   0.00000  Uiso   1.00
Cu197  Cu    0.44043   0.49439   0.24435   0.00000  Uiso   1.00
Cu198  Cu    0.55957   0.50561   0.25564   0.00000  Uiso   1.00
F199   F     0.34000   0.54343   0.30112   0.00000  Uiso   1.00
F200   F     0.66002   0.45663   0.19883   0.00000  Uiso   1.00
F201   F     0.34699   0.59749   0.01143   0.00000  Uiso   1.00
F202   F     0.46258   0.45349   0.08258   0.00000  Uiso   1.00
F203   F     0.58146   0.35154   0.25823   0.00000  Uiso   1.00
H204   H     0.64528   0.56143   0.10310   0.00000  Uiso   1.00
H205   H     0.43165   0.65347   0.24341   0.00000  Uiso   1.00
H206   H     0.63437   0.59685   0.43489   0.00000  Uiso   1.00
H207   H     0.35003   0.46011   0.40061   0.00000  Uiso   1.00
H208   H     0.39052   0.47710   0.04905   0.00000  Uiso   1.00
H209   H     0.65007   0.44975   0.49327   0.00000  Uiso   1.00
H210   H     0.55794   0.57242   0.38203   0.00000  Uiso   1.00
N211   N     0.64908   0.51407   0.26416   0.00000  Uiso   1.00
N212   N     0.35092   0.48593   0.23584   0.00000  Uiso   1.00
O213   O     0.46131   0.57141   0.24633   0.00000  Uiso   1.00
O214   O     0.56191   0.58089   0.25586   0.00000  Uiso   1.00
O215   O     0.42515   0.49293   0.31839   0.00000  Uiso   1.00
O216   O     0.52575   0.50241   0.32793   0.00000  Uiso   1.00
O217   O     0.43809   0.41911   0.24413   0.00000  Uiso   1.00
O218   O     0.53869   0.42859   0.25367   0.00000  Uiso   1.00
O219   O     0.47425   0.49759   0.17207   0.00000  Uiso   1.00
O220   O     0.57485   0.50707   0.18160   0.00000  Uiso   1.00
C221   C     0.84849   0.59997   0.25161   0.00000  Uiso   1.00
C222   C     0.77932   0.49942   0.40344   0.00000  Uiso   1.00
C223   C     0.85749   0.65580   0.25253   0.00000  Uiso   1.00
C224   C     0.79996   0.49944   0.34724   0.00000  Uiso   1.00
C225   C     0.81039   0.34402   0.24785   0.00000  Uiso   1.00
C226   C     0.81831   0.39995   0.24852   0.00000  Uiso   1.00
C227   C     0.86711   0.50356   0.15296   0.00000  Uiso   1.00
C228   C     0.95749   0.56476   0.02923   0.00000  Uiso   1.00
C229   C     0.88748   0.51308   0.09808   0.00000  Uiso   1.00
C230   C     0.71732   0.47459   0.42464   0.00000  Uiso   1.00
C231   C     0.69851   0.46747   0.47703   0.00000  Uiso   1.00
C232   C     0.80570   0.50494   0.48821   0.00000  Uiso   1.00
C233   C     0.74203   0.48191   0.00857   0.00000  Uiso   1.00
C234   C     0.82214   0.51936   0.43624   0.00000  Uiso   1.00
C235   C     0.85290   0.51644   0.01823   0.00000  Uiso   1.00
C236   C     0.91175   0.55033   0.49890   0.00000  Uiso   1.00
C237   C     0.92385   0.56987   0.44984   0.00000  Uiso   1.00
C238   C     0.88002   0.55451   0.41892   0.00000  Uiso   1.00
C239   C     0.84420   0.49468   0.06648   0.00000  Uiso   1.00
C240   C     0.94470   0.54713   0.07900   0.00000  Uiso   1.00
Cu241  Cu    0.77377   0.49439   0.24435   0.00000  Uiso   1.00
Cu242  Cu    0.89290   0.50561   0.25564   0.00000  Uiso   1.00
F243   F     0.67334   0.54343   0.30112   0.00000  Uiso   1.00
F244   F     0.99336   0.45663   0.19883   0.00000  Uiso   1.00
F245   F     0.68032   0.59749   0.01143   0.00000  Uiso   1.00
F246   F     0.79592   0.45349   0.08258   0.00000  Uiso   1.00
F247   F     0.91479   0.35154   0.25823   0.00000  Uiso   1.00
H248   H     0.97861   0.56143   0.10310   0.00000  Uiso   1.00
H249   H     0.76499   0.65347   0.24341   0.00000  Uiso   1.00
H250   H     0.96771   0.59685   0.43489   0.00000  Uiso   1.00
H251   H     0.68336   0.46011   0.40061   0.00000  Uiso   1.00
H252   H     0.72385   0.47710   0.04905   0.00000  Uiso   1.00
H253   H     0.98340   0.44975   0.49327   0.00000  Uiso   1.00
H254   H     0.89127   0.57242   0.38203   0.00000  Uiso   1.00
N255   N     0.98241   0.51407   0.26416   0.00000  Uiso   1.00
N256   N     0.68426   0.48593   0.23584   0.00000  Uiso   1.00
O257   O     0.79464   0.57141   0.24633   0.00000  Uiso   1.00
O258   O     0.89524   0.58089   0.25586   0.00000  Uiso   1.00
O259   O     0.75848   0.49293   0.31839   0.00000  Uiso   1.00
O260   O     0.85908   0.50241   0.32793   0.00000  Uiso   1.00
O261   O     0.77142   0.41911   0.24413   0.00000  Uiso   1.00
O262   O     0.87203   0.42859   0.25367   0.00000  Uiso   1.00
O263   O     0.80758   0.49759   0.17207   0.00000  Uiso   1.00
O264   O     0.90819   0.50707   0.18160   0.00000  Uiso   1.00
C265   C     0.18182   0.93330   0.25161   0.00000  Uiso   1.00
C266   C     0.11265   0.83275   0.40344   0.00000  Uiso   1.00
C267   C     0.19082   0.98913   0.25253   0.00000  Uiso   1.00
C268   C     0.13329   0.83277   0.34724   0.00000  Uiso   1.00
C269   C     0.14373   0.67735   0.24785   0.00000  Uiso   1.00
C270   C     0.15164   0.73329   0.24852   0.00000  Uiso   1.00
C271   C     0.20044   0.83689   0.15296   0.00000  Uiso   1.00
C272   C     0.29082   0.89810   0.02923   0.00000  Uiso   1.00
C273   C     0.22082   0.84641   0.09808   0.00000  Uiso   1.00
C274   C     0.05065   0.80792   0.42464   0.00000  Uiso   1.00
C275   C     0.03185   0.80080   0.47703   0.00000  Uiso   1.00
C276   C     0.13903   0.83827   0.48821   0.00000  Uiso   1.00
C277   C     0.07536   0.81525   0.00857   0.00000  Uiso   1.00
C278   C     0.15548   0.85270   0.43624   0.00000  Uiso   1.00
C279   C     0.18623   0.84977   0.01823   0.00000  Uiso   1.00
C280   C     0.24509   0.88366   0.49890   0.00000  Uiso   1.00
C281   C     0.25719   0.90321   0.44984   0.00000  Uiso   1.00
C282   C     0.21335   0.88784   0.41892   0.00000  Uiso   1.00
C283   C     0.17753   0.82801   0.06648   0.00000  Uiso   1.00
C284   C     0.27804   0.88046   0.07900   0.00000  Uiso   1.00
Cu285  Cu    0.10710   0.82772   0.24435   0.00000  Uiso   1.00
Cu286  Cu    0.22623   0.83895   0.25564   0.00000  Uiso   1.00
F287   F     0.00667   0.87677   0.30112   0.00000  Uiso   1.00
F288   F     0.32669   0.78997   0.19883   0.00000  Uiso   1.00
F289   F     0.01366   0.93082   0.01143   0.00000  Uiso   1.00
F290   F     0.12925   0.78683   0.08258   0.00000  Uiso   1.00
F291   F     0.24812   0.68488   0.25823   0.00000  Uiso   1.00
H292   H     0.31194   0.89476   0.10310   0.00000  Uiso   1.00
H293   H     0.09832   0.98680   0.24341   0.00000  Uiso   1.00
H294   H     0.30104   0.93018   0.43489   0.00000  Uiso   1.00
H295   H     0.01669   0.79344   0.40061   0.00000  Uiso   1.00
H296   H     0.05719   0.81043   0.04905   0.00000  Uiso   1.00
H297   H     0.31674   0.78309   0.49327   0.00000  Uiso   1.00
H298   H     0.22460   0.90575   0.38203   0.00000  Uiso   1.00
N299   N     0.31574   0.84741   0.26416   0.00000  Uiso   1.00
N300   N     0.01759   0.81926   0.23584   0.00000  Uiso   1.00
O301   O     0.12797   0.90474   0.24633   0.00000  Uiso   1.00
O302   O     0.22858   0.91422   0.25586   0.00000  Uiso   1.00
O303   O     0.09181   0.82627   0.31839   0.00000  Uiso   1.00
O304   O     0.19242   0.83575   0.32793   0.00000  Uiso   1.00
O305   O     0.10476   0.75245   0.24413   0.00000  Uiso   1.00
O306   O     0.20536   0.76193   0.25367   0.00000  Uiso   1.00
O307   O     0.14092   0.83092   0.17207   0.00000  Uiso   1.00
O308   O     0.24152   0.84040   0.18160   0.00000  Uiso   1.00
C309   C     0.51515   0.93330   0.25161   0.00000  Uiso   1.00
C310   C     0.44599   0.83275   0.40344   0.00000  Uiso   1.00
C311   C     0.52415   0.98913   0.25253   0.00000  Uiso   1.00
C312   C     0.46662   0.83277   0.34724   0.00000  Uiso   1.00
C313   C     0.47706   0.67735   0.24785   0.00000  Uiso   1.00
C314   C     0.48497   0.73329   0.24852   0.00000  Uiso   1.00
C315   C     0.53377   0.83689   0.15296   0.00000  Uiso   1.00
C316   C     0.62416   0.89810   0.02923   0.00000  Uiso   1.00
C317   C     0.55415   0.84641   0.09808   0.00000  Uiso   1.00
C318   C     0.38398   0.80792   0.42464   0.00000  Uiso   1.00
C319   C     0.36518   0.80080   0.47703   0.00000  Uiso   1.00
C320   C     0.47236   0.83827   0.48821   0.00000  Uiso   1.00
C321   C     0.40869   0.81525   0.00857   0.00000  Uiso   1.00
C322   C     0.48881   0.85270   0.43624   0.00000  Uiso   1.00
C323   C     0.51957   0.84977   0.01823   0.00000  Uiso   1.00
C324   C     0.57842   0.88366   0.49890   0.00000  Uiso   1.00
C325   C     0.59052   0.90321   0.44984   0.00000  Uiso   1.00
C326   C     0.54668   0.88784   0.41892   0.00000  Uiso   1.00
C327   C     0.51086   0.82801   0.06648   0.00000  Uiso   1.00
C328   C     0.61137   0.88046   0.07900   0.00000  Uiso   1.00
Cu329  Cu    0.44043   0.82772   0.24435   0.00000  Uiso   1.00
Cu330  Cu    0.55957   0.83895   0.25564   0.00000  Uiso   1.00
F331   F     0.34000   0.87677   0.30112   0.00000  Uiso   1.00
F332   F     0.66002   0.78997   0.19883   0.00000  Uiso   1.00
F333   F     0.34699   0.93082   0.01143   0.00000  Uiso   1.00
F334   F     0.46258   0.78683   0.08258   0.00000  Uiso   1.00
F335   F     0.58146   0.68488   0.25823   0.00000  Uiso   1.00
H336   H     0.64528   0.89476   0.10310   0.00000  Uiso   1.00
H337   H     0.43165   0.98680   0.24341   0.00000  Uiso   1.00
H338   H     0.63437   0.93018   0.43489   0.00000  Uiso   1.00
H339   H     0.35003   0.79344   0.40061   0.00000  Uiso   1.00
H340   H     0.39052   0.81043   0.04905   0.00000  Uiso   1.00
H341   H     0.65007   0.78309   0.49327   0.00000  Uiso   1.00
H342   H     0.55794   0.90575   0.38203   0.00000  Uiso   1.00
N343   N     0.64908   0.84741   0.26416   0.00000  Uiso   1.00
N344   N     0.35092   0.81926   0.23584   0.00000  Uiso   1.00
O345   O     0.46131   0.90474   0.24633   0.00000  Uiso   1.00
O346   O     0.56191   0.91422   0.25586   0.00000  Uiso   1.00
O347   O     0.42515   0.82627   0.31839   0.00000  Uiso   1.00
O348   O     0.52575   0.83575   0.32793   0.00000  Uiso   1.00
O349   O     0.43809   0.75245   0.24413   0.00000  Uiso   1.00
O350   O     0.53869   0.76193   0.25367   0.00000  Uiso   1.00
O351   O     0.47425   0.83092   0.17207   0.00000  Uiso   1.00
O352   O     0.57485   0.84040   0.18160   0.00000  Uiso   1.00
C353   C     0.84849   0.93330   0.25161   0.00000  Uiso   1.00
C354   C     0.77932   0.83275   0.40344   0.00000  Uiso   1.00
C355   C     0.85749   0.98913   0.25253   0.00000  Uiso   1.00
C356   C     0.79996   0.83277   0.34724   0.00000  Uiso   1.00
C357   C     0.81039   0.67735   0.24785   0.00000  Uiso   1.00
C358   C     0.81831   0.73329   0.24852   0.00000  Uiso   1.00
C359   C     0.86711   0.83689   0.15296   0.00000  Uiso   1.00
C360   C     0.95749   0.89810   0.02923   0.00000  Uiso   1.00
C361   C     0.88748   0.84641   0.09808   0.00000  Uiso   1.00
C362   C     0.71732   0.80792   0.42464   0.00000  Uiso   1.00
C363   C     0.69851   0.80080   0.47703   0.00000  Uiso   1.00
C364   C     0.80570   0.83827   0.48821   0.00000  Uiso   1.00
C365   C     0.74203   0.81525   0.00857   0.00000  Uiso   1.00
C366   C     0.82214   0.85270   0.43624   0.00000  Uiso   1.00
C367   C     0.85290   0.84977   0.01823   0.00000  Uiso   1.00
C368   C     0.91175   0.88366   0.49890   0.00000  Uiso   1.00
C369   C     0.92385   0.90321   0.44984   0.00000  Uiso   1.00
C370   C     0.88002   0.88784   0.41892   0.00000  Uiso   1.00
C371   C     0.84420   0.82801   0.06648   0.00000  Uiso   1.00
C372   C     0.94470   0.88046   0.07900   0.00000  Uiso   1.00
Cu373  Cu    0.77377   0.82772   0.24435   0.00000  Uiso   1.00
Cu374  Cu    0.89290   0.83895   0.25564   0.00000  Uiso   1.00
F375   F     0.67334   0.87677   0.30112   0.00000  Uiso   1.00
F376   F     0.99336   0.78997   0.19883   0.00000  Uiso   1.00
F377   F     0.68032   0.93082   0.01143   0.00000  Uiso   1.00
F378   F     0.79592   0.78683   0.08258   0.00000  Uiso   1.00
F379   F     0.91479   0.68488   0.25823   0.00000  Uiso   1.00
H380   H     0.97861   0.89476   0.10310   0.00000  Uiso   1.00
H381   H     0.76499   0.98680   0.24341   0.00000  Uiso   1.00
H382   H     0.96771   0.93018   0.43489   0.00000  Uiso   1.00
H383   H     0.68336   0.79344   0.40061   0.00000  Uiso   1.00
H384   H     0.72385   0.81043   0.04905   0.00000  Uiso   1.00
H385   H     0.98340   0.78309   0.49327   0.00000  Uiso   1.00
H386   H     0.89127   0.90575   0.38203   0.00000  Uiso   1.00
N387   N     0.98241   0.84741   0.26416   0.00000  Uiso   1.00
N388   N     0.68426   0.81926   0.23584   0.00000  Uiso   1.00
O389   O     0.79464   0.90474   0.24633   0.00000  Uiso   1.00
O390   O     0.89524   0.91422   0.25586   0.00000  Uiso   1.00
O391   O     0.75848   0.82627   0.31839   0.00000  Uiso   1.00
O392   O     0.85908   0.83575   0.32793   0.00000  Uiso   1.00
O393   O     0.77142   0.75245   0.24413   0.00000  Uiso   1.00
O394   O     0.87203   0.76193   0.25367   0.00000  Uiso   1.00
O395   O     0.80758   0.83092   0.17207   0.00000  Uiso   1.00
O396   O     0.90819   0.84040   0.18160   0.00000  Uiso   1.00
C397   C     0.18182   0.26663   0.75161   0.00000  Uiso   1.00
C398   C     0.11265   0.16609   0.90344   0.00000  Uiso   1.00
C399   C     0.19082   0.32247   0.75253   0.00000  Uiso   1.00
C400   C     0.13329   0.16610   0.84724   0.00000  Uiso   1.00
C401   C     0.14373   0.01068   0.74785   0.00000  Uiso   1.00
C402   C     0.15164   0.06662   0.74852   0.00000  Uiso   1.00
C403   C     0.20044   0.17023   0.65296   0.00000  Uiso   1.00
C404   C     0.29082   0.23143   0.52923   0.00000  Uiso   1.00
C405   C     0.22082   0.17975   0.59808   0.00000  Uiso   1.00
C406   C     0.05065   0.14126   0.92464   0.00000  Uiso   1.00
C407   C     0.03185   0.13413   0.97703   0.00000  Uiso   1.00
C408   C     0.13903   0.17160   0.98821   0.00000  Uiso   1.00
C409   C     0.07536   0.14858   0.50857   0.00000  Uiso   1.00
C410   C     0.15548   0.18603   0.93624   0.00000  Uiso   1.00
C411   C     0.18623   0.18311   0.51823   0.00000  Uiso   1.00
C412   C     0.24509   0.21699   0.99890   0.00000  Uiso   1.00
C413   C     0.25719   0.23654   0.94984   0.00000  Uiso   1.00
C414   C     0.21335   0.22117   0.91892   0.00000  Uiso   1.00
C415   C     0.17753   0.16135   0.56648   0.00000  Uiso   1.00
C416   C     0.27804   0.21380   0.57900   0.00000  Uiso   1.00
Cu417  Cu    0.10710   0.16105   0.74435   0.00000  Uiso   1.00
Cu418  Cu    0.22623   0.17228   0.75564   0.00000  Uiso   1.00
F419   F     0.00667   0.21010   0.80112   0.00000  Uiso   1.00
F420   F     0.32669   0.12330   0.69883   0.00000  Uiso   1.00
F421   F     0.01366   0.26416   0.51143   0.00000  Uiso   1.00
F422   F     0.12925   0.12016   0.58258   0.00000  Uiso   1.00
F423   F     0.24812   0.01821   0.75823   0.00000  Uiso   1.00
H424   H     0.31194   0.22810   0.60310   0.00000  Uiso   1.00
H425   H     0.09832   0.32014   0.74341   0.00000  Uiso   1.00
H426   H     0.30104   0.26352   0.93489   0.00000  Uiso   1.00
H427   H     0.01669   0.12677   0.90061   0.00000  Uiso   1.00
H428   H     0.05719   0.14377   0.54905   0.00000  Uiso   1.00
H429   H     0.31674   0.11642   0.99327   0.00000  Uiso   1.00
H430   H     0.22460   0.23908   0.88203   0.00000  Uiso   1.00
N431   N     0.31574   0.18074   0.76416   0.00000  Uiso   1.00
N432   N     0.01759   0.15259   0.73584   0.00000  Uiso   1.00
O433   O     0.12797   0.23807   0.74633   0.00000  Uiso   1.00
O434   O     0.22858   0.24755   0.75586   0.00000  Uiso   1.00
O435   O     0.09181   0.15960   0.81839   0.00000  Uiso   1.00
O436   O     0.19242   0.16908   0.82793   0.00000  Uiso   1.00
O437   O     0.10476   0.08578   0.74413   0.00000  Uiso   1.00
O438   O     0.20536   0.09526   0.75367   0.00000  Uiso   1.00
O439   O     0.14092   0.16425   0.67207   0.00000  Uiso   1.00
O440   O     0.24152   0.17373   0.68160   0.00000  Uiso   1.00
C441   C     0.51515   0.26663   0.75161   0.00000  Uiso   1.00
C442   C     0.44599   0.16609   0.90344   0.00000  Uiso   1.00
C443   C     0.52415   0.32247   0.75253   0.00000  Uiso   1.00
C444   C     0.46662   0.16610   0.84724   0.00000  Uiso   1.00
C445   C     0.47706   0.01068   0.74785   0.00000  Uiso   1.00
C446   C     0.48497   0.06662   0.74852   0.00000  Uiso   1.00
C447   C     0.53377   0.17023   0.65296   0.00000  Uiso   1.00
C448   C     0.62416   0.23143   0.52923   0.00000  Uiso   1.00
C449   C     0.55415   0.17975   0.59808   0.00000  Uiso   1.00
C450   C     0.38398   0.14126   0.92464   0.00000  Uiso   1.00
C451   C     0.36518   0.13413   0.97703   0.00000  Uiso   1.00
C452   C     0.47236   0.17160   0.98821   0.00000  Uiso   1.00
C453   C     0.40869   0.14858   0.50857   0.00000  Uiso   1.00
C454   C     0.48881   0.18603   0.93624   0.00000  Uiso   1.00
C455   C     0.51957   0.18311   0.51823   0.00000  Uiso   1.00
C456   C     0.57842   0.21699   0.99890   0.00000  Uiso   1.00
C457   C     0.59052   0.23654   0.94984   0.00000  Uiso   1.00
C458   C     0.54668   0.22117   0.91892   0.00000  Uiso   1.00
C459   C     0.51086   0.16135   0.56648   0.00000  Uiso   1.00
C460   C     0.61137   0.21380   0.57900   0.00000  Uiso   1.00
Cu461  Cu    0.44043   0.16105   0.74435   0.00000  Uiso   1.00
Cu462  Cu    0.55957   0.17228   0.75564   0.00000  Uiso   1.00
F463   F     0.34000   0.21010   0.80112   0.00000  Uiso   1.00
F464   F     0.66002   0.12330   0.69883   0.00000  Uiso   1.00
F465   F     0.34699   0.26416   0.51143   0.00000  Uiso   1.00
F466   F     0.46258   0.12016   0.58258   0.00000  Uiso   1.00
F467   F     0.58146   0.01821   0.75823   0.00000  Uiso   1.00
H468   H     0.64528   0.22810   0.60310   0.00000  Uiso   1.00
H469   H     0.43165   0.32014   0.74341   0.00000  Uiso   1.00
H470   H     0.63437   0.26352   0.93489   0.00000  Uiso   1.00
H471   H     0.35003   0.12677   0.90061   0.00000  Uiso   1.00
H472   H     0.39052   0.14377   0.54905   0.00000  Uiso   1.00
H473   H     0.65007   0.11642   0.99327   0.00000  Uiso   1.00
H474   H     0.55794   0.23908   0.88203   0.00000  Uiso   1.00
N475   N     0.64908   0.18074   0.76416   0.00000  Uiso   1.00
N476   N     0.35092   0.15259   0.73584   0.00000  Uiso   1.00
O477   O     0.46131   0.23807   0.74633   0.00000  Uiso   1.00
O478   O     0.56191   0.24755   0.75586   0.00000  Uiso   1.00
O479   O     0.42515   0.15960   0.81839   0.00000  Uiso   1.00
O480   O     0.52575   0.16908   0.82793   0.00000  Uiso   1.00
O481   O     0.43809   0.08578   0.74413   0.00000  Uiso   1.00
O482   O     0.53869   0.09526   0.75367   0.00000  Uiso   1.00
O483   O     0.47425   0.16425   0.67207   0.00000  Uiso   1.00
O484   O     0.57485   0.17373   0.68160   0.00000  Uiso   1.00
C485   C     0.84849   0.26663   0.75161   0.00000  Uiso   1.00
C486   C     0.77932   0.16609   0.90344   0.00000  Uiso   1.00
C487   C     0.85749   0.32247   0.75253   0.00000  Uiso   1.00
C488   C     0.79996   0.16610   0.84724   0.00000  Uiso   1.00
C489   C     0.81039   0.01068   0.74785   0.00000  Uiso   1.00
C490   C     0.81831   0.06662   0.74852   0.00000  Uiso   1.00
C491   C     0.86711   0.17023   0.65296   0.00000  Uiso   1.00
C492   C     0.95749   0.23143   0.52923   0.00000  Uiso   1.00
C493   C     0.88748   0.17975   0.59808   0.00000  Uiso   1.00
C494   C     0.71732   0.14126   0.92464   0.00000  Uiso   1.00
C495   C     0.69851   0.13413   0.97703   0.00000  Uiso   1.00
C496   C     0.80570   0.17160   0.98821   0.00000  Uiso   1.00
C497   C     0.74203   0.14858   0.50857   0.00000  Uiso   1.00
C498   C     0.82214   0.18603   0.93624   0.00000  Uiso   1.00
C499   C     0.85290   0.18311   0.51823   0.00000  Uiso   1.00
C500   C     0.91175   0.21699   0.99890   0.00000  Uiso   1.00
C501   C     0.92385   0.23654   0.94984   0.00000  Uiso   1.00
C502   C     0.88002   0.22117   0.91892   0.00000  Uiso   1.00
C503   C     0.84420   0.16135   0.56648   0.00000  Uiso   1.00
C504   C     0.94470   0.21380   0.57900   0.00000  Uiso   1.00
Cu505  Cu    0.77377   0.16105   0.74435   0.00000  Uiso   1.00
Cu506  Cu    0.89290   0.17228   0.75564   0.00000  Uiso   1.00
F507   F     0.67334   0.21010   0.80112   0.00000  Uiso   1.00
F508   F     0.99336   0.12330   0.69883   0.00000  Uiso   1.00
F509   F     0.68032   0.26416   0.51143   0.00000  Uiso   1.00
F510   F     0.79592   0.12016   0.58258   0.00000  Uiso   1.00
F511   F     0.91479   0.01821   0.75823   0.00000  Uiso   1.00
H512   H     0.97861   0.22810   0.60310   0.00000  Uiso   1.00
H513   H     0.76499   0.32014   0.74341   0.00000  Uiso   1.00
H514   H     0.96771   0.26352   0.93489   0.00000  Uiso   1.00
H515   H     0.68336   0.12677   0.90061   0.00000  Uiso   1.00
H516   H     0.72385   0.14377   0.54905   0.00000  Uiso   1.00
H517   H     0.98340   0.11642   0.99327   0.00000  Uiso   1.00
H518   H     0.89127   0.23908   0.88203   0.00000  Uiso   1.00
N519   N     0.98241   0.18074   0.76416   0.00000  Uiso   1.00
N520   N     0.68426   0.15259   0.73584   0.00000  Uiso   1.00
O521   O     0.79464   0.23807   0.74633   0.00000  Uiso   1.00
O522   O     0.89524   0.24755   0.75586   0.00000  Uiso   1.00
O523   O     0.75848   0.15960   0.81839   0.00000  Uiso   1.00
O524   O     0.85908   0.16908   0.82793   0.00000  Uiso   1.00
O525   O     0.77142   0.08578   0.74413   0.00000  Uiso   1.00
O526   O     0.87203   0.09526   0.75367   0.00000  Uiso   1.00
O527   O     0.80758   0.16425   0.67207   0.00000  Uiso   1.00
O528   O     0.90819   0.17373   0.68160   0.00000  Uiso   1.00
C529   C     0.18182   0.59997   0.75161   0.00000  Uiso   1.00
C530   C     0.11265   0.49942   0.90344   0.00000  Uiso   1.00
C531   C     0.19082   0.65580   0.75253   0.00000  Uiso   1.00
C532   C     0.13329   0.49944   0.84724   0.00000  Uiso   1.00
C533   C     0.14373   0.34402   0.74785   0.00000  Uiso   1.00
C534   C     0.15164   0.39995   0.74852   0.00000  Uiso   1.00
C535   C     0.20044   0.50356   0.65296   0.00000  Uiso   1.00
C536   C     0.29082   0.56476   0.52923   0.00000  Uiso   1.00
C537   C     0.22082   0.51308   0.59808   0.00000  Uiso   1.00
C538   C     0.05065   0.47459   0.92464   0.00000  Uiso   1.00
C539   C     0.03185   0.46747   0.97703   0.00000  Uiso   1.00
C540   C     0.13903   0.50494   0.98821   0.00000  Uiso   1.00
C541   C     0.07536   0.48191   0.50857   0.00000  Uiso   1.00
C542   C     0.15548   0.51936   0.93624   0.00000  Uiso   1.00
C543   C     0.18623   0.51644   0.51823   0.00000  Uiso   1.00
C544   C     0.24509   0.55033   0.99890   0.00000  Uiso   1.00
C545   C     0.25719   0.56987   0.94984   0.00000  Uiso   1.00
C546   C     0.21335   0.55451   0.91892   0.00000  Uiso   1.00
C547   C     0.17753   0.49468   0.56648   0.00000  Uiso   1.00
C548   C     0.27804   0.54713   0.57900   0.00000  Uiso   1.00
Cu549  Cu    0.10710   0.49439   0.74435   0.00000  Uiso   1.00
Cu550  Cu    0.22623   0.50561   0.75564   0.00000  Uiso   1.00
F551   F     0.00667   0.54343   0.80112   0.00000  Uiso   1.00
F552   F     0.32669   0.45663   0.69883   0.00000  Uiso   1.00
F553   F     0.01366   0.59749   0.51143   0.00000  Uiso   1.00
F554   F     0.12925   0.45349   0.58258   0.00000  Uiso   1.00
F555   F     0.24812   0.35154   0.75823   0.00000  Uiso   1.00
H556   H     0.31194   0.56143   0.60310   0.00000  Uiso   1.00
H557   H     0.09832   0.65347   0.74341   0.00000  Uiso   1.00
H558   H     0.30104   0.59685   0.93489   0.00000  Uiso   1.00
H559   H     0.01669   0.46011   0.90061   0.00000  Uiso   1.00
H560   H     0.05719   0.47710   0.54905   0.00000  Uiso   1.00
H561   H     0.31674   0.44975   0.99327   0.00000  Uiso   1.00
H562   H     0.22460   0.57242   0.88203   0.00000  Uiso   1.00
N563   N     0.31574   0.51407   0.76416   0.00000  Uiso   1.00
N564   N     0.01759   0.48593   0.73584   0.00000  Uiso   1.00
O565   O     0.12797   0.57141   0.74633   0.00000  Uiso   1.00
O566   O     0.22858   0.58089   0.75586   0.00000  Uiso   1.00
O567   O     0.09181   0.49293   0.81839   0.00000  Uiso   1.00
O568   O     0.19242   0.50241   0.82793   0.00000  Uiso   1.00
O569   O     0.10476   0.41911   0.74413   0.00000  Uiso   1.00
O570   O     0.20536   0.42859   0.75367   0.00000  Uiso   1.00
O571   O     0.14092   0.49759   0.67207   0.00000  Uiso   1.00
O572   O     0.24152   0.50707   0.68160   0.00000  Uiso   1.00
C573   C     0.51515   0.59997   0.75161   0.00000  Uiso   1.00
C574   C     0.44599   0.49942   0.90344   0.00000  Uiso   1.00
C575   C     0.52415   0.65580   0.75253   0.00000  Uiso   1.00
C576   C     0.46662   0.49944   0.84724   0.00000  Uiso   1.00
C577   C     0.47706   0.34402   0.74785   0.00000  Uiso   1.00
C578   C     0.48497   0.39995   0.74852   0.00000  Uiso   1.00
C579   C     0.53377   0.50356   0.65296   0.00000  Uiso   1.00
C580   C     0.62416   0.56476   0.52923   0.00000  Uiso   1.00
C581   C     0.55415   0.51308   0.59808   0.00000  Uiso   1.00
C582   C     0.38398   0.47459   0.92464   0.00000  Uiso   1.00
C583   C     0.36518   0.46747   0.97703   0.00000  Uiso   1.00
C584   C     0.47236   0.50494   0.98821   0.00000  Uiso   1.00
C585   C     0.40869   0.48191   0.50857   0.00000  Uiso   1.00
C586   C     0.48881   0.51936   0.93624   0.00000  Uiso   1.00
C587   C     0.51957   0.51644   0.51823   0.00000  Uiso   1.00
C588   C     0.57842   0.55033   0.99890   0.00000  Uiso   1.00
C589   C     0.59052   0.56987   0.94984   0.00000  Uiso   1.00
C590   C     0.54668   0.55451   0.91892   0.00000  Uiso   1.00
C591   C     0.51086   0.49468   0.56648   0.00000  Uiso   1.00
C592   C     0.61137   0.54713   0.57900   0.00000  Uiso   1.00
Cu593  Cu    0.44043   0.49439   0.74435   0.00000  Uiso   1.00
Cu594  Cu    0.55957   0.50561   0.75564   0.00000  Uiso   1.00
F595   F     0.34000   0.54343   0.80112   0.00000  Uiso   1.00
F596   F     0.66002   0.45663   0.69883   0.00000  Uiso   1.00
F597   F     0.34699   0.59749   0.51143   0.00000  Uiso   1.00
F598   F     0.46258   0.45349   0.58258   0.00000  Uiso   1.00
F599   F     0.58146   0.35154   0.75823   0.00000  Uiso   1.00
H600   H     0.64528   0.56143   0.60310   0.00000  Uiso   1.00
H601   H     0.43165   0.65347   0.74341   0.00000  Uiso   1.00
H602   H     0.63437   0.59685   0.93489   0.00000  Uiso   1.00
H603   H     0.35003   0.46011   0.90061   0.00000  Uiso   1.00
H604   H     0.39052   0.47710   0.54905   0.00000  Uiso   1.00
H605   H     0.65007   0.44975   0.99327   0.00000  Uiso   1.00
H606   H     0.55794   0.57242   0.88203   0.00000  Uiso   1.00
N607   N     0.64908   0.51407   0.76416   0.00000  Uiso   1.00
N608   N     0.35092   0.48593   0.73584   0.00000  Uiso   1.00
O609   O     0.46131   0.57141   0.74633   0.00000  Uiso   1.00
O610   O     0.56191   0.58089   0.75586   0.00000  Uiso   1.00
O611   O     0.42515   0.49293   0.81839   0.00000  Uiso   1.00
O612   O     0.52575   0.50241   0.82793   0.00000  Uiso   1.00
O613   O     0.43809   0.41911   0.74413   0.00000  Uiso   1.00
O614   O     0.53869   0.42859   0.75367   0.00000  Uiso   1.00
O615   O     0.47425   0.49759   0.67207   0.00000  Uiso   1.00
O616   O     0.57485   0.50707   0.68160   0.00000  Uiso   1.00
C617   C     0.84849   0.59997   0.75161   0.00000  Uiso   1.00
C618   C     0.77932   0.49942   0.90344   0.00000  Uiso   1.00
C619   C     0.85749   0.65580   0.75253   0.00000  Uiso   1.00
C620   C     0.79996   0.49944   0.84724   0.00000  Uiso   1.00
C621   C     0.81039   0.34402   0.74785   0.00000  Uiso   1.00
C622   C     0.81831   0.39995   0.74852   0.00000  Uiso   1.00
C623   C     0.86711   0.50356   0.65296   0.00000  Uiso   1.00
C624   C     0.95749   0.56476   0.52923   0.00000  Uiso   1.00
C625   C     0.88748   0.51308   0.59808   0.00000  Uiso   1.00
C626   C     0.71732   0.47459   0.92464   0.00000  Uiso   1.00
C627   C     0.69851   0.46747   0.97703   0.00000  Uiso   1.00
C628   C     0.80570   0.50494   0.98821   0.00000  Uiso   1.00
C629   C     0.74203   0.48191   0.50857   0.00000  Uiso   1.00
C630   C     0.82214   0.51936   0.93624   0.00000  Uiso   1.00
C631   C     0.85290   0.51644   0.51823   0.00000  Uiso   1.00
C632   C     0.91175   0.55033   0.99890   0.00000  Uiso   1.00
C633   C     0.92385   0.56987   0.94984   0.00000  Uiso   1.00
C634   C     0.88002   0.55451   0.91892   0.00000  Uiso   1.00
C635   C     0.84420   0.49468   0.56648   0.00000  Uiso   1.00
C636   C     0.94470   0.54713   0.57900   0.00000  Uiso   1.00
Cu637  Cu    0.77377   0.49439   0.74435   0.00000  Uiso   1.00
Cu638  Cu    0.89290   0.50561   0.75564   0.00000  Uiso   1.00
F639   F     0.67334   0.54343   0.80112   0.00000  Uiso   1.00
F640   F     0.99336   0.45663   0.69883   0.00000  Uiso   1.00
F641   F     0.68032   0.59749   0.51143   0.00000  Uiso   1.00
F642   F     0.79592   0.45349   0.58258   0.00000  Uiso   1.00
F643   F     0.91479   0.35154   0.75823   0.00000  Uiso   1.00
H644   H     0.97861   0.56143   0.60310   0.00000  Uiso   1.00
H645   H     0.76499   0.65347   0.74341   0.00000  Uiso   1.00
H646   H     0.96771   0.59685   0.93489   0.00000  Uiso   1.00
H647   H     0.68336   0.46011   0.90061   0.00000  Uiso   1.00
H648   H     0.72385   0.47710   0.54905   0.00000  Uiso   1.00
H649   H     0.98340   0.44975   0.99327   0.00000  Uiso   1.00
H650   H     0.89127   0.57242   0.88203   0.00000  Uiso   1.00
N651   N     0.98241   0.51407   0.76416   0.00000  Uiso   1.00
N652   N     0.68426   0.48593   0.73584   0.00000  Uiso   1.00
O653   O     0.79464   0.57141   0.74633   0.00000  Uiso   1.00
O654   O     0.89524   0.58089   0.75586   0.00000  Uiso   1.00
O655   O     0.75848   0.49293   0.81839   0.00000  Uiso   1.00
O656   O     0.85908   0.50241   0.82793   0.00000  Uiso   1.00
O657   O     0.77142   0.41911   0.74413   0.00000  Uiso   1.00
O658   O     0.87203   0.42859   0.75367   0.00000  Uiso   1.00
O659   O     0.80758   0.49759   0.67207   0.00000  Uiso   1.00
O660   O     0.90819   0.50707   0.68160   0.00000  Uiso   1.00
C661   C     0.18182   0.93330   0.75161   0.00000  Uiso   1.00
C662   C     0.11265   0.83275   0.90344   0.00000  Uiso   1.00
C663   C     0.19082   0.98913   0.75253   0.00000  Uiso   1.00
C664   C     0.13329   0.83277   0.84724   0.00000  Uiso   1.00
C665   C     0.14373   0.67735   0.74785   0.00000  Uiso   1.00
C666   C     0.15164   0.73329   0.74852   0.00000  Uiso   1.00
C667   C     0.20044   0.83689   0.65296   0.00000  Uiso   1.00
C668   C     0.29082   0.89810   0.52923   0.00000  Uiso   1.00
C669   C     0.22082   0.84641   0.59808   0.00000  Uiso   1.00
C670   C     0.05065   0.80792   0.92464   0.00000  Uiso   1.00
C671   C     0.03185   0.80080   0.97703   0.00000  Uiso   1.00
C672   C     0.13903   0.83827   0.98821   0.00000  Uiso   1.00
C673   C     0.07536   0.81525   0.50857   0.00000  Uiso   1.00
C674   C     0.15548   0.85270   0.93624   0.00000  Uiso   1.00
C675   C     0.18623   0.84977   0.51823   0.00000  Uiso   1.00
C676   C     0.24509   0.88366   0.99890   0.00000  Uiso   1.00
C677   C     0.25719   0.90321   0.94984   0.00000  Uiso   1.00
C678   C     0.21335   0.88784   0.91892   0.00000  Uiso   1.00
C679   C     0.17753   0.82801   0.56648   0.00000  Uiso   1.00
C680   C     0.27804   0.88046   0.57900   0.00000  Uiso   1.00
Cu681  Cu    0.10710   0.82772   0.74435   0.00000  Uiso   1.00
Cu682  Cu    0.22623   0.83895   0.75564   0.00000  Uiso   1.00
F683   F     0.00667   0.87677   0.80112   0.00000  Uiso   1.00
F684   F     0.32669   0.78997   0.69883   0.00000  Uiso   1.00
F685   F     0.01366   0.93082   0.51143   0.00000  Uiso   1.00
F686   F     0.12925   0.78683   0.58258   0.00000  Uiso   1.00
F687   F     0.24812   0.68488   0.75823   0.00000  Uiso   1.00
H688   H     0.31194   0.89476   0.60310   0.00000  Uiso   1.00
H689   H     0.09832   0.98680   0.74341   0.00000  Uiso   1.00
H690   H     0.30104   0.93018   0.93489   0.00000  Uiso   1.00
H691   H     0.01669   0.79344   0.90061   0.00000  Uiso   1.00
H692   H     0.05719   0.81043   0.54905   0.00000  Uiso   1.00
H693   H     0.31674   0.78309   0.99327   0.00000  Uiso   1.00
H694   H     0.22460   0.90575   0.88203   0.00000  Uiso   1.00
N695   N     0.31574   0.84741   0.76416   0.00000  Uiso   1.00
N696   N     0.01759   0.81926   0.73584   0.00000  Uiso   1.00
O697   O     0.12797   0.90474   0.74633   0.00000  Uiso   1.00
O698   O     0.22858   0.91422   0.75586   0.00000  Uiso   1.00
O699   O     0.09181   0.82627   0.81839   0.00000  Uiso   1.00
O700   O     0.19242   0.83575   0.82793   0.00000  Uiso   1.00
O701   O     0.10476   0.75245   0.74413   0.00000  Uiso   1.00
O702   O     0.20536   0.76193   0.75367   0.00000  Uiso   1.00
O703   O     0.14092   0.83092   0.67207   0.00000  Uiso   1.00
O704   O     0.24152   0.84040   0.68160   0.00000  Uiso   1.00
C705   C     0.51515   0.93330   0.75161   0.00000  Uiso   1.00
C706   C     0.44599   0.83275   0.90344   0.00000  Uiso   1.00
C707   C     0.52415   0.98913   0.75253   0.00000  Uiso   1.00
C708   C     0.46662   0.83277   0.84724   0.00000  Uiso   1.00
C709   C     0.47706   0.67735   0.74785   0.00000  Uiso   1.00
C710   C     0.48497   0.73329   0.74852   0.00000  Uiso   1.00
C711   C     0.53377   0.83689   0.65296   0.00000  Uiso   1.00
C712   C     0.62416   0.89810   0.52923   0.00000  Uiso   1.00
C713   C     0.55415   0.84641   0.59808   0.00000  Uiso   1.00
C714   C     0.38398   0.80792   0.92464   0.00000  Uiso   1.00
C715   C     0.36518   0.80080   0.97703   0.00000  Uiso   1.00
C716   C     0.47236   0.83827   0.98821   0.00000  Uiso   1.00
C717   C     0.40869   0.81525   0.50857   0.00000  Uiso   1.00
C718   C     0.48881   0.85270   0.93624   0.00000  Uiso   1.00
C719   C     0.51957   0.84977   0.51823   0.00000  Uiso   1.00
C720   C     0.57842   0.88366   0.99890   0.00000  Uiso   1.00
C721   C     0.59052   0.90321   0.94984   0.00000  Uiso   1.00
C722   C     0.54668   0.88784   0.91892   0.00000  Uiso   1.00
C723   C     0.51086   0.82801   0.56648   0.00000  Uiso   1.00
C724   C     0.61137   0.88046   0.57900   0.00000  Uiso   1.00
Cu725  Cu    0.44043   0.82772   0.74435   0.00000  Uiso   1.00
Cu726  Cu    0.55957   0.83895   0.75564   0.00000  Uiso   1.00
F727   F     0.34000   0.87677   0.80112   0.00000  Uiso   1.00
F728   F     0.66002   0.78997   0.69883   0.00000  Uiso   1.00
F729   F     0.34699   0.93082   0.51143   0.00000  Uiso   1.00
F730   F     0.46258   0.78683   0.58258   0.00000  Uiso   1.00
F731   F     0.58146   0.68488   0.75823   0.00000  Uiso   1.00
H732   H     0.64528   0.89476   0.60310   0.00000  Uiso   1.00
H733   H     0.43165   0.98680   0.74341   0.00000  Uiso   1.00
H734   H     0.63437   0.93018   0.93489   0.00000  Uiso   1.00
H735   H     0.35003   0.79344   0.90061   0.00000  Uiso   1.00
H736   H     0.39052   0.81043   0.54905   0.00000  Uiso   1.00
H737   H     0.65007   0.78309   0.99327   0.00000  Uiso   1.00
H738   H     0.55794   0.90575   0.88203   0.00000  Uiso   1.00
N739   N     0.64908   0.84741   0.76416   0.00000  Uiso   1.00
N740   N     0.35092   0.81926   0.73584   0.00000  Uiso   1.00
O741   O     0.46131   0.90474   0.74633   0.00000  Uiso   1.00
O742   O     0.56191   0.91422   0.75586   0.00000  Uiso   1.00
O743   O     0.42515   0.82627   0.81839   0.00000  Uiso   1.00
O744   O     0.52575   0.83575   0.82793   0.00000  Uiso   1.00
O745   O     0.43809   0.75245   0.74413   0.00000  Uiso   1.00
O746   O     0.53869   0.76193   0.75367   0.00000  Uiso   1.00
O747   O     0.47425   0.83092   0.67207   0.00000  Uiso   1.00
O748   O     0.57485   0.84040   0.68160   0.00000  Uiso   1.00
C749   C     0.84849   0.93330   0.75161   0.00000  Uiso   1.00
C750   C     0.77932   0.83275   0.90344   0.00000  Uiso   1.00
C751   C     0.85749   0.98913   0.75253   0.00000  Uiso   1.00
C752   C     0.79996   0.83277   0.84724   0.00000  Uiso   1.00
C753   C     0.81039   0.67735   0.74785   0.00000  Uiso   1.00
C754   C     0.81831   0.73329   0.74852   0.00000  Uiso   1.00
C755   C     0.86711   0.83689   0.65296   0.00000  Uiso   1.00
C756   C     0.95749   0.89810   0.52923   0.00000  Uiso   1.00
C757   C     0.88748   0.84641   0.59808   0.00000  Uiso   1.00
C758   C     0.71732   0.80792   0.92464   0.00000  Uiso   1.00
C759   C     0.69851   0.80080   0.97703   0.00000  Uiso   1.00
C760   C     0.80570   0.83827   0.98821   0.00000  Uiso   1.00
C761   C     0.74203   0.81525   0.50857   0.00000  Uiso   1.00
C762   C     0.82214   0.85270   0.93624   0.00000  Uiso   1.00
C763   C     0.85290   0.84977   0.51823   0.00000  Uiso   1.00
C764   C     0.91175   0.88366   0.99890   0.00000  Uiso   1.00
C765   C     0.92385   0.90321   0.94984   0.00000  Uiso   1.00
C766   C     0.88002   0.88784   0.91892   0.00000  Uiso   1.00
C767   C     0.84420   0.82801   0.56648   0.00000  Uiso   1.00
C768   C     0.94470   0.88046   0.57900   0.00000  Uiso   1.00
Cu769  Cu    0.77377   0.82772   0.74435   0.00000  Uiso   1.00
Cu770  Cu    0.89290   0.83895   0.75564   0.00000  Uiso   1.00
F771   F     0.67334   0.87677   0.80112   0.00000  Uiso   1.00
F772   F     0.99336   0.78997   0.69883   0.00000  Uiso   1.00
F773   F     0.68032   0.93082   0.51143   0.00000  Uiso   1.00
F774   F     0.79592   0.78683   0.58258   0.00000  Uiso   1.00
F775   F     0.91479   0.68488   0.75823   0.00000  Uiso   1.00
H776   H     0.97861   0.89476   0.60310   0.00000  Uiso   1.00
H777   H     0.76499   0.98680   0.74341   0.00000  Uiso   1.00
H778   H     0.96771   0.93018   0.93489   0.00000  Uiso   1.00
H779   H     0.68336   0.79344   0.90061   0.00000  Uiso   1.00
H780   H     0.72385   0.81043   0.54905   0.00000  Uiso   1.00
H781   H     0.98340   0.78309   0.99327   0.00000  Uiso   1.00
H782   H     0.89127   0.90575   0.88203   0.00000  Uiso   1.00
N783   N     0.98241   0.84741   0.76416   0.00000  Uiso   1.00
N784   N     0.68426   0.81926   0.73584   0.00000  Uiso   1.00
O785   O     0.79464   0.90474   0.74633   0.00000  Uiso   1.00
O786   O     0.89524   0.91422   0.75586   0.00000  Uiso   1.00
O787   O     0.75848   0.82627   0.81839   0.00000  Uiso   1.00
O788   O     0.85908   0.83575   0.82793   0.00000  Uiso   1.00
O789   O     0.77142   0.75245   0.74413   0.00000  Uiso   1.00
O790   O     0.87203   0.76193   0.75367   0.00000  Uiso   1.00
O791   O     0.80758   0.83092   0.67207   0.00000  Uiso   1.00
O792   O     0.90819   0.84040   0.68160   0.00000  Uiso   1.00
loop_
_geom_bond_atom_site_label_1
_geom_bond_atom_site_label_2
_geom_bond_distance
_geom_bond_site_symmetry_2
_ccdc_geom_bond_type
C1     O37     1.292   .     A
C1     O38     1.287   .     A
C1     C3      1.426   .     S
C2     C4      1.474   .     S
C2     C14     1.421   .     A
C2     C10     1.403   .     A
C3     C137    1.335   .     S
C3     F159    1.364   .     S
C4     O39     1.304   .     A
C4     O40     1.298   .     A
C5     C6      1.431   .     S
C5     C267    1.335   1_545 S
C5     H293    1.088   1_545 S
C6     O42     1.290   .     A
C6     O41     1.291   .     A
C7     O43     1.296   .     A
C7     O44     1.302   .     A
C7     C9      1.463   .     S
C8     C20     1.392   .     A
C8     C412    1.407   1_554 S
C8     F69     1.358   .     S
C9     C20     1.398   .     A
C9     C19     1.399   .     A
C10    C11     1.388   .     A
C10    H31     1.083   .     S
C11    C409    1.392   .     S
C11    H121    1.083   1_455 S
C12    C14     1.417   .     A
C12    C409    1.416   .     S
C12    C411    1.426   .     S
C13    H32     1.078   .     S
C13    C408    1.416   1_554 S
C13    C407    1.392   1_554 S
C14    C18     1.411   .     A
C15    C19     1.408   .     A
C15    C408    1.426   1_554 S
C15    C412    1.422   1_554 S
C16    C17     1.395   .     A
C16    C411    1.422   .     S
C16    C404    1.407   .     S
C17    C18     1.387   .     A
C17    H30     1.084   .     S
C18    H34     1.080   .     S
C19    F26     1.359   .     S
C20    H28     1.083   .     S
Cu21   O39     1.938   .     S
Cu21   N36     2.023   .     S
Cu21   O41     1.956   .     S
Cu21   Cu22    2.692   .     S
Cu21   O37     1.958   .     S
Cu21   O43     1.919   .     S
Cu22   N35     2.023   .     S
Cu22   O40     1.919   .     S
Cu22   O42     1.958   .     S
Cu22   O44     1.938   .     S
Cu22   O38     1.956   .     S
F23    N123    1.335   1_455 S
F24    N80     1.335   .     S
F25    C96     1.358   1_455 S
F27    C267    1.364   1_545 S
H29    C137    1.088   .     S
H33    C55     1.083   .     S
N35    F67     1.335   .     S
N35    N80     1.287   .     S
N36    N123    1.287   1_455 S
N36    F112    1.335   1_455 S
C45    O81     1.292   .     A
C45    O82     1.287   .     A
C45    C47     1.426   .     S
C46    C48     1.474   .     S
C46    C58     1.421   .     A
C46    C54     1.403   .     A
C47    C181    1.335   .     S
C47    F203    1.364   .     S
C48    O83     1.304   .     A
C48    O84     1.298   .     A
C49    C50     1.431   .     S
C49    C311    1.335   1_545 S
C49    H337    1.088   1_545 S
C50    O86     1.290   .     A
C50    O85     1.291   .     A
C51    O87     1.296   .     A
C51    O88     1.302   .     A
C51    C53     1.463   .     S
C52    C64     1.392   .     A
C52    C456    1.407   1_554 S
C52    F113    1.358   .     S
C53    C64     1.398   .     A
C53    C63     1.399   .     A
C54    C55     1.388   .     A
C54    H75     1.083   .     S
C55    C453    1.392   .     S
C56    C58     1.417   .     A
C56    C453    1.416   .     S
C56    C455    1.426   .     S
C57    H76     1.078   .     S
C57    C452    1.416   1_554 S
C57    C451    1.392   1_554 S
C58    C62     1.411   .     A
C59    C63     1.408   .     A
C59    C452    1.426   1_554 S
C59    C456    1.422   1_554 S
C60    C61     1.395   .     A
C60    C455    1.422   .     S
C60    C448    1.407   .     S
C61    C62     1.387   .     A
C61    H74     1.084   .     S
C62    H78     1.080   .     S
C63    F70     1.359   .     S
C64    H72     1.083   .     S
Cu65   O83     1.938   .     S
Cu65   N80     2.023   .     S
Cu65   O85     1.956   .     S
Cu65   Cu66    2.692   .     S
Cu65   O81     1.958   .     S
Cu65   O87     1.919   .     S
Cu66   N79     2.023   .     S
Cu66   O84     1.919   .     S
Cu66   O86     1.958   .     S
Cu66   O88     1.938   .     S
Cu66   O82     1.956   .     S
F68    N124    1.335   .     S
F71    C311    1.364   1_545 S
H73    C181    1.088   .     S
H77    C99     1.083   .     S
N79    F111    1.335   .     S
N79    N124    1.287   .     S
C89    O125    1.292   .     A
C89    O126    1.287   .     A
C89    C91     1.426   .     S
C90    C92     1.474   .     S
C90    C102    1.421   .     A
C90    C98     1.403   .     A
C91    C225    1.335   .     S
C91    F247    1.364   .     S
C92    O127    1.304   .     A
C92    O128    1.298   .     A
C93    C94     1.431   .     S
C93    C355    1.335   1_545 S
C93    H381    1.088   1_545 S
C94    O130    1.290   .     A
C94    O129    1.291   .     A
C95    O131    1.296   .     A
C95    O132    1.302   .     A
C95    C97     1.463   .     S
C96    C108    1.392   .     A
C96    C500    1.407   1_554 S
C96    F25     1.358   1_655 S
C97    C108    1.398   .     A
C97    C107    1.399   .     A
C98    C99     1.388   .     A
C98    H119    1.083   .     S
C99    C497    1.392   .     S
C100   C102    1.417   .     A
C100   C497    1.416   .     S
C100   C499    1.426   .     S
C101   H120    1.078   .     S
C101   C496    1.416   1_554 S
C101   C495    1.392   1_554 S
C102   C106    1.411   .     A
C103   C107    1.408   .     A
C103   C496    1.426   1_554 S
C103   C500    1.422   1_554 S
C104   C105    1.395   .     A
C104   C499    1.422   .     S
C104   C492    1.407   .     S
C105   C106    1.387   .     A
C105   H118    1.084   .     S
C106   H122    1.080   .     S
C107   F114    1.359   .     S
C108   H116    1.083   .     S
Cu109  O127    1.938   .     S
Cu109  N124    2.023   .     S
Cu109  O129    1.956   .     S
Cu109  Cu110   2.692   .     S
Cu109  O125    1.958   .     S
Cu109  O131    1.919   .     S
Cu110  N123    2.023   .     S
Cu110  O128    1.919   .     S
Cu110  O130    1.958   .     S
Cu110  O132    1.938   .     S
Cu110  O126    1.956   .     S
F112   N36     1.335   1_655 S
F115   C355    1.364   1_545 S
H117   C225    1.088   .     S
H121   C11     1.083   1_655 S
N123   F23     1.335   1_655 S
N123   N36     1.287   1_655 S
C133   O169    1.292   .     A
C133   O170    1.287   .     A
C133   C135    1.426   .     S
C134   C136    1.474   .     S
C134   C146    1.421   .     A
C134   C142    1.403   .     A
C135   C269    1.335   .     S
C135   F291    1.364   .     S
C136   O171    1.304   .     A
C136   O172    1.298   .     A
C137   C138    1.431   .     S
C138   O174    1.290   .     A
C138   O173    1.291   .     A
C139   O175    1.296   .     A
C139   O176    1.302   .     A
C139   C141    1.463   .     S
C140   C152    1.392   .     A
C140   C544    1.407   1_554 S
C140   F201    1.358   .     S
C141   C152    1.398   .     A
C141   C151    1.399   .     A
C142   C143    1.388   .     A
C142   H163    1.083   .     S
C143   C541    1.392   .     S
C143   H253    1.083   1_455 S
C144   C146    1.417   .     A
C144   C541    1.416   .     S
C144   C543    1.426   .     S
C145   H164    1.078   .     S
C145   C540    1.416   1_554 S
C145   C539    1.392   1_554 S
C146   C150    1.411   .     A
C147   C151    1.408   .     A
C147   C540    1.426   1_554 S
C147   C544    1.422   1_554 S
C148   C149    1.395   .     A
C148   C543    1.422   .     S
C148   C536    1.407   .     S
C149   C150    1.387   .     A
C149   H162    1.084   .     S
C150   H166    1.080   .     S
C151   F158    1.359   .     S
C152   H160    1.083   .     S
Cu153  O171    1.938   .     S
Cu153  N168    2.023   .     S
Cu153  O173    1.956   .     S
Cu153  Cu154   2.692   .     S
Cu153  O169    1.958   .     S
Cu153  O175    1.919   .     S
Cu154  N167    2.023   .     S
Cu154  O172    1.919   .     S
Cu154  O174    1.958   .     S
Cu154  O176    1.938   .     S
Cu154  O170    1.956   .     S
F155   N255    1.335   1_455 S
F156   N212    1.335   .     S
F157   C228    1.358   1_455 S
H161   C269    1.088   .     S
H165   C187    1.083   .     S
N167   F199    1.335   .     S
N167   N212    1.287   .     S
N168   N255    1.287   1_455 S
N168   F244    1.335   1_455 S
C177   O213    1.292   .     A
C177   O214    1.287   .     A
C177   C179    1.426   .     S
C178   C180    1.474   .     S
C178   C190    1.421   .     A
C178   C186    1.403   .     A
C179   C313    1.335   .     S
C179   F335    1.364   .     S
C180   O215    1.304   .     A
C180   O216    1.298   .     A
C181   C182    1.431   .     S
C182   O218    1.290   .     A
C182   O217    1.291   .     A
C183   O219    1.296   .     A
C183   O220    1.302   .     A
C183   C185    1.463   .     S
C184   C196    1.392   .     A
C184   C588    1.407   1_554 S
C184   F245    1.358   .     S
C185   C196    1.398   .     A
C185   C195    1.399   .     A
C186   C187    1.388   .     A
C186   H207    1.083   .     S
C187   C585    1.392   .     S
C188   C190    1.417   .     A
C188   C585    1.416   .     S
C188   C587    1.426   .     S
C189   H208    1.078   .     S
C189   C584    1.416   1_554 S
C189   C583    1.392   1_554 S
C190   C194    1.411   .     A
C191   C195    1.408   .     A
C191   C584    1.426   1_554 S
C191   C588    1.422   1_554 S
C192   C193    1.395   .     A
C192   C587    1.422   .     S
C192   C580    1.407   .     S
C193   C194    1.387   .     A
C193   H206    1.084   .     S
C194   H210    1.080   .     S
C195   F202    1.359   .     S
C196   H204    1.083   .     S
Cu197  O215    1.938   .     S
Cu197  N212    2.023   .     S
Cu197  O217    1.956   .     S
Cu197  Cu198   2.692   .     S
Cu197  O213    1.958   .     S
Cu197  O219    1.919   .     S
Cu198  N211    2.023   .     S
Cu198  O216    1.919   .     S
Cu198  O218    1.958   .     S
Cu198  O220    1.938   .     S
Cu198  O214    1.956   .     S
F200   N256    1.335   .     S
H205   C313    1.088   .     S
H209   C231    1.083   .     S
N211   F243    1.335   .     S
N211   N256    1.287   .     S
C221   O257    1.292   .     A
C221   O258    1.287   .     A
C221   C223    1.426   .     S
C222   C224    1.474   .     S
C222   C234    1.421   .     A
C222   C230    1.403   .     A
C223   C357    1.335   .     S
C223   F379    1.364   .     S
C224   O259    1.304   .     A
C224   O260    1.298   .     A
C225   C226    1.431   .     S
C226   O262    1.290   .     A
C226   O261    1.291   .     A
C227   O263    1.296   .     A
C227   O264    1.302   .     A
C227   C229    1.463   .     S
C228   C240    1.392   .     A
C228   C632    1.407   1_554 S
C228   F157    1.358   1_655 S
C229   C240    1.398   .     A
C229   C239    1.399   .     A
C230   C231    1.388   .     A
C230   H251    1.083   .     S
C231   C629    1.392   .     S
C232   C234    1.417   .     A
C232   C629    1.416   .     S
C232   C631    1.426   .     S
C233   H252    1.078   .     S
C233   C628    1.416   1_554 S
C233   C627    1.392   1_554 S
C234   C238    1.411   .     A
C235   C239    1.408   .     A
C235   C628    1.426   1_554 S
C235   C632    1.422   1_554 S
C236   C237    1.395   .     A
C236   C631    1.422   .     S
C236   C624    1.407   .     S
C237   C238    1.387   .     A
C237   H250    1.084   .     S
C238   H254    1.080   .     S
C239   F246    1.359   .     S
C240   H248    1.083   .     S
Cu241  O259    1.938   .     S
Cu241  N256    2.023   .     S
Cu241  O261    1.956   .     S
Cu241  Cu242   2.692   .     S
Cu241  O257    1.958   .     S
Cu241  O263    1.919   .     S
Cu242  N255    2.023   .     S
Cu242  O260    1.919   .     S
Cu242  O262    1.958   .     S
Cu242  O264    1.938   .     S
Cu242  O258    1.956   .     S
F244   N168    1.335   1_655 S
H249   C357    1.088   .     S
H253   C143    1.083   1_655 S
N255   F155    1.335   1_655 S
N255   N168    1.287   1_655 S
C265   O301    1.292   .     A
C265   O302    1.287   .     A
C265   C267    1.426   .     S
C266   C268    1.474   .     S
C266   C278    1.421   .     A
C266   C274    1.403   .     A
C267   C5      1.335   1_565 S
C267   F27     1.364   1_565 S
C268   O303    1.304   .     A
C268   O304    1.298   .     A
C269   C270    1.431   .     S
C270   O306    1.290   .     A
C270   O305    1.291   .     A
C271   O307    1.296   .     A
C271   O308    1.302   .     A
C271   C273    1.463   .     S
C272   C284    1.392   .     A
C272   C676    1.407   1_554 S
C272   F333    1.358   .     S
C273   C284    1.398   .     A
C273   C283    1.399   .     A
C274   C275    1.388   .     A
C274   H295    1.083   .     S
C275   C673    1.392   .     S
C275   H385    1.083   1_455 S
C276   C278    1.417   .     A
C276   C673    1.416   .     S
C276   C675    1.426   .     S
C277   H296    1.078   .     S
C277   C672    1.416   1_554 S
C277   C671    1.392   1_554 S
C278   C282    1.411   .     A
C279   C283    1.408   .     A
C279   C672    1.426   1_554 S
C279   C676    1.422   1_554 S
C280   C281    1.395   .     A
C280   C675    1.422   .     S
C280   C668    1.407   .     S
C281   C282    1.387   .     A
C281   H294    1.084   .     S
C282   H298    1.080   .     S
C283   F290    1.359   .     S
C284   H292    1.083   .     S
Cu285  O303    1.938   .     S
Cu285  N300    2.023   .     S
Cu285  O305    1.956   .     S
Cu285  Cu286   2.692   .     S
Cu285  O301    1.958   .     S
Cu285  O307    1.919   .     S
Cu286  N299    2.023   .     S
Cu286  O304    1.919   .     S
Cu286  O306    1.958   .     S
Cu286  O308    1.938   .     S
Cu286  O302    1.956   .     S
F287   N387    1.335   1_455 S
F288   N344    1.335   .     S
F289   C360    1.358   1_455 S
H293   C5      1.088   1_565 S
H297   C319    1.083   .     S
N299   F331    1.335   .     S
N299   N344    1.287   .     S
N300   N387    1.287   1_455 S
N300   F376    1.335   1_455 S
C309   O345    1.292   .     A
C309   O346    1.287   .     A
C309   C311    1.426   .     S
C310   C312    1.474   .     S
C310   C322    1.421   .     A
C310   C318    1.403   .     A
C311   C49     1.335   1_565 S
C311   F71     1.364   1_565 S
C312   O347    1.304   .     A
C312   O348    1.298   .     A
C313   C314    1.431   .     S
C314   O350    1.290   .     A
C314   O349    1.291   .     A
C315   O351    1.296   .     A
C315   O352    1.302   .     A
C315   C317    1.463   .     S
C316   C328    1.392   .     A
C316   C720    1.407   1_554 S
C316   F377    1.358   .     S
C317   C328    1.398   .     A
C317   C327    1.399   .     A
C318   C319    1.388   .     A
C318   H339    1.083   .     S
C319   C717    1.392   .     S
C320   C322    1.417   .     A
C320   C717    1.416   .     S
C320   C719    1.426   .     S
C321   H340    1.078   .     S
C321   C716    1.416   1_554 S
C321   C715    1.392   1_554 S
C322   C326    1.411   .     A
C323   C327    1.408   .     A
C323   C716    1.426   1_554 S
C323   C720    1.422   1_554 S
C324   C325    1.395   .     A
C324   C719    1.422   .     S
C324   C712    1.407   .     S
C325   C326    1.387   .     A
C325   H338    1.084   .     S
C326   H342    1.080   .     S
C327   F334    1.359   .     S
C328   H336    1.083   .     S
Cu329  O347    1.938   .     S
Cu329  N344    2.023   .     S
Cu329  O349    1.956   .     S
Cu329  Cu330   2.692   .     S
Cu329  O345    1.958   .     S
Cu329  O351    1.919   .     S
Cu330  N343    2.023   .     S
Cu330  O348    1.919   .     S
Cu330  O350    1.958   .     S
Cu330  O352    1.938   .     S
Cu330  O346    1.956   .     S
F332   N388    1.335   .     S
H337   C49     1.088   1_565 S
H341   C363    1.083   .     S
N343   F375    1.335   .     S
N343   N388    1.287   .     S
C353   O389    1.292   .     A
C353   O390    1.287   .     A
C353   C355    1.426   .     S
C354   C356    1.474   .     S
C354   C366    1.421   .     A
C354   C362    1.403   .     A
C355   C93     1.335   1_565 S
C355   F115    1.364   1_565 S
C356   O391    1.304   .     A
C356   O392    1.298   .     A
C357   C358    1.431   .     S
C358   O394    1.290   .     A
C358   O393    1.291   .     A
C359   O395    1.296   .     A
C359   O396    1.302   .     A
C359   C361    1.463   .     S
C360   C372    1.392   .     A
C360   C764    1.407   1_554 S
C360   F289    1.358   1_655 S
C361   C372    1.398   .     A
C361   C371    1.399   .     A
C362   C363    1.388   .     A
C362   H383    1.083   .     S
C363   C761    1.392   .     S
C364   C366    1.417   .     A
C364   C761    1.416   .     S
C364   C763    1.426   .     S
C365   H384    1.078   .     S
C365   C760    1.416   1_554 S
C365   C759    1.392   1_554 S
C366   C370    1.411   .     A
C367   C371    1.408   .     A
C367   C760    1.426   1_554 S
C367   C764    1.422   1_554 S
C368   C369    1.395   .     A
C368   C763    1.422   .     S
C368   C756    1.407   .     S
C369   C370    1.387   .     A
C369   H382    1.084   .     S
C370   H386    1.080   .     S
C371   F378    1.359   .     S
C372   H380    1.083   .     S
Cu373  O391    1.938   .     S
Cu373  N388    2.023   .     S
Cu373  O393    1.956   .     S
Cu373  Cu374   2.692   .     S
Cu373  O389    1.958   .     S
Cu373  O395    1.919   .     S
Cu374  N387    2.023   .     S
Cu374  O392    1.919   .     S
Cu374  O394    1.958   .     S
Cu374  O396    1.938   .     S
Cu374  O390    1.956   .     S
F376   N300    1.335   1_655 S
H381   C93     1.088   1_565 S
H385   C275    1.083   1_655 S
N387   F287    1.335   1_655 S
N387   N300    1.287   1_655 S
C397   O433    1.292   .     A
C397   O434    1.287   .     A
C397   C399    1.426   .     S
C398   C400    1.474   .     S
C398   C410    1.421   .     A
C398   C406    1.403   .     A
C399   C533    1.335   .     S
C399   F555    1.364   .     S
C400   O435    1.304   .     A
C400   O436    1.298   .     A
C401   C402    1.431   .     S
C401   C663    1.335   1_545 S
C401   H689    1.088   1_545 S
C402   O438    1.290   .     A
C402   O437    1.291   .     A
C403   O439    1.296   .     A
C403   O440    1.302   .     A
C403   C405    1.463   .     S
C404   C416    1.392   .     A
C404   F465    1.358   .     S
C405   C416    1.398   .     A
C405   C415    1.399   .     A
C406   C407    1.388   .     A
C406   H427    1.083   .     S
C407   C13     1.392   1_556 S
C407   H517    1.083   1_455 S
C408   C410    1.417   .     A
C408   C13     1.416   1_556 S
C408   C15     1.426   1_556 S
C409   H428    1.078   .     S
C410   C414    1.411   .     A
C411   C415    1.408   .     A
C412   C413    1.395   .     A
C412   C15     1.422   1_556 S
C412   C8      1.407   1_556 S
C413   C414    1.387   .     A
C413   H426    1.084   .     S
C414   H430    1.080   .     S
C415   F422    1.359   .     S
C416   H424    1.083   .     S
Cu417  O435    1.938   .     S
Cu417  N432    2.023   .     S
Cu417  O437    1.956   .     S
Cu417  Cu418   2.692   .     S
Cu417  O433    1.958   .     S
Cu417  O439    1.919   .     S
Cu418  N431    2.023   .     S
Cu418  O436    1.919   .     S
Cu418  O438    1.958   .     S
Cu418  O440    1.938   .     S
Cu418  O434    1.956   .     S
F419   N519    1.335   1_455 S
F420   N476    1.335   .     S
F421   C492    1.358   1_455 S
F423   C663    1.364   1_545 S
H425   C533    1.088   .     S
H429   C451    1.083   .     S
N431   F463    1.335   .     S
N431   N476    1.287   .     S
N432   N519    1.287   1_455 S
N432   F508    1.335   1_455 S
C441   O477    1.292   .     A
C441   O478    1.287   .     A
C441   C443    1.426   .     S
C442   C444    1.474   .     S
C442   C454    1.421   .     A
C442   C450    1.403   .     A
C443   C577    1.335   .     S
C443   F599    1.364   .     S
C444   O479    1.304   .     A
C444   O480    1.298   .     A
C445   C446    1.431   .     S
C445   C707    1.335   1_545 S
C445   H733    1.088   1_545 S
C446   O482    1.290   .     A
C446   O481    1.291   .     A
C447   O483    1.296   .     A
C447   O484    1.302   .     A
C447   C449    1.463   .     S
C448   C460    1.392   .     A
C448   F509    1.358   .     S
C449   C460    1.398   .     A
C449   C459    1.399   .     A
C450   C451    1.388   .     A
C450   H471    1.083   .     S
C451   C57     1.392   1_556 S
C452   C454    1.417   .     A
C452   C57     1.416   1_556 S
C452   C59     1.426   1_556 S
C453   H472    1.078   .     S
C454   C458    1.411   .     A
C455   C459    1.408   .     A
C456   C457    1.395   .     A
C456   C59     1.422   1_556 S
C456   C52     1.407   1_556 S
C457   C458    1.387   .     A
C457   H470    1.084   .     S
C458   H474    1.080   .     S
C459   F466    1.359   .     S
C460   H468    1.083   .     S
Cu461  O479    1.938   .     S
Cu461  N476    2.023   .     S
Cu461  O481    1.956   .     S
Cu461  Cu462   2.692   .     S
Cu461  O477    1.958   .     S
Cu461  O483    1.919   .     S
Cu462  N475    2.023   .     S
Cu462  O480    1.919   .     S
Cu462  O482    1.958   .     S
Cu462  O484    1.938   .     S
Cu462  O478    1.956   .     S
F464   N520    1.335   .     S
F467   C707    1.364   1_545 S
H469   C577    1.088   .     S
H473   C495    1.083   .     S
N475   F507    1.335   .     S
N475   N520    1.287   .     S
C485   O521    1.292   .     A
C485   O522    1.287   .     A
C485   C487    1.426   .     S
C486   C488    1.474   .     S
C486   C498    1.421   .     A
C486   C494    1.403   .     A
C487   C621    1.335   .     S
C487   F643    1.364   .     S
C488   O523    1.304   .     A
C488   O524    1.298   .     A
C489   C490    1.431   .     S
C489   C751    1.335   1_545 S
C489   H777    1.088   1_545 S
C490   O526    1.290   .     A
C490   O525    1.291   .     A
C491   O527    1.296   .     A
C491   O528    1.302   .     A
C491   C493    1.463   .     S
C492   C504    1.392   .     A
C492   F421    1.358   1_655 S
C493   C504    1.398   .     A
C493   C503    1.399   .     A
C494   C495    1.388   .     A
C494   H515    1.083   .     S
C495   C101    1.392   1_556 S
C496   C498    1.417   .     A
C496   C101    1.416   1_556 S
C496   C103    1.426   1_556 S
C497   H516    1.078   .     S
C498   C502    1.411   .     A
C499   C503    1.408   .     A
C500   C501    1.395   .     A
C500   C103    1.422   1_556 S
C500   C96     1.407   1_556 S
C501   C502    1.387   .     A
C501   H514    1.084   .     S
C502   H518    1.080   .     S
C503   F510    1.359   .     S
C504   H512    1.083   .     S
Cu505  O523    1.938   .     S
Cu505  N520    2.023   .     S
Cu505  O525    1.956   .     S
Cu505  Cu506   2.692   .     S
Cu505  O521    1.958   .     S
Cu505  O527    1.919   .     S
Cu506  N519    2.023   .     S
Cu506  O524    1.919   .     S
Cu506  O526    1.958   .     S
Cu506  O528    1.938   .     S
Cu506  O522    1.956   .     S
F508   N432    1.335   1_655 S
F511   C751    1.364   1_545 S
H513   C621    1.088   .     S
H517   C407    1.083   1_655 S
N519   F419    1.335   1_655 S
N519   N432    1.287   1_655 S
C529   O565    1.292   .     A
C529   O566    1.287   .     A
C529   C531    1.426   .     S
C530   C532    1.474   .     S
C530   C542    1.421   .     A
C530   C538    1.403   .     A
C531   C665    1.335   .     S
C531   F687    1.364   .     S
C532   O567    1.304   .     A
C532   O568    1.298   .     A
C533   C534    1.431   .     S
C534   O570    1.290   .     A
C534   O569    1.291   .     A
C535   O571    1.296   .     A
C535   O572    1.302   .     A
C535   C537    1.463   .     S
C536   C548    1.392   .     A
C536   F597    1.358   .     S
C537   C548    1.398   .     A
C537   C547    1.399   .     A
C538   C539    1.388   .     A
C538   H559    1.083   .     S
C539   C145    1.392   1_556 S
C539   H649    1.083   1_455 S
C540   C542    1.417   .     A
C540   C145    1.416   1_556 S
C540   C147    1.426   1_556 S
C541   H560    1.078   .     S
C542   C546    1.411   .     A
C543   C547    1.408   .     A
C544   C545    1.395   .     A
C544   C147    1.422   1_556 S
C544   C140    1.407   1_556 S
C545   C546    1.387   .     A
C545   H558    1.084   .     S
C546   H562    1.080   .     S
C547   F554    1.359   .     S
C548   H556    1.083   .     S
Cu549  O567    1.938   .     S
Cu549  N564    2.023   .     S
Cu549  O569    1.956   .     S
Cu549  Cu550   2.692   .     S
Cu549  O565    1.958   .     S
Cu549  O571    1.919   .     S
Cu550  N563    2.023   .     S
Cu550  O568    1.919   .     S
Cu550  O570    1.958   .     S
Cu550  O572    1.938   .     S
Cu550  O566    1.956   .     S
F551   N651    1.335   1_455 S
F552   N608    1.335   .     S
F553   C624    1.358   1_455 S
H557   C665    1.088   .     S
H561   C583    1.083   .     S
N563   F595    1.335   .     S
N563   N608    1.287   .     S
N564   N651    1.287   1_455 S
N564   F640    1.335   1_455 S
C573   O609    1.292   .     A
C573   O610    1.287   .     A
C573   C575    1.426   .     S
C574   C576    1.474   .     S
C574   C586    1.421   .     A
C574   C582    1.403   .     A
C575   C709    1.335   .     S
C575   F731    1.364   .     S
C576   O611    1.304   .     A
C576   O612    1.298   .     A
C577   C578    1.431   .     S
C578   O614    1.290   .     A
C578   O613    1.291   .     A
C579   O615    1.296   .     A
C579   O616    1.302   .     A
C579   C581    1.463   .     S
C580   C592    1.392   .     A
C580   F641    1.358   .     S
C581   C592    1.398   .     A
C581   C591    1.399   .     A
C582   C583    1.388   .     A
C582   H603    1.083   .     S
C583   C189    1.392   1_556 S
C584   C586    1.417   .     A
C584   C189    1.416   1_556 S
C584   C191    1.426   1_556 S
C585   H604    1.078   .     S
C586   C590    1.411   .     A
C587   C591    1.408   .     A
C588   C589    1.395   .     A
C588   C191    1.422   1_556 S
C588   C184    1.407   1_556 S
C589   C590    1.387   .     A
C589   H602    1.084   .     S
C590   H606    1.080   .     S
C591   F598    1.359   .     S
C592   H600    1.083   .     S
Cu593  O611    1.938   .     S
Cu593  N608    2.023   .     S
Cu593  O613    1.956   .     S
Cu593  Cu594   2.692   .     S
Cu593  O609    1.958   .     S
Cu593  O615    1.919   .     S
Cu594  N607    2.023   .     S
Cu594  O612    1.919   .     S
Cu594  O614    1.958   .     S
Cu594  O616    1.938   .     S
Cu594  O610    1.956   .     S
F596   N652    1.335   .     S
H601   C709    1.088   .     S
H605   C627    1.083   .     S
N607   F639    1.335   .     S
N607   N652    1.287   .     S
C617   O653    1.292   .     A
C617   O654    1.287   .     A
C617   C619    1.426   .     S
C618   C620    1.474   .     S
C618   C630    1.421   .     A
C618   C626    1.403   .     A
C619   C753    1.335   .     S
C619   F775    1.364   .     S
C620   O655    1.304   .     A
C620   O656    1.298   .     A
C621   C622    1.431   .     S
C622   O658    1.290   .     A
C622   O657    1.291   .     A
C623   O659    1.296   .     A
C623   O660    1.302   .     A
C623   C625    1.463   .     S
C624   C636    1.392   .     A
C624   F553    1.358   1_655 S
C625   C636    1.398   .     A
C625   C635    1.399   .     A
C626   C627    1.388   .     A
C626   H647    1.083   .     S
C627   C233    1.392   1_556 S
C628   C630    1.417   .     A
C628   C233    1.416   1_556 S
C628   C235    1.426   1_556 S
C629   H648    1.078   .     S
C630   C634    1.411   .     A
C631   C635    1.408   .     A
C632   C633    1.395   .     A
C632   C235    1.422   1_556 S
C632   C228    1.407   1_556 S
C633   C634    1.387   .     A
C633   H646    1.084   .     S
C634   H650    1.080   .     S
C635   F642    1.359   .     S
C636   H644    1.083   .     S
Cu637  O655    1.938   .     S
Cu637  N652    2.023   .     S
Cu637  O657    1.956   .     S
Cu637  Cu638   2.692   .     S
Cu637  O653    1.958   .     S
Cu637  O659    1.919   .     S
Cu638  N651    2.023   .     S
Cu638  O656    1.919   .     S
Cu638  O658    1.958   .     S
Cu638  O660    1.938   .     S
Cu638  O654    1.956   .     S
F640   N564    1.335   1_655 S
H645   C753    1.088   .     S
H649   C539    1.083   1_655 S
N651   F551    1.335   1_655 S
N651   N564    1.287   1_655 S
C661   O697    1.292   .     A
C661   O698    1.287   .     A
C661   C663    1.426   .     S
C662   C664    1.474   .     S
C662   C674    1.421   .     A
C662   C670    1.403   .     A
C663   C401    1.335   1_565 S
C663   F423    1.364   1_565 S
C664   O699    1.304   .     A
C664   O700    1.298   .     A
C665   C666    1.431   .     S
C666   O702    1.290   .     A
C666   O701    1.291   .     A
C667   O703    1.296   .     A
C667   O704    1.302   .     A
C667   C669    1.463   .     S
C668   C680    1.392   .     A
C668   F729    1.358   .     S
C669   C680    1.398   .     A
C669   C679    1.399   .     A
C670   C671    1.388   .     A
C670   H691    1.083   .     S
C671   C277    1.392   1_556 S
C671   H781    1.083   1_455 S
C672   C674    1.417   .     A
C672   C277    1.416   1_556 S
C672   C279    1.426   1_556 S
C673   H692    1.078   .     S
C674   C678    1.411   .     A
C675   C679    1.408   .     A
C676   C677    1.395   .     A
C676   C279    1.422   1_556 S
C676   C272    1.407   1_556 S
C677   C678    1.387   .     A
C677   H690    1.084   .     S
C678   H694    1.080   .     S
C679   F686    1.359   .     S
C680   H688    1.083   .     S
Cu681  O699    1.938   .     S
Cu681  N696    2.023   .     S
Cu681  O701    1.956   .     S
Cu681  Cu682   2.692   .     S
Cu681  O697    1.958   .     S
Cu681  O703    1.919   .     S
Cu682  N695    2.023   .     S
Cu682  O700    1.919   .     S
Cu682  O702    1.958   .     S
Cu682  O704    1.938   .     S
Cu682  O698    1.956   .     S
F683   N783    1.335   1_455 S
F684   N740    1.335   .     S
F685   C756    1.358   1_455 S
H689   C401    1.088   1_565 S
H693   C715    1.083   .     S
N695   F727    1.335   .     S
N695   N740    1.287   .     S
N696   N783    1.287   1_455 S
N696   F772    1.335   1_455 S
C705   O741    1.292   .     A
C705   O742    1.287   .     A
C705   C707    1.426   .     S
C706   C708    1.474   .     S
C706   C718    1.421   .     A
C706   C714    1.403   .     A
C707   C445    1.335   1_565 S
C707   F467    1.364   1_565 S
C708   O743    1.304   .     A
C708   O744    1.298   .     A
C709   C710    1.431   .     S
C710   O746    1.290   .     A
C710   O745    1.291   .     A
C711   O747    1.296   .     A
C711   O748    1.302   .     A
C711   C713    1.463   .     S
C712   C724    1.392   .     A
C712   F773    1.358   .     S
C713   C724    1.398   .     A
C713   C723    1.399   .     A
C714   C715    1.388   .     A
C714   H735    1.083   .     S
C715   C321    1.392   1_556 S
C716   C718    1.417   .     A
C716   C321    1.416   1_556 S
C716   C323    1.426   1_556 S
C717   H736    1.078   .     S
C718   C722    1.411   .     A
C719   C723    1.408   .     A
C720   C721    1.395   .     A
C720   C323    1.422   1_556 S
C720   C316    1.407   1_556 S
C721   C722    1.387   .     A
C721   H734    1.084   .     S
C722   H738    1.080   .     S
C723   F730    1.359   .     S
C724   H732    1.083   .     S
Cu725  O743    1.938   .     S
Cu725  N740    2.023   .     S
Cu725  O745    1.956   .     S
Cu725  Cu726   2.692   .     S
Cu725  O741    1.958   .     S
Cu725  O747    1.919   .     S
Cu726  N739    2.023   .     S
Cu726  O744    1.919   .     S
Cu726  O746    1.958   .     S
Cu726  O748    1.938   .     S
Cu726  O742    1.956   .     S
F728   N784    1.335   .     S
H733   C445    1.088   1_565 S
H737   C759    1.083   .     S
N739   F771    1.335   .     S
N739   N784    1.287   .     S
C749   O785    1.292   .     A
C749   O786    1.287   .     A
C749   C751    1.426   .     S
C750   C752    1.474   .     S
C750   C762    1.421   .     A
C750   C758    1.403   .     A
C751   C489    1.335   1_565 S
C751   F511    1.364   1_565 S
C752   O787    1.304   .     A
C752   O788    1.298   .     A
C753   C754    1.431   .     S
C754   O790    1.290   .     A
C754   O789    1.291   .     A
C755   O791    1.296   .     A
C755   O792    1.302   .     A
C755   C757    1.463   .     S
C756   C768    1.392   .     A
C756   F685    1.358   1_655 S
C757   C768    1.398   .     A
C757   C767    1.399   .     A
C758   C759    1.388   .     A
C758   H779    1.083   .     S
C759   C365    1.392   1_556 S
C760   C762    1.417   .     A
C760   C365    1.416   1_556 S
C760   C367    1.426   1_556 S
C761   H780    1.078   .     S
C762   C766    1.411   .     A
C763   C767    1.408   .     A
C764   C765    1.395   .     A
C764   C367    1.422   1_556 S
C764   C360    1.407   1_556 S
C765   C766    1.387   .     A
C765   H778    1.084   .     S
C766   H782    1.080   .     S
C767   F774    1.359   .     S
C768   H776    1.083   .     S
Cu769  O787    1.938   .     S
Cu769  N784    2.023   .     S
Cu769  O789    1.956   .     S
Cu769  Cu770   2.692   .     S
Cu769  O785    1.958   .     S
Cu769  O791    1.919   .     S
Cu770  N783    2.023   .     S
Cu770  O788    1.919   .     S
Cu770  O790    1.958   .     S
Cu770  O792    1.938   .     S
Cu770  O786    1.956   .     S
F772   N696    1.335   1_655 S
H777   C489    1.088   1_565 S
H781   C671    1.083   1_655 S
N783   F683    1.335   1_655 S
N783   N696    1.287   1_655 S
