data_str_m2_o1_o10_pcu_sym.193
_audit_creation_date              2020-01-03
_audit_creation_method            'Materials Studio'
_symmetry_space_group_name_H-M    'P1'
_symmetry_Int_Tables_number       1
_symmetry_cell_setting            triclinic
loop_
_symmetry_equiv_pos_as_xyz
  x,y,z
_cell_length_a                    26.2150
_cell_length_b                    32.6862
_cell_length_c                    28.7574
_cell_angle_alpha                 91.1235
_cell_angle_beta                  96.9025
_cell_angle_gamma                 92.8738
loop_
_atom_site_label
_atom_site_type_symbol
_atom_site_fract_x
_atom_site_fract_y
_atom_site_fract_z
_atom_site_U_iso_or_equiv
_atom_site_adp_type
_atom_site_occupancy
C1     C     0.17047   0.08759   0.16647   0.00000  Uiso   1.00
C2     C     0.16285   0.24574   0.16687   0.00000  Uiso   1.00
C3     C     0.06819   0.16501   0.15516   0.00000  Uiso   1.00
C4     C     0.26515   0.16833   0.17818   0.00000  Uiso   1.00
C5     C     0.01332   0.15750   0.15113   0.00000  Uiso   1.00
C6     C     0.32002   0.17584   0.18221   0.00000  Uiso   1.00
C7     C     0.16121   0.01953   0.12309   0.00000  Uiso   1.00
C8     C     0.17207   0.31379   0.21024   0.00000  Uiso   1.00
C9     C     0.14882   0.31094   0.12505   0.00000  Uiso   1.00
C10    C     0.18447   0.02238   0.20829   0.00000  Uiso   1.00
C11    C     0.15904   0.29059   0.16782   0.00000  Uiso   1.00
C12    C     0.17425   0.04274   0.16551   0.00000  Uiso   1.00
C13    C     0.12929   0.14483   0.02062   0.00000  Uiso   1.00
C14    C     0.20404   0.18851   0.31271   0.00000  Uiso   1.00
C15    C     0.12920   0.14463   0.30433   0.00000  Uiso   1.00
C16    C     0.20413   0.18870   0.02900   0.00000  Uiso   1.00
Cu17   Cu    0.16667   0.16667   0.21355   0.00000  Uiso   1.00
Cu18   Cu    0.16667   0.16666   0.11978   0.00000  Uiso   1.00
N19    N     0.16668   0.16668   0.28403   0.00000  Uiso   1.00
N20    N     0.16665   0.16666   0.04931   0.00000  Uiso   1.00
O21    O     0.16666   0.10655   0.20625   0.00000  Uiso   1.00
O22    O     0.16667   0.22678   0.12709   0.00000  Uiso   1.00
O23    O     0.16666   0.10654   0.12706   0.00000  Uiso   1.00
O24    O     0.16667   0.22679   0.20628   0.00000  Uiso   1.00
O25    O     0.09161   0.16667   0.19712   0.00000  Uiso   1.00
O26    O     0.24172   0.16666   0.13621   0.00000  Uiso   1.00
O27    O     0.09161   0.16666   0.11793   0.00000  Uiso   1.00
O28    O     0.24172   0.16667   0.21540   0.00000  Uiso   1.00
N29    N     0.32303   0.12564   0.11922   0.00000  Uiso   1.00
H30    H     0.33001   0.13302   0.08536   0.00000  Uiso   1.00
H31    H     0.00777   0.09848   0.12761   0.00000  Uiso   1.00
N32    N     0.01030   0.20769   0.21412   0.00000  Uiso   1.00
H33    H     0.00332   0.20030   0.24798   0.00000  Uiso   1.00
H34    H     0.32557   0.23485   0.20575   0.00000  Uiso   1.00
C35    C     0.16744   0.03646   0.07618   0.00000  Uiso   1.00
O36    O     0.20640   0.05714   0.07077   0.00000  Uiso   1.00
O37    O     0.13107   0.02624   0.03752   0.00000  Uiso   1.00
H38    H     0.14138   0.03772   0.00730   0.00000  Uiso   1.00
C39    C     0.16582   0.29686   0.25715   0.00000  Uiso   1.00
O40    O     0.12687   0.27617   0.26254   0.00000  Uiso   1.00
O41    O     0.20217   0.30708   0.29581   0.00000  Uiso   1.00
H42    H     0.19186   0.29559   0.32602   0.00000  Uiso   1.00
N43    N     0.12249   0.29014   0.08376   0.00000  Uiso   1.00
H44    H     0.09289   0.27031   0.09279   0.00000  Uiso   1.00
H45    H     0.14822   0.27418   0.06630   0.00000  Uiso   1.00
N46    N     0.21082   0.04317   0.24958   0.00000  Uiso   1.00
H47    H     0.24052   0.06289   0.24055   0.00000  Uiso   1.00
H48    H     0.18515   0.05924   0.26699   0.00000  Uiso   1.00
N49    N     0.08965   0.12247   0.04107   0.00000  Uiso   1.00
H50    H     0.05461   0.13490   0.02933   0.00000  Uiso   1.00
H51    H     0.08778   0.09204   0.02924   0.00000  Uiso   1.00
N52    N     0.24367   0.21088   0.29226   0.00000  Uiso   1.00
H53    H     0.27872   0.19847   0.30399   0.00000  Uiso   1.00
H54    H     0.24550   0.24131   0.30408   0.00000  Uiso   1.00
C55    C     0.08721   0.12056   0.27562   0.00000  Uiso   1.00
O56    O     0.04395   0.13333   0.27079   0.00000  Uiso   1.00
O57    O     0.09540   0.08160   0.25824   0.00000  Uiso   1.00
H58    H     0.06325   0.06791   0.24019   0.00000  Uiso   1.00
C59    C     0.24613   0.21276   0.05771   0.00000  Uiso   1.00
O60    O     0.28940   0.20001   0.06249   0.00000  Uiso   1.00
O61    O     0.23795   0.25171   0.07511   0.00000  Uiso   1.00
H62    H     0.27013   0.26541   0.09311   0.00000  Uiso   1.00
C63    C     0.50381   0.08759   0.16647   0.00000  Uiso   1.00
C64    C     0.49618   0.24574   0.16687   0.00000  Uiso   1.00
C65    C     0.40152   0.16501   0.15516   0.00000  Uiso   1.00
C66    C     0.59848   0.16833   0.17818   0.00000  Uiso   1.00
C67    C     0.34665   0.15750   0.15113   0.00000  Uiso   1.00
C68    C     0.65335   0.17584   0.18221   0.00000  Uiso   1.00
C69    C     0.49454   0.01953   0.12309   0.00000  Uiso   1.00
C70    C     0.50540   0.31379   0.21024   0.00000  Uiso   1.00
C71    C     0.48215   0.31094   0.12505   0.00000  Uiso   1.00
C72    C     0.51780   0.02238   0.20829   0.00000  Uiso   1.00
C73    C     0.49237   0.29059   0.16782   0.00000  Uiso   1.00
C74    C     0.50759   0.04274   0.16551   0.00000  Uiso   1.00
C75    C     0.46262   0.14483   0.02062   0.00000  Uiso   1.00
C76    C     0.53737   0.18851   0.31271   0.00000  Uiso   1.00
C77    C     0.46254   0.14463   0.30433   0.00000  Uiso   1.00
C78    C     0.53747   0.18870   0.02900   0.00000  Uiso   1.00
Cu79   Cu    0.50000   0.16667   0.21355   0.00000  Uiso   1.00
Cu80   Cu    0.50000   0.16666   0.11978   0.00000  Uiso   1.00
N81    N     0.50001   0.16668   0.28403   0.00000  Uiso   1.00
N82    N     0.49999   0.16666   0.04931   0.00000  Uiso   1.00
O83    O     0.50000   0.10655   0.20625   0.00000  Uiso   1.00
O84    O     0.50000   0.22678   0.12709   0.00000  Uiso   1.00
O85    O     0.50000   0.10654   0.12706   0.00000  Uiso   1.00
O86    O     0.50000   0.22679   0.20628   0.00000  Uiso   1.00
O87    O     0.42495   0.16667   0.19712   0.00000  Uiso   1.00
O88    O     0.57505   0.16666   0.13621   0.00000  Uiso   1.00
O89    O     0.42494   0.16666   0.11793   0.00000  Uiso   1.00
O90    O     0.57506   0.16667   0.21540   0.00000  Uiso   1.00
N91    N     0.65636   0.12564   0.11922   0.00000  Uiso   1.00
H92    H     0.66334   0.13302   0.08536   0.00000  Uiso   1.00
H93    H     0.34110   0.09848   0.12761   0.00000  Uiso   1.00
N94    N     0.34364   0.20769   0.21412   0.00000  Uiso   1.00
H95    H     0.33665   0.20030   0.24798   0.00000  Uiso   1.00
H96    H     0.65890   0.23485   0.20575   0.00000  Uiso   1.00
C97    C     0.50078   0.03646   0.07618   0.00000  Uiso   1.00
O98    O     0.53973   0.05714   0.07077   0.00000  Uiso   1.00
O99    O     0.46441   0.02624   0.03752   0.00000  Uiso   1.00
H100   H     0.47472   0.03772   0.00730   0.00000  Uiso   1.00
C101   C     0.49915   0.29686   0.25715   0.00000  Uiso   1.00
O102   O     0.46020   0.27617   0.26254   0.00000  Uiso   1.00
O103   O     0.53550   0.30708   0.29581   0.00000  Uiso   1.00
H104   H     0.52519   0.29559   0.32602   0.00000  Uiso   1.00
N105   N     0.45582   0.29014   0.08376   0.00000  Uiso   1.00
H106   H     0.42623   0.27031   0.09279   0.00000  Uiso   1.00
H107   H     0.48155   0.27418   0.06630   0.00000  Uiso   1.00
N108   N     0.54415   0.04317   0.24958   0.00000  Uiso   1.00
H109   H     0.57386   0.06289   0.24055   0.00000  Uiso   1.00
H110   H     0.51848   0.05924   0.26699   0.00000  Uiso   1.00
N111   N     0.42298   0.12247   0.04107   0.00000  Uiso   1.00
H112   H     0.38794   0.13490   0.02933   0.00000  Uiso   1.00
H113   H     0.42112   0.09204   0.02924   0.00000  Uiso   1.00
N114   N     0.57700   0.21088   0.29226   0.00000  Uiso   1.00
H115   H     0.61205   0.19847   0.30399   0.00000  Uiso   1.00
H116   H     0.57883   0.24131   0.30408   0.00000  Uiso   1.00
C117   C     0.42054   0.12056   0.27562   0.00000  Uiso   1.00
O118   O     0.37729   0.13333   0.27079   0.00000  Uiso   1.00
O119   O     0.42874   0.08160   0.25824   0.00000  Uiso   1.00
H120   H     0.39658   0.06791   0.24019   0.00000  Uiso   1.00
C121   C     0.57947   0.21276   0.05771   0.00000  Uiso   1.00
O122   O     0.62273   0.20001   0.06249   0.00000  Uiso   1.00
O123   O     0.57128   0.25171   0.07511   0.00000  Uiso   1.00
H124   H     0.60346   0.26541   0.09311   0.00000  Uiso   1.00
C125   C     0.83714   0.08759   0.16647   0.00000  Uiso   1.00
C126   C     0.82952   0.24574   0.16687   0.00000  Uiso   1.00
C127   C     0.73485   0.16501   0.15516   0.00000  Uiso   1.00
C128   C     0.93181   0.16833   0.17818   0.00000  Uiso   1.00
C129   C     0.67998   0.15750   0.15113   0.00000  Uiso   1.00
C130   C     0.98668   0.17584   0.18221   0.00000  Uiso   1.00
C131   C     0.82787   0.01953   0.12309   0.00000  Uiso   1.00
C132   C     0.83874   0.31379   0.21024   0.00000  Uiso   1.00
C133   C     0.81548   0.31094   0.12505   0.00000  Uiso   1.00
C134   C     0.85113   0.02238   0.20829   0.00000  Uiso   1.00
C135   C     0.82570   0.29059   0.16782   0.00000  Uiso   1.00
C136   C     0.84092   0.04274   0.16551   0.00000  Uiso   1.00
C137   C     0.79596   0.14483   0.02062   0.00000  Uiso   1.00
C138   C     0.87071   0.18851   0.31271   0.00000  Uiso   1.00
C139   C     0.79587   0.14463   0.30433   0.00000  Uiso   1.00
C140   C     0.87080   0.18870   0.02900   0.00000  Uiso   1.00
Cu141  Cu    0.83333   0.16667   0.21355   0.00000  Uiso   1.00
Cu142  Cu    0.83333   0.16666   0.11978   0.00000  Uiso   1.00
N143   N     0.83335   0.16668   0.28403   0.00000  Uiso   1.00
N144   N     0.83332   0.16666   0.04931   0.00000  Uiso   1.00
O145   O     0.83333   0.10655   0.20625   0.00000  Uiso   1.00
O146   O     0.83334   0.22678   0.12709   0.00000  Uiso   1.00
O147   O     0.83333   0.10654   0.12706   0.00000  Uiso   1.00
O148   O     0.83334   0.22679   0.20628   0.00000  Uiso   1.00
O149   O     0.75828   0.16667   0.19712   0.00000  Uiso   1.00
O150   O     0.90839   0.16666   0.13621   0.00000  Uiso   1.00
O151   O     0.75828   0.16666   0.11793   0.00000  Uiso   1.00
O152   O     0.90839   0.16667   0.21540   0.00000  Uiso   1.00
N153   N     0.98970   0.12564   0.11922   0.00000  Uiso   1.00
H154   H     0.99668   0.13302   0.08536   0.00000  Uiso   1.00
H155   H     0.67443   0.09848   0.12761   0.00000  Uiso   1.00
N156   N     0.67697   0.20769   0.21412   0.00000  Uiso   1.00
H157   H     0.66999   0.20030   0.24798   0.00000  Uiso   1.00
H158   H     0.99223   0.23485   0.20575   0.00000  Uiso   1.00
C159   C     0.83411   0.03646   0.07618   0.00000  Uiso   1.00
O160   O     0.87307   0.05714   0.07077   0.00000  Uiso   1.00
O161   O     0.79774   0.02624   0.03752   0.00000  Uiso   1.00
H162   H     0.80805   0.03772   0.00730   0.00000  Uiso   1.00
C163   C     0.83249   0.29686   0.25715   0.00000  Uiso   1.00
O164   O     0.79354   0.27617   0.26254   0.00000  Uiso   1.00
O165   O     0.86884   0.30708   0.29581   0.00000  Uiso   1.00
H166   H     0.85853   0.29559   0.32602   0.00000  Uiso   1.00
N167   N     0.78915   0.29014   0.08376   0.00000  Uiso   1.00
H168   H     0.75956   0.27031   0.09279   0.00000  Uiso   1.00
H169   H     0.81488   0.27418   0.06630   0.00000  Uiso   1.00
N170   N     0.87749   0.04317   0.24958   0.00000  Uiso   1.00
H171   H     0.90719   0.06289   0.24055   0.00000  Uiso   1.00
H172   H     0.85182   0.05924   0.26699   0.00000  Uiso   1.00
N173   N     0.75631   0.12247   0.04107   0.00000  Uiso   1.00
H174   H     0.72127   0.13490   0.02933   0.00000  Uiso   1.00
H175   H     0.75445   0.09204   0.02924   0.00000  Uiso   1.00
N176   N     0.91033   0.21088   0.29226   0.00000  Uiso   1.00
H177   H     0.94538   0.19847   0.30399   0.00000  Uiso   1.00
H178   H     0.91217   0.24131   0.30408   0.00000  Uiso   1.00
C179   C     0.75388   0.12056   0.27562   0.00000  Uiso   1.00
O180   O     0.71062   0.13333   0.27079   0.00000  Uiso   1.00
O181   O     0.76207   0.08160   0.25824   0.00000  Uiso   1.00
H182   H     0.72992   0.06791   0.24019   0.00000  Uiso   1.00
C183   C     0.91280   0.21276   0.05771   0.00000  Uiso   1.00
O184   O     0.95607   0.20001   0.06249   0.00000  Uiso   1.00
O185   O     0.90462   0.25171   0.07511   0.00000  Uiso   1.00
H186   H     0.93679   0.26541   0.09311   0.00000  Uiso   1.00
C187   C     0.17047   0.42092   0.16647   0.00000  Uiso   1.00
C188   C     0.16285   0.57907   0.16687   0.00000  Uiso   1.00
C189   C     0.06819   0.49834   0.15516   0.00000  Uiso   1.00
C190   C     0.26515   0.50166   0.17818   0.00000  Uiso   1.00
C191   C     0.01332   0.49084   0.15113   0.00000  Uiso   1.00
C192   C     0.32002   0.50917   0.18221   0.00000  Uiso   1.00
C193   C     0.16121   0.35287   0.12309   0.00000  Uiso   1.00
C194   C     0.17207   0.64713   0.21024   0.00000  Uiso   1.00
C195   C     0.14882   0.64428   0.12505   0.00000  Uiso   1.00
C196   C     0.18447   0.35571   0.20829   0.00000  Uiso   1.00
C197   C     0.15904   0.62392   0.16782   0.00000  Uiso   1.00
C198   C     0.17425   0.37607   0.16551   0.00000  Uiso   1.00
C199   C     0.12929   0.47816   0.02062   0.00000  Uiso   1.00
C200   C     0.20404   0.52184   0.31271   0.00000  Uiso   1.00
C201   C     0.12920   0.47796   0.30433   0.00000  Uiso   1.00
C202   C     0.20413   0.52203   0.02900   0.00000  Uiso   1.00
Cu203  Cu    0.16667   0.50001   0.21355   0.00000  Uiso   1.00
Cu204  Cu    0.16667   0.49999   0.11978   0.00000  Uiso   1.00
N205   N     0.16668   0.50001   0.28403   0.00000  Uiso   1.00
N206   N     0.16665   0.49999   0.04931   0.00000  Uiso   1.00
O207   O     0.16666   0.43989   0.20625   0.00000  Uiso   1.00
O208   O     0.16667   0.56011   0.12709   0.00000  Uiso   1.00
O209   O     0.16666   0.43988   0.12706   0.00000  Uiso   1.00
O210   O     0.16667   0.56012   0.20628   0.00000  Uiso   1.00
O211   O     0.09161   0.50000   0.19712   0.00000  Uiso   1.00
O212   O     0.24172   0.50000   0.13621   0.00000  Uiso   1.00
O213   O     0.09161   0.49999   0.11793   0.00000  Uiso   1.00
O214   O     0.24172   0.50001   0.21540   0.00000  Uiso   1.00
N215   N     0.32303   0.45897   0.11922   0.00000  Uiso   1.00
H216   H     0.33001   0.46636   0.08536   0.00000  Uiso   1.00
H217   H     0.00777   0.43182   0.12761   0.00000  Uiso   1.00
N218   N     0.01030   0.54103   0.21412   0.00000  Uiso   1.00
H219   H     0.00332   0.53363   0.24798   0.00000  Uiso   1.00
H220   H     0.32557   0.56819   0.20575   0.00000  Uiso   1.00
C221   C     0.16744   0.36980   0.07618   0.00000  Uiso   1.00
O222   O     0.20640   0.39048   0.07077   0.00000  Uiso   1.00
O223   O     0.13107   0.35958   0.03752   0.00000  Uiso   1.00
H224   H     0.14138   0.37106   0.00730   0.00000  Uiso   1.00
C225   C     0.16582   0.63019   0.25715   0.00000  Uiso   1.00
O226   O     0.12687   0.60950   0.26254   0.00000  Uiso   1.00
O227   O     0.20217   0.64042   0.29581   0.00000  Uiso   1.00
H228   H     0.19186   0.62893   0.32602   0.00000  Uiso   1.00
N229   N     0.12249   0.62347   0.08376   0.00000  Uiso   1.00
H230   H     0.09289   0.60365   0.09279   0.00000  Uiso   1.00
H231   H     0.14822   0.60752   0.06630   0.00000  Uiso   1.00
N232   N     0.21082   0.37651   0.24958   0.00000  Uiso   1.00
H233   H     0.24052   0.39622   0.24055   0.00000  Uiso   1.00
H234   H     0.18515   0.39257   0.26699   0.00000  Uiso   1.00
N235   N     0.08965   0.45580   0.04107   0.00000  Uiso   1.00
H236   H     0.05461   0.46824   0.02933   0.00000  Uiso   1.00
H237   H     0.08778   0.42537   0.02924   0.00000  Uiso   1.00
N238   N     0.24367   0.54421   0.29226   0.00000  Uiso   1.00
H239   H     0.27872   0.53180   0.30399   0.00000  Uiso   1.00
H240   H     0.24550   0.57464   0.30408   0.00000  Uiso   1.00
C241   C     0.08721   0.45390   0.27562   0.00000  Uiso   1.00
O242   O     0.04395   0.46666   0.27079   0.00000  Uiso   1.00
O243   O     0.09540   0.41493   0.25824   0.00000  Uiso   1.00
H244   H     0.06325   0.40124   0.24019   0.00000  Uiso   1.00
C245   C     0.24613   0.54609   0.05771   0.00000  Uiso   1.00
O246   O     0.28940   0.53334   0.06249   0.00000  Uiso   1.00
O247   O     0.23795   0.58505   0.07511   0.00000  Uiso   1.00
H248   H     0.27013   0.59874   0.09311   0.00000  Uiso   1.00
C249   C     0.50381   0.42092   0.16647   0.00000  Uiso   1.00
C250   C     0.49618   0.57907   0.16687   0.00000  Uiso   1.00
C251   C     0.40152   0.49834   0.15516   0.00000  Uiso   1.00
C252   C     0.59848   0.50166   0.17818   0.00000  Uiso   1.00
C253   C     0.34665   0.49084   0.15113   0.00000  Uiso   1.00
C254   C     0.65335   0.50917   0.18221   0.00000  Uiso   1.00
C255   C     0.49454   0.35287   0.12309   0.00000  Uiso   1.00
C256   C     0.50540   0.64713   0.21024   0.00000  Uiso   1.00
C257   C     0.48215   0.64428   0.12505   0.00000  Uiso   1.00
C258   C     0.51780   0.35571   0.20829   0.00000  Uiso   1.00
C259   C     0.49237   0.62392   0.16782   0.00000  Uiso   1.00
C260   C     0.50759   0.37607   0.16551   0.00000  Uiso   1.00
C261   C     0.46262   0.47816   0.02062   0.00000  Uiso   1.00
C262   C     0.53737   0.52184   0.31271   0.00000  Uiso   1.00
C263   C     0.46254   0.47796   0.30433   0.00000  Uiso   1.00
C264   C     0.53747   0.52203   0.02900   0.00000  Uiso   1.00
Cu265  Cu    0.50000   0.50001   0.21355   0.00000  Uiso   1.00
Cu266  Cu    0.50000   0.49999   0.11978   0.00000  Uiso   1.00
N267   N     0.50001   0.50001   0.28403   0.00000  Uiso   1.00
N268   N     0.49999   0.49999   0.04931   0.00000  Uiso   1.00
O269   O     0.50000   0.43989   0.20625   0.00000  Uiso   1.00
O270   O     0.50000   0.56011   0.12709   0.00000  Uiso   1.00
O271   O     0.50000   0.43988   0.12706   0.00000  Uiso   1.00
O272   O     0.50000   0.56012   0.20628   0.00000  Uiso   1.00
O273   O     0.42495   0.50000   0.19712   0.00000  Uiso   1.00
O274   O     0.57505   0.50000   0.13621   0.00000  Uiso   1.00
O275   O     0.42494   0.49999   0.11793   0.00000  Uiso   1.00
O276   O     0.57506   0.50001   0.21540   0.00000  Uiso   1.00
N277   N     0.65636   0.45897   0.11922   0.00000  Uiso   1.00
H278   H     0.66334   0.46636   0.08536   0.00000  Uiso   1.00
H279   H     0.34110   0.43182   0.12761   0.00000  Uiso   1.00
N280   N     0.34364   0.54103   0.21412   0.00000  Uiso   1.00
H281   H     0.33665   0.53363   0.24798   0.00000  Uiso   1.00
H282   H     0.65890   0.56819   0.20575   0.00000  Uiso   1.00
C283   C     0.50078   0.36980   0.07618   0.00000  Uiso   1.00
O284   O     0.53973   0.39048   0.07077   0.00000  Uiso   1.00
O285   O     0.46441   0.35958   0.03752   0.00000  Uiso   1.00
H286   H     0.47472   0.37106   0.00730   0.00000  Uiso   1.00
C287   C     0.49915   0.63019   0.25715   0.00000  Uiso   1.00
O288   O     0.46020   0.60950   0.26254   0.00000  Uiso   1.00
O289   O     0.53550   0.64042   0.29581   0.00000  Uiso   1.00
H290   H     0.52519   0.62893   0.32602   0.00000  Uiso   1.00
N291   N     0.45582   0.62347   0.08376   0.00000  Uiso   1.00
H292   H     0.42623   0.60365   0.09279   0.00000  Uiso   1.00
H293   H     0.48155   0.60752   0.06630   0.00000  Uiso   1.00
N294   N     0.54415   0.37651   0.24958   0.00000  Uiso   1.00
H295   H     0.57386   0.39622   0.24055   0.00000  Uiso   1.00
H296   H     0.51848   0.39257   0.26699   0.00000  Uiso   1.00
N297   N     0.42298   0.45580   0.04107   0.00000  Uiso   1.00
H298   H     0.38794   0.46824   0.02933   0.00000  Uiso   1.00
H299   H     0.42112   0.42537   0.02924   0.00000  Uiso   1.00
N300   N     0.57700   0.54421   0.29226   0.00000  Uiso   1.00
H301   H     0.61205   0.53180   0.30399   0.00000  Uiso   1.00
H302   H     0.57883   0.57464   0.30408   0.00000  Uiso   1.00
C303   C     0.42054   0.45390   0.27562   0.00000  Uiso   1.00
O304   O     0.37729   0.46666   0.27079   0.00000  Uiso   1.00
O305   O     0.42874   0.41493   0.25824   0.00000  Uiso   1.00
H306   H     0.39658   0.40124   0.24019   0.00000  Uiso   1.00
C307   C     0.57947   0.54609   0.05771   0.00000  Uiso   1.00
O308   O     0.62273   0.53334   0.06249   0.00000  Uiso   1.00
O309   O     0.57128   0.58505   0.07511   0.00000  Uiso   1.00
H310   H     0.60346   0.59874   0.09311   0.00000  Uiso   1.00
C311   C     0.83714   0.42092   0.16647   0.00000  Uiso   1.00
C312   C     0.82952   0.57907   0.16687   0.00000  Uiso   1.00
C313   C     0.73485   0.49834   0.15516   0.00000  Uiso   1.00
C314   C     0.93181   0.50166   0.17818   0.00000  Uiso   1.00
C315   C     0.67998   0.49084   0.15113   0.00000  Uiso   1.00
C316   C     0.98668   0.50917   0.18221   0.00000  Uiso   1.00
C317   C     0.82787   0.35287   0.12309   0.00000  Uiso   1.00
C318   C     0.83874   0.64713   0.21024   0.00000  Uiso   1.00
C319   C     0.81548   0.64428   0.12505   0.00000  Uiso   1.00
C320   C     0.85113   0.35571   0.20829   0.00000  Uiso   1.00
C321   C     0.82570   0.62392   0.16782   0.00000  Uiso   1.00
C322   C     0.84092   0.37607   0.16551   0.00000  Uiso   1.00
C323   C     0.79596   0.47816   0.02062   0.00000  Uiso   1.00
C324   C     0.87071   0.52184   0.31271   0.00000  Uiso   1.00
C325   C     0.79587   0.47796   0.30433   0.00000  Uiso   1.00
C326   C     0.87080   0.52203   0.02900   0.00000  Uiso   1.00
Cu327  Cu    0.83333   0.50001   0.21355   0.00000  Uiso   1.00
Cu328  Cu    0.83333   0.49999   0.11978   0.00000  Uiso   1.00
N329   N     0.83335   0.50001   0.28403   0.00000  Uiso   1.00
N330   N     0.83332   0.49999   0.04931   0.00000  Uiso   1.00
O331   O     0.83333   0.43989   0.20625   0.00000  Uiso   1.00
O332   O     0.83334   0.56011   0.12709   0.00000  Uiso   1.00
O333   O     0.83333   0.43988   0.12706   0.00000  Uiso   1.00
O334   O     0.83334   0.56012   0.20628   0.00000  Uiso   1.00
O335   O     0.75828   0.50000   0.19712   0.00000  Uiso   1.00
O336   O     0.90839   0.50000   0.13621   0.00000  Uiso   1.00
O337   O     0.75828   0.49999   0.11793   0.00000  Uiso   1.00
O338   O     0.90839   0.50001   0.21540   0.00000  Uiso   1.00
N339   N     0.98970   0.45897   0.11922   0.00000  Uiso   1.00
H340   H     0.99668   0.46636   0.08536   0.00000  Uiso   1.00
H341   H     0.67443   0.43182   0.12761   0.00000  Uiso   1.00
N342   N     0.67697   0.54103   0.21412   0.00000  Uiso   1.00
H343   H     0.66999   0.53363   0.24798   0.00000  Uiso   1.00
H344   H     0.99223   0.56819   0.20575   0.00000  Uiso   1.00
C345   C     0.83411   0.36980   0.07618   0.00000  Uiso   1.00
O346   O     0.87307   0.39048   0.07077   0.00000  Uiso   1.00
O347   O     0.79774   0.35958   0.03752   0.00000  Uiso   1.00
H348   H     0.80805   0.37106   0.00730   0.00000  Uiso   1.00
C349   C     0.83249   0.63019   0.25715   0.00000  Uiso   1.00
O350   O     0.79354   0.60950   0.26254   0.00000  Uiso   1.00
O351   O     0.86884   0.64042   0.29581   0.00000  Uiso   1.00
H352   H     0.85853   0.62893   0.32602   0.00000  Uiso   1.00
N353   N     0.78915   0.62347   0.08376   0.00000  Uiso   1.00
H354   H     0.75956   0.60365   0.09279   0.00000  Uiso   1.00
H355   H     0.81488   0.60752   0.06630   0.00000  Uiso   1.00
N356   N     0.87749   0.37651   0.24958   0.00000  Uiso   1.00
H357   H     0.90719   0.39622   0.24055   0.00000  Uiso   1.00
H358   H     0.85182   0.39257   0.26699   0.00000  Uiso   1.00
N359   N     0.75631   0.45580   0.04107   0.00000  Uiso   1.00
H360   H     0.72127   0.46824   0.02933   0.00000  Uiso   1.00
H361   H     0.75445   0.42537   0.02924   0.00000  Uiso   1.00
N362   N     0.91033   0.54421   0.29226   0.00000  Uiso   1.00
H363   H     0.94538   0.53180   0.30399   0.00000  Uiso   1.00
H364   H     0.91217   0.57464   0.30408   0.00000  Uiso   1.00
C365   C     0.75388   0.45390   0.27562   0.00000  Uiso   1.00
O366   O     0.71062   0.46666   0.27079   0.00000  Uiso   1.00
O367   O     0.76207   0.41493   0.25824   0.00000  Uiso   1.00
H368   H     0.72992   0.40124   0.24019   0.00000  Uiso   1.00
C369   C     0.91280   0.54609   0.05771   0.00000  Uiso   1.00
O370   O     0.95607   0.53334   0.06249   0.00000  Uiso   1.00
O371   O     0.90462   0.58505   0.07511   0.00000  Uiso   1.00
H372   H     0.93679   0.59874   0.09311   0.00000  Uiso   1.00
C373   C     0.17047   0.75426   0.16647   0.00000  Uiso   1.00
C374   C     0.16285   0.91241   0.16687   0.00000  Uiso   1.00
C375   C     0.06819   0.83168   0.15516   0.00000  Uiso   1.00
C376   C     0.26515   0.83499   0.17818   0.00000  Uiso   1.00
C377   C     0.01332   0.82417   0.15113   0.00000  Uiso   1.00
C378   C     0.32002   0.84250   0.18221   0.00000  Uiso   1.00
C379   C     0.16121   0.68620   0.12309   0.00000  Uiso   1.00
C380   C     0.17207   0.98046   0.21024   0.00000  Uiso   1.00
C381   C     0.14882   0.97761   0.12505   0.00000  Uiso   1.00
C382   C     0.18447   0.68905   0.20829   0.00000  Uiso   1.00
C383   C     0.15904   0.95726   0.16782   0.00000  Uiso   1.00
C384   C     0.17425   0.70940   0.16551   0.00000  Uiso   1.00
C385   C     0.12929   0.81149   0.02062   0.00000  Uiso   1.00
C386   C     0.20404   0.85517   0.31271   0.00000  Uiso   1.00
C387   C     0.12920   0.81130   0.30433   0.00000  Uiso   1.00
C388   C     0.20413   0.85537   0.02900   0.00000  Uiso   1.00
Cu389  Cu    0.16667   0.83334   0.21355   0.00000  Uiso   1.00
Cu390  Cu    0.16667   0.83333   0.11978   0.00000  Uiso   1.00
N391   N     0.16668   0.83334   0.28403   0.00000  Uiso   1.00
N392   N     0.16665   0.83332   0.04931   0.00000  Uiso   1.00
O393   O     0.16666   0.77322   0.20625   0.00000  Uiso   1.00
O394   O     0.16667   0.89345   0.12709   0.00000  Uiso   1.00
O395   O     0.16666   0.77321   0.12706   0.00000  Uiso   1.00
O396   O     0.16667   0.89346   0.20628   0.00000  Uiso   1.00
O397   O     0.09161   0.83334   0.19712   0.00000  Uiso   1.00
O398   O     0.24172   0.83333   0.13621   0.00000  Uiso   1.00
O399   O     0.09161   0.83333   0.11793   0.00000  Uiso   1.00
O400   O     0.24172   0.83334   0.21540   0.00000  Uiso   1.00
N401   N     0.32303   0.79231   0.11922   0.00000  Uiso   1.00
H402   H     0.33001   0.79969   0.08536   0.00000  Uiso   1.00
H403   H     0.00777   0.76515   0.12761   0.00000  Uiso   1.00
N404   N     0.01030   0.87436   0.21412   0.00000  Uiso   1.00
H405   H     0.00332   0.86697   0.24798   0.00000  Uiso   1.00
H406   H     0.32557   0.90152   0.20575   0.00000  Uiso   1.00
C407   C     0.16744   0.70313   0.07618   0.00000  Uiso   1.00
O408   O     0.20640   0.72381   0.07077   0.00000  Uiso   1.00
O409   O     0.13107   0.69291   0.03752   0.00000  Uiso   1.00
H410   H     0.14138   0.70439   0.00730   0.00000  Uiso   1.00
C411   C     0.16582   0.96353   0.25715   0.00000  Uiso   1.00
O412   O     0.12687   0.94284   0.26254   0.00000  Uiso   1.00
O413   O     0.20217   0.97375   0.29581   0.00000  Uiso   1.00
H414   H     0.19186   0.96226   0.32602   0.00000  Uiso   1.00
N415   N     0.12249   0.95681   0.08376   0.00000  Uiso   1.00
H416   H     0.09289   0.93698   0.09279   0.00000  Uiso   1.00
H417   H     0.14822   0.94085   0.06630   0.00000  Uiso   1.00
N418   N     0.21082   0.70984   0.24958   0.00000  Uiso   1.00
H419   H     0.24052   0.72955   0.24055   0.00000  Uiso   1.00
H420   H     0.18515   0.72590   0.26699   0.00000  Uiso   1.00
N421   N     0.08965   0.78914   0.04107   0.00000  Uiso   1.00
H422   H     0.05461   0.80157   0.02933   0.00000  Uiso   1.00
H423   H     0.08778   0.75871   0.02924   0.00000  Uiso   1.00
N424   N     0.24367   0.87755   0.29226   0.00000  Uiso   1.00
H425   H     0.27872   0.86514   0.30399   0.00000  Uiso   1.00
H426   H     0.24550   0.90797   0.30408   0.00000  Uiso   1.00
C427   C     0.08721   0.78723   0.27562   0.00000  Uiso   1.00
O428   O     0.04395   0.79999   0.27079   0.00000  Uiso   1.00
O429   O     0.09540   0.74826   0.25824   0.00000  Uiso   1.00
H430   H     0.06325   0.73458   0.24019   0.00000  Uiso   1.00
C431   C     0.24613   0.87943   0.05771   0.00000  Uiso   1.00
O432   O     0.28940   0.86667   0.06249   0.00000  Uiso   1.00
O433   O     0.23795   0.91838   0.07511   0.00000  Uiso   1.00
H434   H     0.27013   0.93208   0.09311   0.00000  Uiso   1.00
C435   C     0.50381   0.75426   0.16647   0.00000  Uiso   1.00
C436   C     0.49618   0.91241   0.16687   0.00000  Uiso   1.00
C437   C     0.40152   0.83168   0.15516   0.00000  Uiso   1.00
C438   C     0.59848   0.83499   0.17818   0.00000  Uiso   1.00
C439   C     0.34665   0.82417   0.15113   0.00000  Uiso   1.00
C440   C     0.65335   0.84250   0.18221   0.00000  Uiso   1.00
C441   C     0.49454   0.68620   0.12309   0.00000  Uiso   1.00
C442   C     0.50540   0.98046   0.21024   0.00000  Uiso   1.00
C443   C     0.48215   0.97761   0.12505   0.00000  Uiso   1.00
C444   C     0.51780   0.68905   0.20829   0.00000  Uiso   1.00
C445   C     0.49237   0.95726   0.16782   0.00000  Uiso   1.00
C446   C     0.50759   0.70940   0.16551   0.00000  Uiso   1.00
C447   C     0.46262   0.81149   0.02062   0.00000  Uiso   1.00
C448   C     0.53737   0.85517   0.31271   0.00000  Uiso   1.00
C449   C     0.46254   0.81130   0.30433   0.00000  Uiso   1.00
C450   C     0.53747   0.85537   0.02900   0.00000  Uiso   1.00
Cu451  Cu    0.50000   0.83334   0.21355   0.00000  Uiso   1.00
Cu452  Cu    0.50000   0.83333   0.11978   0.00000  Uiso   1.00
N453   N     0.50001   0.83334   0.28403   0.00000  Uiso   1.00
N454   N     0.49999   0.83332   0.04931   0.00000  Uiso   1.00
O455   O     0.50000   0.77322   0.20625   0.00000  Uiso   1.00
O456   O     0.50000   0.89345   0.12709   0.00000  Uiso   1.00
O457   O     0.50000   0.77321   0.12706   0.00000  Uiso   1.00
O458   O     0.50000   0.89346   0.20628   0.00000  Uiso   1.00
O459   O     0.42495   0.83334   0.19712   0.00000  Uiso   1.00
O460   O     0.57505   0.83333   0.13621   0.00000  Uiso   1.00
O461   O     0.42494   0.83333   0.11793   0.00000  Uiso   1.00
O462   O     0.57506   0.83334   0.21540   0.00000  Uiso   1.00
N463   N     0.65636   0.79231   0.11922   0.00000  Uiso   1.00
H464   H     0.66334   0.79969   0.08536   0.00000  Uiso   1.00
H465   H     0.34110   0.76515   0.12761   0.00000  Uiso   1.00
N466   N     0.34364   0.87436   0.21412   0.00000  Uiso   1.00
H467   H     0.33665   0.86697   0.24798   0.00000  Uiso   1.00
H468   H     0.65890   0.90152   0.20575   0.00000  Uiso   1.00
C469   C     0.50078   0.70313   0.07618   0.00000  Uiso   1.00
O470   O     0.53973   0.72381   0.07077   0.00000  Uiso   1.00
O471   O     0.46441   0.69291   0.03752   0.00000  Uiso   1.00
H472   H     0.47472   0.70439   0.00730   0.00000  Uiso   1.00
C473   C     0.49915   0.96353   0.25715   0.00000  Uiso   1.00
O474   O     0.46020   0.94284   0.26254   0.00000  Uiso   1.00
O475   O     0.53550   0.97375   0.29581   0.00000  Uiso   1.00
H476   H     0.52519   0.96226   0.32602   0.00000  Uiso   1.00
N477   N     0.45582   0.95681   0.08376   0.00000  Uiso   1.00
H478   H     0.42623   0.93698   0.09279   0.00000  Uiso   1.00
H479   H     0.48155   0.94085   0.06630   0.00000  Uiso   1.00
N480   N     0.54415   0.70984   0.24958   0.00000  Uiso   1.00
H481   H     0.57386   0.72955   0.24055   0.00000  Uiso   1.00
H482   H     0.51848   0.72590   0.26699   0.00000  Uiso   1.00
N483   N     0.42298   0.78914   0.04107   0.00000  Uiso   1.00
H484   H     0.38794   0.80157   0.02933   0.00000  Uiso   1.00
H485   H     0.42112   0.75871   0.02924   0.00000  Uiso   1.00
N486   N     0.57700   0.87755   0.29226   0.00000  Uiso   1.00
H487   H     0.61205   0.86514   0.30399   0.00000  Uiso   1.00
H488   H     0.57883   0.90797   0.30408   0.00000  Uiso   1.00
C489   C     0.42054   0.78723   0.27562   0.00000  Uiso   1.00
O490   O     0.37729   0.79999   0.27079   0.00000  Uiso   1.00
O491   O     0.42874   0.74826   0.25824   0.00000  Uiso   1.00
H492   H     0.39658   0.73458   0.24019   0.00000  Uiso   1.00
C493   C     0.57947   0.87943   0.05771   0.00000  Uiso   1.00
O494   O     0.62273   0.86667   0.06249   0.00000  Uiso   1.00
O495   O     0.57128   0.91838   0.07511   0.00000  Uiso   1.00
H496   H     0.60346   0.93208   0.09311   0.00000  Uiso   1.00
C497   C     0.83714   0.75426   0.16647   0.00000  Uiso   1.00
C498   C     0.82952   0.91241   0.16687   0.00000  Uiso   1.00
C499   C     0.73485   0.83168   0.15516   0.00000  Uiso   1.00
C500   C     0.93181   0.83499   0.17818   0.00000  Uiso   1.00
C501   C     0.67998   0.82417   0.15113   0.00000  Uiso   1.00
C502   C     0.98668   0.84250   0.18221   0.00000  Uiso   1.00
C503   C     0.82787   0.68620   0.12309   0.00000  Uiso   1.00
C504   C     0.83874   0.98046   0.21024   0.00000  Uiso   1.00
C505   C     0.81548   0.97761   0.12505   0.00000  Uiso   1.00
C506   C     0.85113   0.68905   0.20829   0.00000  Uiso   1.00
C507   C     0.82570   0.95726   0.16782   0.00000  Uiso   1.00
C508   C     0.84092   0.70940   0.16551   0.00000  Uiso   1.00
C509   C     0.79596   0.81149   0.02062   0.00000  Uiso   1.00
C510   C     0.87071   0.85517   0.31271   0.00000  Uiso   1.00
C511   C     0.79587   0.81130   0.30433   0.00000  Uiso   1.00
C512   C     0.87080   0.85537   0.02900   0.00000  Uiso   1.00
Cu513  Cu    0.83333   0.83334   0.21355   0.00000  Uiso   1.00
Cu514  Cu    0.83333   0.83333   0.11978   0.00000  Uiso   1.00
N515   N     0.83335   0.83334   0.28403   0.00000  Uiso   1.00
N516   N     0.83332   0.83332   0.04931   0.00000  Uiso   1.00
O517   O     0.83333   0.77322   0.20625   0.00000  Uiso   1.00
O518   O     0.83334   0.89345   0.12709   0.00000  Uiso   1.00
O519   O     0.83333   0.77321   0.12706   0.00000  Uiso   1.00
O520   O     0.83334   0.89346   0.20628   0.00000  Uiso   1.00
O521   O     0.75828   0.83334   0.19712   0.00000  Uiso   1.00
O522   O     0.90839   0.83333   0.13621   0.00000  Uiso   1.00
O523   O     0.75828   0.83333   0.11793   0.00000  Uiso   1.00
O524   O     0.90839   0.83334   0.21540   0.00000  Uiso   1.00
N525   N     0.98970   0.79231   0.11922   0.00000  Uiso   1.00
H526   H     0.99668   0.79969   0.08536   0.00000  Uiso   1.00
H527   H     0.67443   0.76515   0.12761   0.00000  Uiso   1.00
N528   N     0.67697   0.87436   0.21412   0.00000  Uiso   1.00
H529   H     0.66999   0.86697   0.24798   0.00000  Uiso   1.00
H530   H     0.99223   0.90152   0.20575   0.00000  Uiso   1.00
C531   C     0.83411   0.70313   0.07618   0.00000  Uiso   1.00
O532   O     0.87307   0.72381   0.07077   0.00000  Uiso   1.00
O533   O     0.79774   0.69291   0.03752   0.00000  Uiso   1.00
H534   H     0.80805   0.70439   0.00730   0.00000  Uiso   1.00
C535   C     0.83249   0.96353   0.25715   0.00000  Uiso   1.00
O536   O     0.79354   0.94284   0.26254   0.00000  Uiso   1.00
O537   O     0.86884   0.97375   0.29581   0.00000  Uiso   1.00
H538   H     0.85853   0.96226   0.32602   0.00000  Uiso   1.00
N539   N     0.78915   0.95681   0.08376   0.00000  Uiso   1.00
H540   H     0.75956   0.93698   0.09279   0.00000  Uiso   1.00
H541   H     0.81488   0.94085   0.06630   0.00000  Uiso   1.00
N542   N     0.87749   0.70984   0.24958   0.00000  Uiso   1.00
H543   H     0.90719   0.72955   0.24055   0.00000  Uiso   1.00
H544   H     0.85182   0.72590   0.26699   0.00000  Uiso   1.00
N545   N     0.75631   0.78914   0.04107   0.00000  Uiso   1.00
H546   H     0.72127   0.80157   0.02933   0.00000  Uiso   1.00
H547   H     0.75445   0.75871   0.02924   0.00000  Uiso   1.00
N548   N     0.91033   0.87755   0.29226   0.00000  Uiso   1.00
H549   H     0.94538   0.86514   0.30399   0.00000  Uiso   1.00
H550   H     0.91217   0.90797   0.30408   0.00000  Uiso   1.00
C551   C     0.75388   0.78723   0.27562   0.00000  Uiso   1.00
O552   O     0.71062   0.79999   0.27079   0.00000  Uiso   1.00
O553   O     0.76207   0.74826   0.25824   0.00000  Uiso   1.00
H554   H     0.72992   0.73458   0.24019   0.00000  Uiso   1.00
C555   C     0.91280   0.87943   0.05771   0.00000  Uiso   1.00
O556   O     0.95607   0.86667   0.06249   0.00000  Uiso   1.00
O557   O     0.90462   0.91838   0.07511   0.00000  Uiso   1.00
H558   H     0.93679   0.93208   0.09311   0.00000  Uiso   1.00
C559   C     0.17047   0.08759   0.49980   0.00000  Uiso   1.00
C560   C     0.16285   0.24574   0.50020   0.00000  Uiso   1.00
C561   C     0.06819   0.16501   0.48849   0.00000  Uiso   1.00
C562   C     0.26515   0.16833   0.51151   0.00000  Uiso   1.00
C563   C     0.01332   0.15750   0.48446   0.00000  Uiso   1.00
C564   C     0.32002   0.17584   0.51554   0.00000  Uiso   1.00
C565   C     0.16121   0.01953   0.45643   0.00000  Uiso   1.00
C566   C     0.17207   0.31379   0.54358   0.00000  Uiso   1.00
C567   C     0.14882   0.31094   0.45838   0.00000  Uiso   1.00
C568   C     0.18447   0.02238   0.54162   0.00000  Uiso   1.00
C569   C     0.15904   0.29059   0.50116   0.00000  Uiso   1.00
C570   C     0.17425   0.04274   0.49885   0.00000  Uiso   1.00
C571   C     0.12929   0.14483   0.35395   0.00000  Uiso   1.00
C572   C     0.20404   0.18851   0.64605   0.00000  Uiso   1.00
C573   C     0.12920   0.14463   0.63766   0.00000  Uiso   1.00
C574   C     0.20413   0.18870   0.36234   0.00000  Uiso   1.00
Cu575  Cu    0.16667   0.16667   0.54689   0.00000  Uiso   1.00
Cu576  Cu    0.16667   0.16666   0.45311   0.00000  Uiso   1.00
N577   N     0.16668   0.16668   0.61736   0.00000  Uiso   1.00
N578   N     0.16665   0.16666   0.38264   0.00000  Uiso   1.00
O579   O     0.16666   0.10655   0.53958   0.00000  Uiso   1.00
O580   O     0.16667   0.22678   0.46042   0.00000  Uiso   1.00
O581   O     0.16666   0.10654   0.46039   0.00000  Uiso   1.00
O582   O     0.16667   0.22679   0.53961   0.00000  Uiso   1.00
O583   O     0.09161   0.16667   0.53046   0.00000  Uiso   1.00
O584   O     0.24172   0.16666   0.46954   0.00000  Uiso   1.00
O585   O     0.09161   0.16666   0.45127   0.00000  Uiso   1.00
O586   O     0.24172   0.16667   0.54873   0.00000  Uiso   1.00
N587   N     0.32303   0.12564   0.45255   0.00000  Uiso   1.00
H588   H     0.33001   0.13302   0.41869   0.00000  Uiso   1.00
H589   H     0.00777   0.09848   0.46094   0.00000  Uiso   1.00
N590   N     0.01030   0.20769   0.54746   0.00000  Uiso   1.00
H591   H     0.00332   0.20030   0.58131   0.00000  Uiso   1.00
H592   H     0.32557   0.23485   0.53908   0.00000  Uiso   1.00
C593   C     0.16744   0.03646   0.40951   0.00000  Uiso   1.00
O594   O     0.20640   0.05714   0.40411   0.00000  Uiso   1.00
O595   O     0.13107   0.02624   0.37085   0.00000  Uiso   1.00
H596   H     0.14138   0.03772   0.34064   0.00000  Uiso   1.00
C597   C     0.16582   0.29686   0.59048   0.00000  Uiso   1.00
O598   O     0.12687   0.27617   0.59587   0.00000  Uiso   1.00
O599   O     0.20217   0.30708   0.62915   0.00000  Uiso   1.00
H600   H     0.19186   0.29559   0.65936   0.00000  Uiso   1.00
N601   N     0.12249   0.29014   0.41709   0.00000  Uiso   1.00
H602   H     0.09289   0.27031   0.42612   0.00000  Uiso   1.00
H603   H     0.14822   0.27418   0.39963   0.00000  Uiso   1.00
N604   N     0.21082   0.04317   0.58291   0.00000  Uiso   1.00
H605   H     0.24052   0.06289   0.57388   0.00000  Uiso   1.00
H606   H     0.18515   0.05924   0.60033   0.00000  Uiso   1.00
N607   N     0.08965   0.12247   0.37441   0.00000  Uiso   1.00
H608   H     0.05461   0.13490   0.36267   0.00000  Uiso   1.00
H609   H     0.08778   0.09204   0.36257   0.00000  Uiso   1.00
N610   N     0.24367   0.21088   0.62559   0.00000  Uiso   1.00
H611   H     0.27872   0.19847   0.63733   0.00000  Uiso   1.00
H612   H     0.24550   0.24131   0.63741   0.00000  Uiso   1.00
C613   C     0.08721   0.12056   0.60895   0.00000  Uiso   1.00
O614   O     0.04395   0.13333   0.60413   0.00000  Uiso   1.00
O615   O     0.09540   0.08160   0.59158   0.00000  Uiso   1.00
H616   H     0.06325   0.06791   0.57352   0.00000  Uiso   1.00
C617   C     0.24613   0.21276   0.39104   0.00000  Uiso   1.00
O618   O     0.28940   0.20001   0.39583   0.00000  Uiso   1.00
O619   O     0.23795   0.25171   0.40844   0.00000  Uiso   1.00
H620   H     0.27013   0.26541   0.42644   0.00000  Uiso   1.00
C621   C     0.50381   0.08759   0.49980   0.00000  Uiso   1.00
C622   C     0.49618   0.24574   0.50020   0.00000  Uiso   1.00
C623   C     0.40152   0.16501   0.48849   0.00000  Uiso   1.00
C624   C     0.59848   0.16833   0.51151   0.00000  Uiso   1.00
C625   C     0.34665   0.15750   0.48446   0.00000  Uiso   1.00
C626   C     0.65335   0.17584   0.51554   0.00000  Uiso   1.00
C627   C     0.49454   0.01953   0.45643   0.00000  Uiso   1.00
C628   C     0.50540   0.31379   0.54358   0.00000  Uiso   1.00
C629   C     0.48215   0.31094   0.45838   0.00000  Uiso   1.00
C630   C     0.51780   0.02238   0.54162   0.00000  Uiso   1.00
C631   C     0.49237   0.29059   0.50116   0.00000  Uiso   1.00
C632   C     0.50759   0.04274   0.49885   0.00000  Uiso   1.00
C633   C     0.46262   0.14483   0.35395   0.00000  Uiso   1.00
C634   C     0.53737   0.18851   0.64605   0.00000  Uiso   1.00
C635   C     0.46254   0.14463   0.63766   0.00000  Uiso   1.00
C636   C     0.53747   0.18870   0.36234   0.00000  Uiso   1.00
Cu637  Cu    0.50000   0.16667   0.54689   0.00000  Uiso   1.00
Cu638  Cu    0.50000   0.16666   0.45311   0.00000  Uiso   1.00
N639   N     0.50001   0.16668   0.61736   0.00000  Uiso   1.00
N640   N     0.49999   0.16666   0.38264   0.00000  Uiso   1.00
O641   O     0.50000   0.10655   0.53958   0.00000  Uiso   1.00
O642   O     0.50000   0.22678   0.46042   0.00000  Uiso   1.00
O643   O     0.50000   0.10654   0.46039   0.00000  Uiso   1.00
O644   O     0.50000   0.22679   0.53961   0.00000  Uiso   1.00
O645   O     0.42495   0.16667   0.53046   0.00000  Uiso   1.00
O646   O     0.57505   0.16666   0.46954   0.00000  Uiso   1.00
O647   O     0.42494   0.16666   0.45127   0.00000  Uiso   1.00
O648   O     0.57506   0.16667   0.54873   0.00000  Uiso   1.00
N649   N     0.65636   0.12564   0.45255   0.00000  Uiso   1.00
H650   H     0.66334   0.13302   0.41869   0.00000  Uiso   1.00
H651   H     0.34110   0.09848   0.46094   0.00000  Uiso   1.00
N652   N     0.34364   0.20769   0.54746   0.00000  Uiso   1.00
H653   H     0.33665   0.20030   0.58131   0.00000  Uiso   1.00
H654   H     0.65890   0.23485   0.53908   0.00000  Uiso   1.00
C655   C     0.50078   0.03646   0.40951   0.00000  Uiso   1.00
O656   O     0.53973   0.05714   0.40411   0.00000  Uiso   1.00
O657   O     0.46441   0.02624   0.37085   0.00000  Uiso   1.00
H658   H     0.47472   0.03772   0.34064   0.00000  Uiso   1.00
C659   C     0.49915   0.29686   0.59048   0.00000  Uiso   1.00
O660   O     0.46020   0.27617   0.59587   0.00000  Uiso   1.00
O661   O     0.53550   0.30708   0.62915   0.00000  Uiso   1.00
H662   H     0.52519   0.29559   0.65936   0.00000  Uiso   1.00
N663   N     0.45582   0.29014   0.41709   0.00000  Uiso   1.00
H664   H     0.42623   0.27031   0.42612   0.00000  Uiso   1.00
H665   H     0.48155   0.27418   0.39963   0.00000  Uiso   1.00
N666   N     0.54415   0.04317   0.58291   0.00000  Uiso   1.00
H667   H     0.57386   0.06289   0.57388   0.00000  Uiso   1.00
H668   H     0.51848   0.05924   0.60033   0.00000  Uiso   1.00
N669   N     0.42298   0.12247   0.37441   0.00000  Uiso   1.00
H670   H     0.38794   0.13490   0.36267   0.00000  Uiso   1.00
H671   H     0.42112   0.09204   0.36257   0.00000  Uiso   1.00
N672   N     0.57700   0.21088   0.62559   0.00000  Uiso   1.00
H673   H     0.61205   0.19847   0.63733   0.00000  Uiso   1.00
H674   H     0.57883   0.24131   0.63741   0.00000  Uiso   1.00
C675   C     0.42054   0.12056   0.60895   0.00000  Uiso   1.00
O676   O     0.37729   0.13333   0.60413   0.00000  Uiso   1.00
O677   O     0.42874   0.08160   0.59158   0.00000  Uiso   1.00
H678   H     0.39658   0.06791   0.57352   0.00000  Uiso   1.00
C679   C     0.57947   0.21276   0.39104   0.00000  Uiso   1.00
O680   O     0.62273   0.20001   0.39583   0.00000  Uiso   1.00
O681   O     0.57128   0.25171   0.40844   0.00000  Uiso   1.00
H682   H     0.60346   0.26541   0.42644   0.00000  Uiso   1.00
C683   C     0.83714   0.08759   0.49980   0.00000  Uiso   1.00
C684   C     0.82952   0.24574   0.50020   0.00000  Uiso   1.00
C685   C     0.73485   0.16501   0.48849   0.00000  Uiso   1.00
C686   C     0.93181   0.16833   0.51151   0.00000  Uiso   1.00
C687   C     0.67998   0.15750   0.48446   0.00000  Uiso   1.00
C688   C     0.98668   0.17584   0.51554   0.00000  Uiso   1.00
C689   C     0.82787   0.01953   0.45643   0.00000  Uiso   1.00
C690   C     0.83874   0.31379   0.54358   0.00000  Uiso   1.00
C691   C     0.81548   0.31094   0.45838   0.00000  Uiso   1.00
C692   C     0.85113   0.02238   0.54162   0.00000  Uiso   1.00
C693   C     0.82570   0.29059   0.50116   0.00000  Uiso   1.00
C694   C     0.84092   0.04274   0.49885   0.00000  Uiso   1.00
C695   C     0.79596   0.14483   0.35395   0.00000  Uiso   1.00
C696   C     0.87071   0.18851   0.64605   0.00000  Uiso   1.00
C697   C     0.79587   0.14463   0.63766   0.00000  Uiso   1.00
C698   C     0.87080   0.18870   0.36234   0.00000  Uiso   1.00
Cu699  Cu    0.83333   0.16667   0.54689   0.00000  Uiso   1.00
Cu700  Cu    0.83333   0.16666   0.45311   0.00000  Uiso   1.00
N701   N     0.83335   0.16668   0.61736   0.00000  Uiso   1.00
N702   N     0.83332   0.16666   0.38264   0.00000  Uiso   1.00
O703   O     0.83333   0.10655   0.53958   0.00000  Uiso   1.00
O704   O     0.83334   0.22678   0.46042   0.00000  Uiso   1.00
O705   O     0.83333   0.10654   0.46039   0.00000  Uiso   1.00
O706   O     0.83334   0.22679   0.53961   0.00000  Uiso   1.00
O707   O     0.75828   0.16667   0.53046   0.00000  Uiso   1.00
O708   O     0.90839   0.16666   0.46954   0.00000  Uiso   1.00
O709   O     0.75828   0.16666   0.45127   0.00000  Uiso   1.00
O710   O     0.90839   0.16667   0.54873   0.00000  Uiso   1.00
N711   N     0.98970   0.12564   0.45255   0.00000  Uiso   1.00
H712   H     0.99668   0.13302   0.41869   0.00000  Uiso   1.00
H713   H     0.67443   0.09848   0.46094   0.00000  Uiso   1.00
N714   N     0.67697   0.20769   0.54746   0.00000  Uiso   1.00
H715   H     0.66999   0.20030   0.58131   0.00000  Uiso   1.00
H716   H     0.99223   0.23485   0.53908   0.00000  Uiso   1.00
C717   C     0.83411   0.03646   0.40951   0.00000  Uiso   1.00
O718   O     0.87307   0.05714   0.40411   0.00000  Uiso   1.00
O719   O     0.79774   0.02624   0.37085   0.00000  Uiso   1.00
H720   H     0.80805   0.03772   0.34064   0.00000  Uiso   1.00
C721   C     0.83249   0.29686   0.59048   0.00000  Uiso   1.00
O722   O     0.79354   0.27617   0.59587   0.00000  Uiso   1.00
O723   O     0.86884   0.30708   0.62915   0.00000  Uiso   1.00
H724   H     0.85853   0.29559   0.65936   0.00000  Uiso   1.00
N725   N     0.78915   0.29014   0.41709   0.00000  Uiso   1.00
H726   H     0.75956   0.27031   0.42612   0.00000  Uiso   1.00
H727   H     0.81488   0.27418   0.39963   0.00000  Uiso   1.00
N728   N     0.87749   0.04317   0.58291   0.00000  Uiso   1.00
H729   H     0.90719   0.06289   0.57388   0.00000  Uiso   1.00
H730   H     0.85182   0.05924   0.60033   0.00000  Uiso   1.00
N731   N     0.75631   0.12247   0.37441   0.00000  Uiso   1.00
H732   H     0.72127   0.13490   0.36267   0.00000  Uiso   1.00
H733   H     0.75445   0.09204   0.36257   0.00000  Uiso   1.00
N734   N     0.91033   0.21088   0.62559   0.00000  Uiso   1.00
H735   H     0.94538   0.19847   0.63733   0.00000  Uiso   1.00
H736   H     0.91217   0.24131   0.63741   0.00000  Uiso   1.00
C737   C     0.75388   0.12056   0.60895   0.00000  Uiso   1.00
O738   O     0.71062   0.13333   0.60413   0.00000  Uiso   1.00
O739   O     0.76207   0.08160   0.59158   0.00000  Uiso   1.00
H740   H     0.72992   0.06791   0.57352   0.00000  Uiso   1.00
C741   C     0.91280   0.21276   0.39104   0.00000  Uiso   1.00
O742   O     0.95607   0.20001   0.39583   0.00000  Uiso   1.00
O743   O     0.90462   0.25171   0.40844   0.00000  Uiso   1.00
H744   H     0.93679   0.26541   0.42644   0.00000  Uiso   1.00
C745   C     0.17047   0.42092   0.49980   0.00000  Uiso   1.00
C746   C     0.16285   0.57907   0.50020   0.00000  Uiso   1.00
C747   C     0.06819   0.49834   0.48849   0.00000  Uiso   1.00
C748   C     0.26515   0.50166   0.51151   0.00000  Uiso   1.00
C749   C     0.01332   0.49084   0.48446   0.00000  Uiso   1.00
C750   C     0.32002   0.50917   0.51554   0.00000  Uiso   1.00
C751   C     0.16121   0.35287   0.45643   0.00000  Uiso   1.00
C752   C     0.17207   0.64713   0.54358   0.00000  Uiso   1.00
C753   C     0.14882   0.64428   0.45838   0.00000  Uiso   1.00
C754   C     0.18447   0.35571   0.54162   0.00000  Uiso   1.00
C755   C     0.15904   0.62392   0.50116   0.00000  Uiso   1.00
C756   C     0.17425   0.37607   0.49885   0.00000  Uiso   1.00
C757   C     0.12929   0.47816   0.35395   0.00000  Uiso   1.00
C758   C     0.20404   0.52184   0.64605   0.00000  Uiso   1.00
C759   C     0.12920   0.47796   0.63766   0.00000  Uiso   1.00
C760   C     0.20413   0.52203   0.36234   0.00000  Uiso   1.00
Cu761  Cu    0.16667   0.50001   0.54689   0.00000  Uiso   1.00
Cu762  Cu    0.16667   0.49999   0.45311   0.00000  Uiso   1.00
N763   N     0.16668   0.50001   0.61736   0.00000  Uiso   1.00
N764   N     0.16665   0.49999   0.38264   0.00000  Uiso   1.00
O765   O     0.16666   0.43989   0.53958   0.00000  Uiso   1.00
O766   O     0.16667   0.56011   0.46042   0.00000  Uiso   1.00
O767   O     0.16666   0.43988   0.46039   0.00000  Uiso   1.00
O768   O     0.16667   0.56012   0.53961   0.00000  Uiso   1.00
O769   O     0.09161   0.50000   0.53046   0.00000  Uiso   1.00
O770   O     0.24172   0.50000   0.46954   0.00000  Uiso   1.00
O771   O     0.09161   0.49999   0.45127   0.00000  Uiso   1.00
O772   O     0.24172   0.50001   0.54873   0.00000  Uiso   1.00
N773   N     0.32303   0.45897   0.45255   0.00000  Uiso   1.00
H774   H     0.33001   0.46636   0.41869   0.00000  Uiso   1.00
H775   H     0.00777   0.43182   0.46094   0.00000  Uiso   1.00
N776   N     0.01030   0.54103   0.54746   0.00000  Uiso   1.00
H777   H     0.00332   0.53363   0.58131   0.00000  Uiso   1.00
H778   H     0.32557   0.56819   0.53908   0.00000  Uiso   1.00
C779   C     0.16744   0.36980   0.40951   0.00000  Uiso   1.00
O780   O     0.20640   0.39048   0.40411   0.00000  Uiso   1.00
O781   O     0.13107   0.35958   0.37085   0.00000  Uiso   1.00
H782   H     0.14138   0.37106   0.34064   0.00000  Uiso   1.00
C783   C     0.16582   0.63019   0.59048   0.00000  Uiso   1.00
O784   O     0.12687   0.60950   0.59587   0.00000  Uiso   1.00
O785   O     0.20217   0.64042   0.62915   0.00000  Uiso   1.00
H786   H     0.19186   0.62893   0.65936   0.00000  Uiso   1.00
N787   N     0.12249   0.62347   0.41709   0.00000  Uiso   1.00
H788   H     0.09289   0.60365   0.42612   0.00000  Uiso   1.00
H789   H     0.14822   0.60752   0.39963   0.00000  Uiso   1.00
N790   N     0.21082   0.37651   0.58291   0.00000  Uiso   1.00
H791   H     0.24052   0.39622   0.57388   0.00000  Uiso   1.00
H792   H     0.18515   0.39257   0.60033   0.00000  Uiso   1.00
N793   N     0.08965   0.45580   0.37441   0.00000  Uiso   1.00
H794   H     0.05461   0.46824   0.36267   0.00000  Uiso   1.00
H795   H     0.08778   0.42537   0.36257   0.00000  Uiso   1.00
N796   N     0.24367   0.54421   0.62559   0.00000  Uiso   1.00
H797   H     0.27872   0.53180   0.63733   0.00000  Uiso   1.00
H798   H     0.24550   0.57464   0.63741   0.00000  Uiso   1.00
C799   C     0.08721   0.45390   0.60895   0.00000  Uiso   1.00
O800   O     0.04395   0.46666   0.60413   0.00000  Uiso   1.00
O801   O     0.09540   0.41493   0.59158   0.00000  Uiso   1.00
H802   H     0.06325   0.40124   0.57352   0.00000  Uiso   1.00
C803   C     0.24613   0.54609   0.39104   0.00000  Uiso   1.00
O804   O     0.28940   0.53334   0.39583   0.00000  Uiso   1.00
O805   O     0.23795   0.58505   0.40844   0.00000  Uiso   1.00
H806   H     0.27013   0.59874   0.42644   0.00000  Uiso   1.00
C807   C     0.50381   0.42092   0.49980   0.00000  Uiso   1.00
C808   C     0.49618   0.57907   0.50020   0.00000  Uiso   1.00
C809   C     0.40152   0.49834   0.48849   0.00000  Uiso   1.00
C810   C     0.59848   0.50166   0.51151   0.00000  Uiso   1.00
C811   C     0.34665   0.49084   0.48446   0.00000  Uiso   1.00
C812   C     0.65335   0.50917   0.51554   0.00000  Uiso   1.00
C813   C     0.49454   0.35287   0.45643   0.00000  Uiso   1.00
C814   C     0.50540   0.64713   0.54358   0.00000  Uiso   1.00
C815   C     0.48215   0.64428   0.45838   0.00000  Uiso   1.00
C816   C     0.51780   0.35571   0.54162   0.00000  Uiso   1.00
C817   C     0.49237   0.62392   0.50116   0.00000  Uiso   1.00
C818   C     0.50759   0.37607   0.49885   0.00000  Uiso   1.00
C819   C     0.46262   0.47816   0.35395   0.00000  Uiso   1.00
C820   C     0.53737   0.52184   0.64605   0.00000  Uiso   1.00
C821   C     0.46254   0.47796   0.63766   0.00000  Uiso   1.00
C822   C     0.53747   0.52203   0.36234   0.00000  Uiso   1.00
Cu823  Cu    0.50000   0.50001   0.54689   0.00000  Uiso   1.00
Cu824  Cu    0.50000   0.49999   0.45311   0.00000  Uiso   1.00
N825   N     0.50001   0.50001   0.61736   0.00000  Uiso   1.00
N826   N     0.49999   0.49999   0.38264   0.00000  Uiso   1.00
O827   O     0.50000   0.43989   0.53958   0.00000  Uiso   1.00
O828   O     0.50000   0.56011   0.46042   0.00000  Uiso   1.00
O829   O     0.50000   0.43988   0.46039   0.00000  Uiso   1.00
O830   O     0.50000   0.56012   0.53961   0.00000  Uiso   1.00
O831   O     0.42495   0.50000   0.53046   0.00000  Uiso   1.00
O832   O     0.57505   0.50000   0.46954   0.00000  Uiso   1.00
O833   O     0.42494   0.49999   0.45127   0.00000  Uiso   1.00
O834   O     0.57506   0.50001   0.54873   0.00000  Uiso   1.00
N835   N     0.65636   0.45897   0.45255   0.00000  Uiso   1.00
H836   H     0.66334   0.46636   0.41869   0.00000  Uiso   1.00
H837   H     0.34110   0.43182   0.46094   0.00000  Uiso   1.00
N838   N     0.34364   0.54103   0.54746   0.00000  Uiso   1.00
H839   H     0.33665   0.53363   0.58131   0.00000  Uiso   1.00
H840   H     0.65890   0.56819   0.53908   0.00000  Uiso   1.00
C841   C     0.50078   0.36980   0.40951   0.00000  Uiso   1.00
O842   O     0.53973   0.39048   0.40411   0.00000  Uiso   1.00
O843   O     0.46441   0.35958   0.37085   0.00000  Uiso   1.00
H844   H     0.47472   0.37106   0.34064   0.00000  Uiso   1.00
C845   C     0.49915   0.63019   0.59048   0.00000  Uiso   1.00
O846   O     0.46020   0.60950   0.59587   0.00000  Uiso   1.00
O847   O     0.53550   0.64042   0.62915   0.00000  Uiso   1.00
H848   H     0.52519   0.62893   0.65936   0.00000  Uiso   1.00
N849   N     0.45582   0.62347   0.41709   0.00000  Uiso   1.00
H850   H     0.42623   0.60365   0.42612   0.00000  Uiso   1.00
H851   H     0.48155   0.60752   0.39963   0.00000  Uiso   1.00
N852   N     0.54415   0.37651   0.58291   0.00000  Uiso   1.00
H853   H     0.57386   0.39622   0.57388   0.00000  Uiso   1.00
H854   H     0.51848   0.39257   0.60033   0.00000  Uiso   1.00
N855   N     0.42298   0.45580   0.37441   0.00000  Uiso   1.00
H856   H     0.38794   0.46824   0.36267   0.00000  Uiso   1.00
H857   H     0.42112   0.42537   0.36257   0.00000  Uiso   1.00
N858   N     0.57700   0.54421   0.62559   0.00000  Uiso   1.00
H859   H     0.61205   0.53180   0.63733   0.00000  Uiso   1.00
H860   H     0.57883   0.57464   0.63741   0.00000  Uiso   1.00
C861   C     0.42054   0.45390   0.60895   0.00000  Uiso   1.00
O862   O     0.37729   0.46666   0.60413   0.00000  Uiso   1.00
O863   O     0.42874   0.41493   0.59158   0.00000  Uiso   1.00
H864   H     0.39658   0.40124   0.57352   0.00000  Uiso   1.00
C865   C     0.57947   0.54609   0.39104   0.00000  Uiso   1.00
O866   O     0.62273   0.53334   0.39583   0.00000  Uiso   1.00
O867   O     0.57128   0.58505   0.40844   0.00000  Uiso   1.00
H868   H     0.60346   0.59874   0.42644   0.00000  Uiso   1.00
C869   C     0.83714   0.42092   0.49980   0.00000  Uiso   1.00
C870   C     0.82952   0.57907   0.50020   0.00000  Uiso   1.00
C871   C     0.73485   0.49834   0.48849   0.00000  Uiso   1.00
C872   C     0.93181   0.50166   0.51151   0.00000  Uiso   1.00
C873   C     0.67998   0.49084   0.48446   0.00000  Uiso   1.00
C874   C     0.98668   0.50917   0.51554   0.00000  Uiso   1.00
C875   C     0.82787   0.35287   0.45643   0.00000  Uiso   1.00
C876   C     0.83874   0.64713   0.54358   0.00000  Uiso   1.00
C877   C     0.81548   0.64428   0.45838   0.00000  Uiso   1.00
C878   C     0.85113   0.35571   0.54162   0.00000  Uiso   1.00
C879   C     0.82570   0.62392   0.50116   0.00000  Uiso   1.00
C880   C     0.84092   0.37607   0.49885   0.00000  Uiso   1.00
C881   C     0.79596   0.47816   0.35395   0.00000  Uiso   1.00
C882   C     0.87071   0.52184   0.64605   0.00000  Uiso   1.00
C883   C     0.79587   0.47796   0.63766   0.00000  Uiso   1.00
C884   C     0.87080   0.52203   0.36234   0.00000  Uiso   1.00
Cu885  Cu    0.83333   0.50001   0.54689   0.00000  Uiso   1.00
Cu886  Cu    0.83333   0.49999   0.45311   0.00000  Uiso   1.00
N887   N     0.83335   0.50001   0.61736   0.00000  Uiso   1.00
N888   N     0.83332   0.49999   0.38264   0.00000  Uiso   1.00
O889   O     0.83333   0.43989   0.53958   0.00000  Uiso   1.00
O890   O     0.83334   0.56011   0.46042   0.00000  Uiso   1.00
O891   O     0.83333   0.43988   0.46039   0.00000  Uiso   1.00
O892   O     0.83334   0.56012   0.53961   0.00000  Uiso   1.00
O893   O     0.75828   0.50000   0.53046   0.00000  Uiso   1.00
O894   O     0.90839   0.50000   0.46954   0.00000  Uiso   1.00
O895   O     0.75828   0.49999   0.45127   0.00000  Uiso   1.00
O896   O     0.90839   0.50001   0.54873   0.00000  Uiso   1.00
N897   N     0.98970   0.45897   0.45255   0.00000  Uiso   1.00
H898   H     0.99668   0.46636   0.41869   0.00000  Uiso   1.00
H899   H     0.67443   0.43182   0.46094   0.00000  Uiso   1.00
N900   N     0.67697   0.54103   0.54746   0.00000  Uiso   1.00
H901   H     0.66999   0.53363   0.58131   0.00000  Uiso   1.00
H902   H     0.99223   0.56819   0.53908   0.00000  Uiso   1.00
C903   C     0.83411   0.36980   0.40951   0.00000  Uiso   1.00
O904   O     0.87307   0.39048   0.40411   0.00000  Uiso   1.00
O905   O     0.79774   0.35958   0.37085   0.00000  Uiso   1.00
H906   H     0.80805   0.37106   0.34064   0.00000  Uiso   1.00
C907   C     0.83249   0.63019   0.59048   0.00000  Uiso   1.00
O908   O     0.79354   0.60950   0.59587   0.00000  Uiso   1.00
O909   O     0.86884   0.64042   0.62915   0.00000  Uiso   1.00
H910   H     0.85853   0.62893   0.65936   0.00000  Uiso   1.00
N911   N     0.78915   0.62347   0.41709   0.00000  Uiso   1.00
H912   H     0.75956   0.60365   0.42612   0.00000  Uiso   1.00
H913   H     0.81488   0.60752   0.39963   0.00000  Uiso   1.00
N914   N     0.87749   0.37651   0.58291   0.00000  Uiso   1.00
H915   H     0.90719   0.39622   0.57388   0.00000  Uiso   1.00
H916   H     0.85182   0.39257   0.60033   0.00000  Uiso   1.00
N917   N     0.75631   0.45580   0.37441   0.00000  Uiso   1.00
H918   H     0.72127   0.46824   0.36267   0.00000  Uiso   1.00
H919   H     0.75445   0.42537   0.36257   0.00000  Uiso   1.00
N920   N     0.91033   0.54421   0.62559   0.00000  Uiso   1.00
H921   H     0.94538   0.53180   0.63733   0.00000  Uiso   1.00
H922   H     0.91217   0.57464   0.63741   0.00000  Uiso   1.00
C923   C     0.75388   0.45390   0.60895   0.00000  Uiso   1.00
O924   O     0.71062   0.46666   0.60413   0.00000  Uiso   1.00
O925   O     0.76207   0.41493   0.59158   0.00000  Uiso   1.00
H926   H     0.72992   0.40124   0.57352   0.00000  Uiso   1.00
C927   C     0.91280   0.54609   0.39104   0.00000  Uiso   1.00
O928   O     0.95607   0.53334   0.39583   0.00000  Uiso   1.00
O929   O     0.90462   0.58505   0.40844   0.00000  Uiso   1.00
H930   H     0.93679   0.59874   0.42644   0.00000  Uiso   1.00
C931   C     0.17047   0.75426   0.49980   0.00000  Uiso   1.00
C932   C     0.16285   0.91241   0.50020   0.00000  Uiso   1.00
C933   C     0.06819   0.83168   0.48849   0.00000  Uiso   1.00
C934   C     0.26515   0.83499   0.51151   0.00000  Uiso   1.00
C935   C     0.01332   0.82417   0.48446   0.00000  Uiso   1.00
C936   C     0.32002   0.84250   0.51554   0.00000  Uiso   1.00
C937   C     0.16121   0.68620   0.45643   0.00000  Uiso   1.00
C938   C     0.17207   0.98046   0.54358   0.00000  Uiso   1.00
C939   C     0.14882   0.97761   0.45838   0.00000  Uiso   1.00
C940   C     0.18447   0.68905   0.54162   0.00000  Uiso   1.00
C941   C     0.15904   0.95726   0.50116   0.00000  Uiso   1.00
C942   C     0.17425   0.70940   0.49885   0.00000  Uiso   1.00
C943   C     0.12929   0.81149   0.35395   0.00000  Uiso   1.00
C944   C     0.20404   0.85517   0.64605   0.00000  Uiso   1.00
C945   C     0.12920   0.81130   0.63766   0.00000  Uiso   1.00
C946   C     0.20413   0.85537   0.36234   0.00000  Uiso   1.00
Cu947  Cu    0.16667   0.83334   0.54689   0.00000  Uiso   1.00
Cu948  Cu    0.16667   0.83333   0.45311   0.00000  Uiso   1.00
N949   N     0.16668   0.83334   0.61736   0.00000  Uiso   1.00
N950   N     0.16665   0.83332   0.38264   0.00000  Uiso   1.00
O951   O     0.16666   0.77322   0.53958   0.00000  Uiso   1.00
O952   O     0.16667   0.89345   0.46042   0.00000  Uiso   1.00
O953   O     0.16666   0.77321   0.46039   0.00000  Uiso   1.00
O954   O     0.16667   0.89346   0.53961   0.00000  Uiso   1.00
O955   O     0.09161   0.83334   0.53046   0.00000  Uiso   1.00
O956   O     0.24172   0.83333   0.46954   0.00000  Uiso   1.00
O957   O     0.09161   0.83333   0.45127   0.00000  Uiso   1.00
O958   O     0.24172   0.83334   0.54873   0.00000  Uiso   1.00
N959   N     0.32303   0.79231   0.45255   0.00000  Uiso   1.00
H960   H     0.33001   0.79969   0.41869   0.00000  Uiso   1.00
H961   H     0.00777   0.76515   0.46094   0.00000  Uiso   1.00
N962   N     0.01030   0.87436   0.54746   0.00000  Uiso   1.00
H963   H     0.00332   0.86697   0.58131   0.00000  Uiso   1.00
H964   H     0.32557   0.90152   0.53908   0.00000  Uiso   1.00
C965   C     0.16744   0.70313   0.40951   0.00000  Uiso   1.00
O966   O     0.20640   0.72381   0.40411   0.00000  Uiso   1.00
O967   O     0.13107   0.69291   0.37085   0.00000  Uiso   1.00
H968   H     0.14138   0.70439   0.34064   0.00000  Uiso   1.00
C969   C     0.16582   0.96353   0.59048   0.00000  Uiso   1.00
O970   O     0.12687   0.94284   0.59587   0.00000  Uiso   1.00
O971   O     0.20217   0.97375   0.62915   0.00000  Uiso   1.00
H972   H     0.19186   0.96226   0.65936   0.00000  Uiso   1.00
N973   N     0.12249   0.95681   0.41709   0.00000  Uiso   1.00
H974   H     0.09289   0.93698   0.42612   0.00000  Uiso   1.00
H975   H     0.14822   0.94085   0.39963   0.00000  Uiso   1.00
N976   N     0.21082   0.70984   0.58291   0.00000  Uiso   1.00
H977   H     0.24052   0.72955   0.57388   0.00000  Uiso   1.00
H978   H     0.18515   0.72590   0.60033   0.00000  Uiso   1.00
N979   N     0.08965   0.78914   0.37441   0.00000  Uiso   1.00
H980   H     0.05461   0.80157   0.36267   0.00000  Uiso   1.00
H981   H     0.08778   0.75871   0.36257   0.00000  Uiso   1.00
N982   N     0.24367   0.87755   0.62559   0.00000  Uiso   1.00
H983   H     0.27872   0.86514   0.63733   0.00000  Uiso   1.00
H984   H     0.24550   0.90797   0.63741   0.00000  Uiso   1.00
C985   C     0.08721   0.78723   0.60895   0.00000  Uiso   1.00
O986   O     0.04395   0.79999   0.60413   0.00000  Uiso   1.00
O987   O     0.09540   0.74826   0.59158   0.00000  Uiso   1.00
H988   H     0.06325   0.73458   0.57352   0.00000  Uiso   1.00
C989   C     0.24613   0.87943   0.39104   0.00000  Uiso   1.00
O990   O     0.28940   0.86667   0.39583   0.00000  Uiso   1.00
O991   O     0.23795   0.91838   0.40844   0.00000  Uiso   1.00
H992   H     0.27013   0.93208   0.42644   0.00000  Uiso   1.00
C993   C     0.50381   0.75426   0.49980   0.00000  Uiso   1.00
C994   C     0.49618   0.91241   0.50020   0.00000  Uiso   1.00
C995   C     0.40152   0.83168   0.48849   0.00000  Uiso   1.00
C996   C     0.59848   0.83499   0.51151   0.00000  Uiso   1.00
C997   C     0.34665   0.82417   0.48446   0.00000  Uiso   1.00
C998   C     0.65335   0.84250   0.51554   0.00000  Uiso   1.00
C999   C     0.49454   0.68620   0.45643   0.00000  Uiso   1.00
C1000  C     0.50540   0.98046   0.54358   0.00000  Uiso   1.00
C1001  C     0.48215   0.97761   0.45838   0.00000  Uiso   1.00
C1002  C     0.51780   0.68905   0.54162   0.00000  Uiso   1.00
C1003  C     0.49237   0.95726   0.50116   0.00000  Uiso   1.00
C1004  C     0.50759   0.70940   0.49885   0.00000  Uiso   1.00
C1005  C     0.46262   0.81149   0.35395   0.00000  Uiso   1.00
C1006  C     0.53737   0.85517   0.64605   0.00000  Uiso   1.00
C1007  C     0.46254   0.81130   0.63766   0.00000  Uiso   1.00
C1008  C     0.53747   0.85537   0.36234   0.00000  Uiso   1.00
Cu1009 Cu    0.50000   0.83334   0.54689   0.00000  Uiso   1.00
Cu1010 Cu    0.50000   0.83333   0.45311   0.00000  Uiso   1.00
N1011  N     0.50001   0.83334   0.61736   0.00000  Uiso   1.00
N1012  N     0.49999   0.83332   0.38264   0.00000  Uiso   1.00
O1013  O     0.50000   0.77322   0.53958   0.00000  Uiso   1.00
O1014  O     0.50000   0.89345   0.46042   0.00000  Uiso   1.00
O1015  O     0.50000   0.77321   0.46039   0.00000  Uiso   1.00
O1016  O     0.50000   0.89346   0.53961   0.00000  Uiso   1.00
O1017  O     0.42495   0.83334   0.53046   0.00000  Uiso   1.00
O1018  O     0.57505   0.83333   0.46954   0.00000  Uiso   1.00
O1019  O     0.42494   0.83333   0.45127   0.00000  Uiso   1.00
O1020  O     0.57506   0.83334   0.54873   0.00000  Uiso   1.00
N1021  N     0.65636   0.79231   0.45255   0.00000  Uiso   1.00
H1022  H     0.66334   0.79969   0.41869   0.00000  Uiso   1.00
H1023  H     0.34110   0.76515   0.46094   0.00000  Uiso   1.00
N1024  N     0.34364   0.87436   0.54746   0.00000  Uiso   1.00
H1025  H     0.33665   0.86697   0.58131   0.00000  Uiso   1.00
H1026  H     0.65890   0.90152   0.53908   0.00000  Uiso   1.00
C1027  C     0.50078   0.70313   0.40951   0.00000  Uiso   1.00
O1028  O     0.53973   0.72381   0.40411   0.00000  Uiso   1.00
O1029  O     0.46441   0.69291   0.37085   0.00000  Uiso   1.00
H1030  H     0.47472   0.70439   0.34064   0.00000  Uiso   1.00
C1031  C     0.49915   0.96353   0.59048   0.00000  Uiso   1.00
O1032  O     0.46020   0.94284   0.59587   0.00000  Uiso   1.00
O1033  O     0.53550   0.97375   0.62915   0.00000  Uiso   1.00
H1034  H     0.52519   0.96226   0.65936   0.00000  Uiso   1.00
N1035  N     0.45582   0.95681   0.41709   0.00000  Uiso   1.00
H1036  H     0.42623   0.93698   0.42612   0.00000  Uiso   1.00
H1037  H     0.48155   0.94085   0.39963   0.00000  Uiso   1.00
N1038  N     0.54415   0.70984   0.58291   0.00000  Uiso   1.00
H1039  H     0.57386   0.72955   0.57388   0.00000  Uiso   1.00
H1040  H     0.51848   0.72590   0.60033   0.00000  Uiso   1.00
N1041  N     0.42298   0.78914   0.37441   0.00000  Uiso   1.00
H1042  H     0.38794   0.80157   0.36267   0.00000  Uiso   1.00
H1043  H     0.42112   0.75871   0.36257   0.00000  Uiso   1.00
N1044  N     0.57700   0.87755   0.62559   0.00000  Uiso   1.00
H1045  H     0.61205   0.86514   0.63733   0.00000  Uiso   1.00
H1046  H     0.57883   0.90797   0.63741   0.00000  Uiso   1.00
C1047  C     0.42054   0.78723   0.60895   0.00000  Uiso   1.00
O1048  O     0.37729   0.79999   0.60413   0.00000  Uiso   1.00
O1049  O     0.42874   0.74826   0.59158   0.00000  Uiso   1.00
H1050  H     0.39658   0.73458   0.57352   0.00000  Uiso   1.00
C1051  C     0.57947   0.87943   0.39104   0.00000  Uiso   1.00
O1052  O     0.62273   0.86667   0.39583   0.00000  Uiso   1.00
O1053  O     0.57128   0.91838   0.40844   0.00000  Uiso   1.00
H1054  H     0.60346   0.93208   0.42644   0.00000  Uiso   1.00
C1055  C     0.83714   0.75426   0.49980   0.00000  Uiso   1.00
C1056  C     0.82952   0.91241   0.50020   0.00000  Uiso   1.00
C1057  C     0.73485   0.83168   0.48849   0.00000  Uiso   1.00
C1058  C     0.93181   0.83499   0.51151   0.00000  Uiso   1.00
C1059  C     0.67998   0.82417   0.48446   0.00000  Uiso   1.00
C1060  C     0.98668   0.84250   0.51554   0.00000  Uiso   1.00
C1061  C     0.82787   0.68620   0.45643   0.00000  Uiso   1.00
C1062  C     0.83874   0.98046   0.54358   0.00000  Uiso   1.00
C1063  C     0.81548   0.97761   0.45838   0.00000  Uiso   1.00
C1064  C     0.85113   0.68905   0.54162   0.00000  Uiso   1.00
C1065  C     0.82570   0.95726   0.50116   0.00000  Uiso   1.00
C1066  C     0.84092   0.70940   0.49885   0.00000  Uiso   1.00
C1067  C     0.79596   0.81149   0.35395   0.00000  Uiso   1.00
C1068  C     0.87071   0.85517   0.64605   0.00000  Uiso   1.00
C1069  C     0.79587   0.81130   0.63766   0.00000  Uiso   1.00
C1070  C     0.87080   0.85537   0.36234   0.00000  Uiso   1.00
Cu1071 Cu    0.83333   0.83334   0.54689   0.00000  Uiso   1.00
Cu1072 Cu    0.83333   0.83333   0.45311   0.00000  Uiso   1.00
N1073  N     0.83335   0.83334   0.61736   0.00000  Uiso   1.00
N1074  N     0.83332   0.83332   0.38264   0.00000  Uiso   1.00
O1075  O     0.83333   0.77322   0.53958   0.00000  Uiso   1.00
O1076  O     0.83334   0.89345   0.46042   0.00000  Uiso   1.00
O1077  O     0.83333   0.77321   0.46039   0.00000  Uiso   1.00
O1078  O     0.83334   0.89346   0.53961   0.00000  Uiso   1.00
O1079  O     0.75828   0.83334   0.53046   0.00000  Uiso   1.00
O1080  O     0.90839   0.83333   0.46954   0.00000  Uiso   1.00
O1081  O     0.75828   0.83333   0.45127   0.00000  Uiso   1.00
O1082  O     0.90839   0.83334   0.54873   0.00000  Uiso   1.00
N1083  N     0.98970   0.79231   0.45255   0.00000  Uiso   1.00
H1084  H     0.99668   0.79969   0.41869   0.00000  Uiso   1.00
H1085  H     0.67443   0.76515   0.46094   0.00000  Uiso   1.00
N1086  N     0.67697   0.87436   0.54746   0.00000  Uiso   1.00
H1087  H     0.66999   0.86697   0.58131   0.00000  Uiso   1.00
H1088  H     0.99223   0.90152   0.53908   0.00000  Uiso   1.00
C1089  C     0.83411   0.70313   0.40951   0.00000  Uiso   1.00
O1090  O     0.87307   0.72381   0.40411   0.00000  Uiso   1.00
O1091  O     0.79774   0.69291   0.37085   0.00000  Uiso   1.00
H1092  H     0.80805   0.70439   0.34064   0.00000  Uiso   1.00
C1093  C     0.83249   0.96353   0.59048   0.00000  Uiso   1.00
O1094  O     0.79354   0.94284   0.59587   0.00000  Uiso   1.00
O1095  O     0.86884   0.97375   0.62915   0.00000  Uiso   1.00
H1096  H     0.85853   0.96226   0.65936   0.00000  Uiso   1.00
N1097  N     0.78915   0.95681   0.41709   0.00000  Uiso   1.00
H1098  H     0.75956   0.93698   0.42612   0.00000  Uiso   1.00
H1099  H     0.81488   0.94085   0.39963   0.00000  Uiso   1.00
N1100  N     0.87749   0.70984   0.58291   0.00000  Uiso   1.00
H1101  H     0.90719   0.72955   0.57388   0.00000  Uiso   1.00
H1102  H     0.85182   0.72590   0.60033   0.00000  Uiso   1.00
N1103  N     0.75631   0.78914   0.37441   0.00000  Uiso   1.00
H1104  H     0.72127   0.80157   0.36267   0.00000  Uiso   1.00
H1105  H     0.75445   0.75871   0.36257   0.00000  Uiso   1.00
N1106  N     0.91033   0.87755   0.62559   0.00000  Uiso   1.00
H1107  H     0.94538   0.86514   0.63733   0.00000  Uiso   1.00
H1108  H     0.91217   0.90797   0.63741   0.00000  Uiso   1.00
C1109  C     0.75388   0.78723   0.60895   0.00000  Uiso   1.00
O1110  O     0.71062   0.79999   0.60413   0.00000  Uiso   1.00
O1111  O     0.76207   0.74826   0.59158   0.00000  Uiso   1.00
H1112  H     0.72992   0.73458   0.57352   0.00000  Uiso   1.00
C1113  C     0.91280   0.87943   0.39104   0.00000  Uiso   1.00
O1114  O     0.95607   0.86667   0.39583   0.00000  Uiso   1.00
O1115  O     0.90462   0.91838   0.40844   0.00000  Uiso   1.00
H1116  H     0.93679   0.93208   0.42644   0.00000  Uiso   1.00
C1117  C     0.17047   0.08759   0.83313   0.00000  Uiso   1.00
C1118  C     0.16285   0.24574   0.83353   0.00000  Uiso   1.00
C1119  C     0.06819   0.16501   0.82182   0.00000  Uiso   1.00
C1120  C     0.26515   0.16833   0.84484   0.00000  Uiso   1.00
C1121  C     0.01332   0.15750   0.81779   0.00000  Uiso   1.00
C1122  C     0.32002   0.17584   0.84887   0.00000  Uiso   1.00
C1123  C     0.16121   0.01953   0.78976   0.00000  Uiso   1.00
C1124  C     0.17207   0.31379   0.87691   0.00000  Uiso   1.00
C1125  C     0.14882   0.31094   0.79171   0.00000  Uiso   1.00
C1126  C     0.18447   0.02238   0.87496   0.00000  Uiso   1.00
C1127  C     0.15904   0.29059   0.83449   0.00000  Uiso   1.00
C1128  C     0.17425   0.04274   0.83218   0.00000  Uiso   1.00
C1129  C     0.12929   0.14483   0.68729   0.00000  Uiso   1.00
C1130  C     0.20404   0.18851   0.97938   0.00000  Uiso   1.00
C1131  C     0.12920   0.14463   0.97100   0.00000  Uiso   1.00
C1132  C     0.20413   0.18870   0.69567   0.00000  Uiso   1.00
Cu1133 Cu    0.16667   0.16667   0.88022   0.00000  Uiso   1.00
Cu1134 Cu    0.16667   0.16666   0.78645   0.00000  Uiso   1.00
N1135  N     0.16668   0.16668   0.95069   0.00000  Uiso   1.00
N1136  N     0.16665   0.16666   0.71597   0.00000  Uiso   1.00
O1137  O     0.16666   0.10655   0.87291   0.00000  Uiso   1.00
O1138  O     0.16667   0.22678   0.79375   0.00000  Uiso   1.00
O1139  O     0.16666   0.10654   0.79372   0.00000  Uiso   1.00
O1140  O     0.16667   0.22679   0.87294   0.00000  Uiso   1.00
O1141  O     0.09161   0.16667   0.86379   0.00000  Uiso   1.00
O1142  O     0.24172   0.16666   0.80288   0.00000  Uiso   1.00
O1143  O     0.09161   0.16666   0.78460   0.00000  Uiso   1.00
O1144  O     0.24172   0.16667   0.88207   0.00000  Uiso   1.00
N1145  N     0.32303   0.12564   0.78589   0.00000  Uiso   1.00
H1146  H     0.33001   0.13302   0.75202   0.00000  Uiso   1.00
H1147  H     0.00777   0.09848   0.79427   0.00000  Uiso   1.00
N1148  N     0.01030   0.20769   0.88079   0.00000  Uiso   1.00
H1149  H     0.00332   0.20030   0.91465   0.00000  Uiso   1.00
H1150  H     0.32557   0.23485   0.87241   0.00000  Uiso   1.00
C1151  C     0.16744   0.03646   0.74285   0.00000  Uiso   1.00
O1152  O     0.20640   0.05714   0.73744   0.00000  Uiso   1.00
O1153  O     0.13107   0.02624   0.70419   0.00000  Uiso   1.00
H1154  H     0.14138   0.03772   0.67397   0.00000  Uiso   1.00
C1155  C     0.16582   0.29686   0.92381   0.00000  Uiso   1.00
O1156  O     0.12687   0.27617   0.92920   0.00000  Uiso   1.00
O1157  O     0.20217   0.30708   0.96248   0.00000  Uiso   1.00
H1158  H     0.19186   0.29559   0.99269   0.00000  Uiso   1.00
N1159  N     0.12249   0.29014   0.75042   0.00000  Uiso   1.00
H1160  H     0.09289   0.27031   0.75945   0.00000  Uiso   1.00
H1161  H     0.14822   0.27418   0.73296   0.00000  Uiso   1.00
N1162  N     0.21082   0.04317   0.91624   0.00000  Uiso   1.00
H1163  H     0.24052   0.06289   0.90722   0.00000  Uiso   1.00
H1164  H     0.18515   0.05924   0.93366   0.00000  Uiso   1.00
N1165  N     0.08965   0.12247   0.70774   0.00000  Uiso   1.00
H1166  H     0.05461   0.13490   0.69600   0.00000  Uiso   1.00
H1167  H     0.08778   0.09204   0.69590   0.00000  Uiso   1.00
N1168  N     0.24367   0.21088   0.95892   0.00000  Uiso   1.00
H1169  H     0.27872   0.19847   0.97066   0.00000  Uiso   1.00
H1170  H     0.24550   0.24131   0.97075   0.00000  Uiso   1.00
C1171  C     0.08721   0.12056   0.94229   0.00000  Uiso   1.00
O1172  O     0.04395   0.13333   0.93746   0.00000  Uiso   1.00
O1173  O     0.09540   0.08160   0.92491   0.00000  Uiso   1.00
H1174  H     0.06325   0.06791   0.90686   0.00000  Uiso   1.00
C1175  C     0.24613   0.21276   0.72438   0.00000  Uiso   1.00
O1176  O     0.28940   0.20001   0.72916   0.00000  Uiso   1.00
O1177  O     0.23795   0.25171   0.74177   0.00000  Uiso   1.00
H1178  H     0.27013   0.26541   0.75978   0.00000  Uiso   1.00
C1179  C     0.50381   0.08759   0.83313   0.00000  Uiso   1.00
C1180  C     0.49618   0.24574   0.83353   0.00000  Uiso   1.00
C1181  C     0.40152   0.16501   0.82182   0.00000  Uiso   1.00
C1182  C     0.59848   0.16833   0.84484   0.00000  Uiso   1.00
C1183  C     0.34665   0.15750   0.81779   0.00000  Uiso   1.00
C1184  C     0.65335   0.17584   0.84887   0.00000  Uiso   1.00
C1185  C     0.49454   0.01953   0.78976   0.00000  Uiso   1.00
C1186  C     0.50540   0.31379   0.87691   0.00000  Uiso   1.00
C1187  C     0.48215   0.31094   0.79171   0.00000  Uiso   1.00
C1188  C     0.51780   0.02238   0.87496   0.00000  Uiso   1.00
C1189  C     0.49237   0.29059   0.83449   0.00000  Uiso   1.00
C1190  C     0.50759   0.04274   0.83218   0.00000  Uiso   1.00
C1191  C     0.46262   0.14483   0.68729   0.00000  Uiso   1.00
C1192  C     0.53737   0.18851   0.97938   0.00000  Uiso   1.00
C1193  C     0.46254   0.14463   0.97100   0.00000  Uiso   1.00
C1194  C     0.53747   0.18870   0.69567   0.00000  Uiso   1.00
Cu1195 Cu    0.50000   0.16667   0.88022   0.00000  Uiso   1.00
Cu1196 Cu    0.50000   0.16666   0.78645   0.00000  Uiso   1.00
N1197  N     0.50001   0.16668   0.95069   0.00000  Uiso   1.00
N1198  N     0.49999   0.16666   0.71597   0.00000  Uiso   1.00
O1199  O     0.50000   0.10655   0.87291   0.00000  Uiso   1.00
O1200  O     0.50000   0.22678   0.79375   0.00000  Uiso   1.00
O1201  O     0.50000   0.10654   0.79372   0.00000  Uiso   1.00
O1202  O     0.50000   0.22679   0.87294   0.00000  Uiso   1.00
O1203  O     0.42495   0.16667   0.86379   0.00000  Uiso   1.00
O1204  O     0.57505   0.16666   0.80288   0.00000  Uiso   1.00
O1205  O     0.42494   0.16666   0.78460   0.00000  Uiso   1.00
O1206  O     0.57506   0.16667   0.88207   0.00000  Uiso   1.00
N1207  N     0.65636   0.12564   0.78589   0.00000  Uiso   1.00
H1208  H     0.66334   0.13302   0.75202   0.00000  Uiso   1.00
H1209  H     0.34110   0.09848   0.79427   0.00000  Uiso   1.00
N1210  N     0.34364   0.20769   0.88079   0.00000  Uiso   1.00
H1211  H     0.33665   0.20030   0.91465   0.00000  Uiso   1.00
H1212  H     0.65890   0.23485   0.87241   0.00000  Uiso   1.00
C1213  C     0.50078   0.03646   0.74285   0.00000  Uiso   1.00
O1214  O     0.53973   0.05714   0.73744   0.00000  Uiso   1.00
O1215  O     0.46441   0.02624   0.70419   0.00000  Uiso   1.00
H1216  H     0.47472   0.03772   0.67397   0.00000  Uiso   1.00
C1217  C     0.49915   0.29686   0.92381   0.00000  Uiso   1.00
O1218  O     0.46020   0.27617   0.92920   0.00000  Uiso   1.00
O1219  O     0.53550   0.30708   0.96248   0.00000  Uiso   1.00
H1220  H     0.52519   0.29559   0.99269   0.00000  Uiso   1.00
N1221  N     0.45582   0.29014   0.75042   0.00000  Uiso   1.00
H1222  H     0.42623   0.27031   0.75945   0.00000  Uiso   1.00
H1223  H     0.48155   0.27418   0.73296   0.00000  Uiso   1.00
N1224  N     0.54415   0.04317   0.91624   0.00000  Uiso   1.00
H1225  H     0.57386   0.06289   0.90722   0.00000  Uiso   1.00
H1226  H     0.51848   0.05924   0.93366   0.00000  Uiso   1.00
N1227  N     0.42298   0.12247   0.70774   0.00000  Uiso   1.00
H1228  H     0.38794   0.13490   0.69600   0.00000  Uiso   1.00
H1229  H     0.42112   0.09204   0.69590   0.00000  Uiso   1.00
N1230  N     0.57700   0.21088   0.95892   0.00000  Uiso   1.00
H1231  H     0.61205   0.19847   0.97066   0.00000  Uiso   1.00
H1232  H     0.57883   0.24131   0.97075   0.00000  Uiso   1.00
C1233  C     0.42054   0.12056   0.94229   0.00000  Uiso   1.00
O1234  O     0.37729   0.13333   0.93746   0.00000  Uiso   1.00
O1235  O     0.42874   0.08160   0.92491   0.00000  Uiso   1.00
H1236  H     0.39658   0.06791   0.90686   0.00000  Uiso   1.00
C1237  C     0.57947   0.21276   0.72438   0.00000  Uiso   1.00
O1238  O     0.62273   0.20001   0.72916   0.00000  Uiso   1.00
O1239  O     0.57128   0.25171   0.74177   0.00000  Uiso   1.00
H1240  H     0.60346   0.26541   0.75978   0.00000  Uiso   1.00
C1241  C     0.83714   0.08759   0.83313   0.00000  Uiso   1.00
C1242  C     0.82952   0.24574   0.83353   0.00000  Uiso   1.00
C1243  C     0.73485   0.16501   0.82182   0.00000  Uiso   1.00
C1244  C     0.93181   0.16833   0.84484   0.00000  Uiso   1.00
C1245  C     0.67998   0.15750   0.81779   0.00000  Uiso   1.00
C1246  C     0.98668   0.17584   0.84887   0.00000  Uiso   1.00
C1247  C     0.82787   0.01953   0.78976   0.00000  Uiso   1.00
C1248  C     0.83874   0.31379   0.87691   0.00000  Uiso   1.00
C1249  C     0.81548   0.31094   0.79171   0.00000  Uiso   1.00
C1250  C     0.85113   0.02238   0.87496   0.00000  Uiso   1.00
C1251  C     0.82570   0.29059   0.83449   0.00000  Uiso   1.00
C1252  C     0.84092   0.04274   0.83218   0.00000  Uiso   1.00
C1253  C     0.79596   0.14483   0.68729   0.00000  Uiso   1.00
C1254  C     0.87071   0.18851   0.97938   0.00000  Uiso   1.00
C1255  C     0.79587   0.14463   0.97100   0.00000  Uiso   1.00
C1256  C     0.87080   0.18870   0.69567   0.00000  Uiso   1.00
Cu1257 Cu    0.83333   0.16667   0.88022   0.00000  Uiso   1.00
Cu1258 Cu    0.83333   0.16666   0.78645   0.00000  Uiso   1.00
N1259  N     0.83335   0.16668   0.95069   0.00000  Uiso   1.00
N1260  N     0.83332   0.16666   0.71597   0.00000  Uiso   1.00
O1261  O     0.83333   0.10655   0.87291   0.00000  Uiso   1.00
O1262  O     0.83334   0.22678   0.79375   0.00000  Uiso   1.00
O1263  O     0.83333   0.10654   0.79372   0.00000  Uiso   1.00
O1264  O     0.83334   0.22679   0.87294   0.00000  Uiso   1.00
O1265  O     0.75828   0.16667   0.86379   0.00000  Uiso   1.00
O1266  O     0.90839   0.16666   0.80288   0.00000  Uiso   1.00
O1267  O     0.75828   0.16666   0.78460   0.00000  Uiso   1.00
O1268  O     0.90839   0.16667   0.88207   0.00000  Uiso   1.00
N1269  N     0.98970   0.12564   0.78589   0.00000  Uiso   1.00
H1270  H     0.99668   0.13302   0.75202   0.00000  Uiso   1.00
H1271  H     0.67443   0.09848   0.79427   0.00000  Uiso   1.00
N1272  N     0.67697   0.20769   0.88079   0.00000  Uiso   1.00
H1273  H     0.66999   0.20030   0.91465   0.00000  Uiso   1.00
H1274  H     0.99223   0.23485   0.87241   0.00000  Uiso   1.00
C1275  C     0.83411   0.03646   0.74285   0.00000  Uiso   1.00
O1276  O     0.87307   0.05714   0.73744   0.00000  Uiso   1.00
O1277  O     0.79774   0.02624   0.70419   0.00000  Uiso   1.00
H1278  H     0.80805   0.03772   0.67397   0.00000  Uiso   1.00
C1279  C     0.83249   0.29686   0.92381   0.00000  Uiso   1.00
O1280  O     0.79354   0.27617   0.92920   0.00000  Uiso   1.00
O1281  O     0.86884   0.30708   0.96248   0.00000  Uiso   1.00
H1282  H     0.85853   0.29559   0.99269   0.00000  Uiso   1.00
N1283  N     0.78915   0.29014   0.75042   0.00000  Uiso   1.00
H1284  H     0.75956   0.27031   0.75945   0.00000  Uiso   1.00
H1285  H     0.81488   0.27418   0.73296   0.00000  Uiso   1.00
N1286  N     0.87749   0.04317   0.91624   0.00000  Uiso   1.00
H1287  H     0.90719   0.06289   0.90722   0.00000  Uiso   1.00
H1288  H     0.85182   0.05924   0.93366   0.00000  Uiso   1.00
N1289  N     0.75631   0.12247   0.70774   0.00000  Uiso   1.00
H1290  H     0.72127   0.13490   0.69600   0.00000  Uiso   1.00
H1291  H     0.75445   0.09204   0.69590   0.00000  Uiso   1.00
N1292  N     0.91033   0.21088   0.95892   0.00000  Uiso   1.00
H1293  H     0.94538   0.19847   0.97066   0.00000  Uiso   1.00
H1294  H     0.91217   0.24131   0.97075   0.00000  Uiso   1.00
C1295  C     0.75388   0.12056   0.94229   0.00000  Uiso   1.00
O1296  O     0.71062   0.13333   0.93746   0.00000  Uiso   1.00
O1297  O     0.76207   0.08160   0.92491   0.00000  Uiso   1.00
H1298  H     0.72992   0.06791   0.90686   0.00000  Uiso   1.00
C1299  C     0.91280   0.21276   0.72438   0.00000  Uiso   1.00
O1300  O     0.95607   0.20001   0.72916   0.00000  Uiso   1.00
O1301  O     0.90462   0.25171   0.74177   0.00000  Uiso   1.00
H1302  H     0.93679   0.26541   0.75978   0.00000  Uiso   1.00
C1303  C     0.17047   0.42092   0.83313   0.00000  Uiso   1.00
C1304  C     0.16285   0.57907   0.83353   0.00000  Uiso   1.00
C1305  C     0.06819   0.49834   0.82182   0.00000  Uiso   1.00
C1306  C     0.26515   0.50166   0.84484   0.00000  Uiso   1.00
C1307  C     0.01332   0.49084   0.81779   0.00000  Uiso   1.00
C1308  C     0.32002   0.50917   0.84887   0.00000  Uiso   1.00
C1309  C     0.16121   0.35287   0.78976   0.00000  Uiso   1.00
C1310  C     0.17207   0.64713   0.87691   0.00000  Uiso   1.00
C1311  C     0.14882   0.64428   0.79171   0.00000  Uiso   1.00
C1312  C     0.18447   0.35571   0.87496   0.00000  Uiso   1.00
C1313  C     0.15904   0.62392   0.83449   0.00000  Uiso   1.00
C1314  C     0.17425   0.37607   0.83218   0.00000  Uiso   1.00
C1315  C     0.12929   0.47816   0.68729   0.00000  Uiso   1.00
C1316  C     0.20404   0.52184   0.97938   0.00000  Uiso   1.00
C1317  C     0.12920   0.47796   0.97100   0.00000  Uiso   1.00
C1318  C     0.20413   0.52203   0.69567   0.00000  Uiso   1.00
Cu1319 Cu    0.16667   0.50001   0.88022   0.00000  Uiso   1.00
Cu1320 Cu    0.16667   0.49999   0.78645   0.00000  Uiso   1.00
N1321  N     0.16668   0.50001   0.95069   0.00000  Uiso   1.00
N1322  N     0.16665   0.49999   0.71597   0.00000  Uiso   1.00
O1323  O     0.16666   0.43989   0.87291   0.00000  Uiso   1.00
O1324  O     0.16667   0.56011   0.79375   0.00000  Uiso   1.00
O1325  O     0.16666   0.43988   0.79372   0.00000  Uiso   1.00
O1326  O     0.16667   0.56012   0.87294   0.00000  Uiso   1.00
O1327  O     0.09161   0.50000   0.86379   0.00000  Uiso   1.00
O1328  O     0.24172   0.50000   0.80288   0.00000  Uiso   1.00
O1329  O     0.09161   0.49999   0.78460   0.00000  Uiso   1.00
O1330  O     0.24172   0.50001   0.88207   0.00000  Uiso   1.00
N1331  N     0.32303   0.45897   0.78589   0.00000  Uiso   1.00
H1332  H     0.33001   0.46636   0.75202   0.00000  Uiso   1.00
H1333  H     0.00777   0.43182   0.79427   0.00000  Uiso   1.00
N1334  N     0.01030   0.54103   0.88079   0.00000  Uiso   1.00
H1335  H     0.00332   0.53363   0.91465   0.00000  Uiso   1.00
H1336  H     0.32557   0.56819   0.87241   0.00000  Uiso   1.00
C1337  C     0.16744   0.36980   0.74285   0.00000  Uiso   1.00
O1338  O     0.20640   0.39048   0.73744   0.00000  Uiso   1.00
O1339  O     0.13107   0.35958   0.70419   0.00000  Uiso   1.00
H1340  H     0.14138   0.37106   0.67397   0.00000  Uiso   1.00
C1341  C     0.16582   0.63019   0.92381   0.00000  Uiso   1.00
O1342  O     0.12687   0.60950   0.92920   0.00000  Uiso   1.00
O1343  O     0.20217   0.64042   0.96248   0.00000  Uiso   1.00
H1344  H     0.19186   0.62893   0.99269   0.00000  Uiso   1.00
N1345  N     0.12249   0.62347   0.75042   0.00000  Uiso   1.00
H1346  H     0.09289   0.60365   0.75945   0.00000  Uiso   1.00
H1347  H     0.14822   0.60752   0.73296   0.00000  Uiso   1.00
N1348  N     0.21082   0.37651   0.91624   0.00000  Uiso   1.00
H1349  H     0.24052   0.39622   0.90722   0.00000  Uiso   1.00
H1350  H     0.18515   0.39257   0.93366   0.00000  Uiso   1.00
N1351  N     0.08965   0.45580   0.70774   0.00000  Uiso   1.00
H1352  H     0.05461   0.46824   0.69600   0.00000  Uiso   1.00
H1353  H     0.08778   0.42537   0.69590   0.00000  Uiso   1.00
N1354  N     0.24367   0.54421   0.95892   0.00000  Uiso   1.00
H1355  H     0.27872   0.53180   0.97066   0.00000  Uiso   1.00
H1356  H     0.24550   0.57464   0.97075   0.00000  Uiso   1.00
C1357  C     0.08721   0.45390   0.94229   0.00000  Uiso   1.00
O1358  O     0.04395   0.46666   0.93746   0.00000  Uiso   1.00
O1359  O     0.09540   0.41493   0.92491   0.00000  Uiso   1.00
H1360  H     0.06325   0.40124   0.90686   0.00000  Uiso   1.00
C1361  C     0.24613   0.54609   0.72438   0.00000  Uiso   1.00
O1362  O     0.28940   0.53334   0.72916   0.00000  Uiso   1.00
O1363  O     0.23795   0.58505   0.74177   0.00000  Uiso   1.00
H1364  H     0.27013   0.59874   0.75978   0.00000  Uiso   1.00
C1365  C     0.50381   0.42092   0.83313   0.00000  Uiso   1.00
C1366  C     0.49618   0.57907   0.83353   0.00000  Uiso   1.00
C1367  C     0.40152   0.49834   0.82182   0.00000  Uiso   1.00
C1368  C     0.59848   0.50166   0.84484   0.00000  Uiso   1.00
C1369  C     0.34665   0.49084   0.81779   0.00000  Uiso   1.00
C1370  C     0.65335   0.50917   0.84887   0.00000  Uiso   1.00
C1371  C     0.49454   0.35287   0.78976   0.00000  Uiso   1.00
C1372  C     0.50540   0.64713   0.87691   0.00000  Uiso   1.00
C1373  C     0.48215   0.64428   0.79171   0.00000  Uiso   1.00
C1374  C     0.51780   0.35571   0.87496   0.00000  Uiso   1.00
C1375  C     0.49237   0.62392   0.83449   0.00000  Uiso   1.00
C1376  C     0.50759   0.37607   0.83218   0.00000  Uiso   1.00
C1377  C     0.46262   0.47816   0.68729   0.00000  Uiso   1.00
C1378  C     0.53737   0.52184   0.97938   0.00000  Uiso   1.00
C1379  C     0.46254   0.47796   0.97100   0.00000  Uiso   1.00
C1380  C     0.53747   0.52203   0.69567   0.00000  Uiso   1.00
Cu1381 Cu    0.50000   0.50001   0.88022   0.00000  Uiso   1.00
Cu1382 Cu    0.50000   0.49999   0.78645   0.00000  Uiso   1.00
N1383  N     0.50001   0.50001   0.95069   0.00000  Uiso   1.00
N1384  N     0.49999   0.49999   0.71597   0.00000  Uiso   1.00
O1385  O     0.50000   0.43989   0.87291   0.00000  Uiso   1.00
O1386  O     0.50000   0.56011   0.79375   0.00000  Uiso   1.00
O1387  O     0.50000   0.43988   0.79372   0.00000  Uiso   1.00
O1388  O     0.50000   0.56012   0.87294   0.00000  Uiso   1.00
O1389  O     0.42495   0.50000   0.86379   0.00000  Uiso   1.00
O1390  O     0.57505   0.50000   0.80288   0.00000  Uiso   1.00
O1391  O     0.42494   0.49999   0.78460   0.00000  Uiso   1.00
O1392  O     0.57506   0.50001   0.88207   0.00000  Uiso   1.00
N1393  N     0.65636   0.45897   0.78589   0.00000  Uiso   1.00
H1394  H     0.66334   0.46636   0.75202   0.00000  Uiso   1.00
H1395  H     0.34110   0.43182   0.79427   0.00000  Uiso   1.00
N1396  N     0.34364   0.54103   0.88079   0.00000  Uiso   1.00
H1397  H     0.33665   0.53363   0.91465   0.00000  Uiso   1.00
H1398  H     0.65890   0.56819   0.87241   0.00000  Uiso   1.00
C1399  C     0.50078   0.36980   0.74285   0.00000  Uiso   1.00
O1400  O     0.53973   0.39048   0.73744   0.00000  Uiso   1.00
O1401  O     0.46441   0.35958   0.70419   0.00000  Uiso   1.00
H1402  H     0.47472   0.37106   0.67397   0.00000  Uiso   1.00
C1403  C     0.49915   0.63019   0.92381   0.00000  Uiso   1.00
O1404  O     0.46020   0.60950   0.92920   0.00000  Uiso   1.00
O1405  O     0.53550   0.64042   0.96248   0.00000  Uiso   1.00
H1406  H     0.52519   0.62893   0.99269   0.00000  Uiso   1.00
N1407  N     0.45582   0.62347   0.75042   0.00000  Uiso   1.00
H1408  H     0.42623   0.60365   0.75945   0.00000  Uiso   1.00
H1409  H     0.48155   0.60752   0.73296   0.00000  Uiso   1.00
N1410  N     0.54415   0.37651   0.91624   0.00000  Uiso   1.00
H1411  H     0.57386   0.39622   0.90722   0.00000  Uiso   1.00
H1412  H     0.51848   0.39257   0.93366   0.00000  Uiso   1.00
N1413  N     0.42298   0.45580   0.70774   0.00000  Uiso   1.00
H1414  H     0.38794   0.46824   0.69600   0.00000  Uiso   1.00
H1415  H     0.42112   0.42537   0.69590   0.00000  Uiso   1.00
N1416  N     0.57700   0.54421   0.95892   0.00000  Uiso   1.00
H1417  H     0.61205   0.53180   0.97066   0.00000  Uiso   1.00
H1418  H     0.57883   0.57464   0.97075   0.00000  Uiso   1.00
C1419  C     0.42054   0.45390   0.94229   0.00000  Uiso   1.00
O1420  O     0.37729   0.46666   0.93746   0.00000  Uiso   1.00
O1421  O     0.42874   0.41493   0.92491   0.00000  Uiso   1.00
H1422  H     0.39658   0.40124   0.90686   0.00000  Uiso   1.00
C1423  C     0.57947   0.54609   0.72438   0.00000  Uiso   1.00
O1424  O     0.62273   0.53334   0.72916   0.00000  Uiso   1.00
O1425  O     0.57128   0.58505   0.74177   0.00000  Uiso   1.00
H1426  H     0.60346   0.59874   0.75978   0.00000  Uiso   1.00
C1427  C     0.83714   0.42092   0.83313   0.00000  Uiso   1.00
C1428  C     0.82952   0.57907   0.83353   0.00000  Uiso   1.00
C1429  C     0.73485   0.49834   0.82182   0.00000  Uiso   1.00
C1430  C     0.93181   0.50166   0.84484   0.00000  Uiso   1.00
C1431  C     0.67998   0.49084   0.81779   0.00000  Uiso   1.00
C1432  C     0.98668   0.50917   0.84887   0.00000  Uiso   1.00
C1433  C     0.82787   0.35287   0.78976   0.00000  Uiso   1.00
C1434  C     0.83874   0.64713   0.87691   0.00000  Uiso   1.00
C1435  C     0.81548   0.64428   0.79171   0.00000  Uiso   1.00
C1436  C     0.85113   0.35571   0.87496   0.00000  Uiso   1.00
C1437  C     0.82570   0.62392   0.83449   0.00000  Uiso   1.00
C1438  C     0.84092   0.37607   0.83218   0.00000  Uiso   1.00
C1439  C     0.79596   0.47816   0.68729   0.00000  Uiso   1.00
C1440  C     0.87071   0.52184   0.97938   0.00000  Uiso   1.00
C1441  C     0.79587   0.47796   0.97100   0.00000  Uiso   1.00
C1442  C     0.87080   0.52203   0.69567   0.00000  Uiso   1.00
Cu1443 Cu    0.83333   0.50001   0.88022   0.00000  Uiso   1.00
Cu1444 Cu    0.83333   0.49999   0.78645   0.00000  Uiso   1.00
N1445  N     0.83335   0.50001   0.95069   0.00000  Uiso   1.00
N1446  N     0.83332   0.49999   0.71597   0.00000  Uiso   1.00
O1447  O     0.83333   0.43989   0.87291   0.00000  Uiso   1.00
O1448  O     0.83334   0.56011   0.79375   0.00000  Uiso   1.00
O1449  O     0.83333   0.43988   0.79372   0.00000  Uiso   1.00
O1450  O     0.83334   0.56012   0.87294   0.00000  Uiso   1.00
O1451  O     0.75828   0.50000   0.86379   0.00000  Uiso   1.00
O1452  O     0.90839   0.50000   0.80288   0.00000  Uiso   1.00
O1453  O     0.75828   0.49999   0.78460   0.00000  Uiso   1.00
O1454  O     0.90839   0.50001   0.88207   0.00000  Uiso   1.00
N1455  N     0.98970   0.45897   0.78589   0.00000  Uiso   1.00
H1456  H     0.99668   0.46636   0.75202   0.00000  Uiso   1.00
H1457  H     0.67443   0.43182   0.79427   0.00000  Uiso   1.00
N1458  N     0.67697   0.54103   0.88079   0.00000  Uiso   1.00
H1459  H     0.66999   0.53363   0.91465   0.00000  Uiso   1.00
H1460  H     0.99223   0.56819   0.87241   0.00000  Uiso   1.00
C1461  C     0.83411   0.36980   0.74285   0.00000  Uiso   1.00
O1462  O     0.87307   0.39048   0.73744   0.00000  Uiso   1.00
O1463  O     0.79774   0.35958   0.70419   0.00000  Uiso   1.00
H1464  H     0.80805   0.37106   0.67397   0.00000  Uiso   1.00
C1465  C     0.83249   0.63019   0.92381   0.00000  Uiso   1.00
O1466  O     0.79354   0.60950   0.92920   0.00000  Uiso   1.00
O1467  O     0.86884   0.64042   0.96248   0.00000  Uiso   1.00
H1468  H     0.85853   0.62893   0.99269   0.00000  Uiso   1.00
N1469  N     0.78915   0.62347   0.75042   0.00000  Uiso   1.00
H1470  H     0.75956   0.60365   0.75945   0.00000  Uiso   1.00
H1471  H     0.81488   0.60752   0.73296   0.00000  Uiso   1.00
N1472  N     0.87749   0.37651   0.91624   0.00000  Uiso   1.00
H1473  H     0.90719   0.39622   0.90722   0.00000  Uiso   1.00
H1474  H     0.85182   0.39257   0.93366   0.00000  Uiso   1.00
N1475  N     0.75631   0.45580   0.70774   0.00000  Uiso   1.00
H1476  H     0.72127   0.46824   0.69600   0.00000  Uiso   1.00
H1477  H     0.75445   0.42537   0.69590   0.00000  Uiso   1.00
N1478  N     0.91033   0.54421   0.95892   0.00000  Uiso   1.00
H1479  H     0.94538   0.53180   0.97066   0.00000  Uiso   1.00
H1480  H     0.91217   0.57464   0.97075   0.00000  Uiso   1.00
C1481  C     0.75388   0.45390   0.94229   0.00000  Uiso   1.00
O1482  O     0.71062   0.46666   0.93746   0.00000  Uiso   1.00
O1483  O     0.76207   0.41493   0.92491   0.00000  Uiso   1.00
H1484  H     0.72992   0.40124   0.90686   0.00000  Uiso   1.00
C1485  C     0.91280   0.54609   0.72438   0.00000  Uiso   1.00
O1486  O     0.95607   0.53334   0.72916   0.00000  Uiso   1.00
O1487  O     0.90462   0.58505   0.74177   0.00000  Uiso   1.00
H1488  H     0.93679   0.59874   0.75978   0.00000  Uiso   1.00
C1489  C     0.17047   0.75426   0.83313   0.00000  Uiso   1.00
C1490  C     0.16285   0.91241   0.83353   0.00000  Uiso   1.00
C1491  C     0.06819   0.83168   0.82182   0.00000  Uiso   1.00
C1492  C     0.26515   0.83499   0.84484   0.00000  Uiso   1.00
C1493  C     0.01332   0.82417   0.81779   0.00000  Uiso   1.00
C1494  C     0.32002   0.84250   0.84887   0.00000  Uiso   1.00
C1495  C     0.16121   0.68620   0.78976   0.00000  Uiso   1.00
C1496  C     0.17207   0.98046   0.87691   0.00000  Uiso   1.00
C1497  C     0.14882   0.97761   0.79171   0.00000  Uiso   1.00
C1498  C     0.18447   0.68905   0.87496   0.00000  Uiso   1.00
C1499  C     0.15904   0.95726   0.83449   0.00000  Uiso   1.00
C1500  C     0.17425   0.70940   0.83218   0.00000  Uiso   1.00
C1501  C     0.12929   0.81149   0.68729   0.00000  Uiso   1.00
C1502  C     0.20404   0.85517   0.97938   0.00000  Uiso   1.00
C1503  C     0.12920   0.81130   0.97100   0.00000  Uiso   1.00
C1504  C     0.20413   0.85537   0.69567   0.00000  Uiso   1.00
Cu1505 Cu    0.16667   0.83334   0.88022   0.00000  Uiso   1.00
Cu1506 Cu    0.16667   0.83333   0.78645   0.00000  Uiso   1.00
N1507  N     0.16668   0.83334   0.95069   0.00000  Uiso   1.00
N1508  N     0.16665   0.83332   0.71597   0.00000  Uiso   1.00
O1509  O     0.16666   0.77322   0.87291   0.00000  Uiso   1.00
O1510  O     0.16667   0.89345   0.79375   0.00000  Uiso   1.00
O1511  O     0.16666   0.77321   0.79372   0.00000  Uiso   1.00
O1512  O     0.16667   0.89346   0.87294   0.00000  Uiso   1.00
O1513  O     0.09161   0.83334   0.86379   0.00000  Uiso   1.00
O1514  O     0.24172   0.83333   0.80288   0.00000  Uiso   1.00
O1515  O     0.09161   0.83333   0.78460   0.00000  Uiso   1.00
O1516  O     0.24172   0.83334   0.88207   0.00000  Uiso   1.00
N1517  N     0.32303   0.79231   0.78589   0.00000  Uiso   1.00
H1518  H     0.33001   0.79969   0.75202   0.00000  Uiso   1.00
H1519  H     0.00777   0.76515   0.79427   0.00000  Uiso   1.00
N1520  N     0.01030   0.87436   0.88079   0.00000  Uiso   1.00
H1521  H     0.00332   0.86697   0.91465   0.00000  Uiso   1.00
H1522  H     0.32557   0.90152   0.87241   0.00000  Uiso   1.00
C1523  C     0.16744   0.70313   0.74285   0.00000  Uiso   1.00
O1524  O     0.20640   0.72381   0.73744   0.00000  Uiso   1.00
O1525  O     0.13107   0.69291   0.70419   0.00000  Uiso   1.00
H1526  H     0.14138   0.70439   0.67397   0.00000  Uiso   1.00
C1527  C     0.16582   0.96353   0.92381   0.00000  Uiso   1.00
O1528  O     0.12687   0.94284   0.92920   0.00000  Uiso   1.00
O1529  O     0.20217   0.97375   0.96248   0.00000  Uiso   1.00
H1530  H     0.19186   0.96226   0.99269   0.00000  Uiso   1.00
N1531  N     0.12249   0.95681   0.75042   0.00000  Uiso   1.00
H1532  H     0.09289   0.93698   0.75945   0.00000  Uiso   1.00
H1533  H     0.14822   0.94085   0.73296   0.00000  Uiso   1.00
N1534  N     0.21082   0.70984   0.91624   0.00000  Uiso   1.00
H1535  H     0.24052   0.72955   0.90722   0.00000  Uiso   1.00
H1536  H     0.18515   0.72590   0.93366   0.00000  Uiso   1.00
N1537  N     0.08965   0.78914   0.70774   0.00000  Uiso   1.00
H1538  H     0.05461   0.80157   0.69600   0.00000  Uiso   1.00
H1539  H     0.08778   0.75871   0.69590   0.00000  Uiso   1.00
N1540  N     0.24367   0.87755   0.95892   0.00000  Uiso   1.00
H1541  H     0.27872   0.86514   0.97066   0.00000  Uiso   1.00
H1542  H     0.24550   0.90797   0.97075   0.00000  Uiso   1.00
C1543  C     0.08721   0.78723   0.94229   0.00000  Uiso   1.00
O1544  O     0.04395   0.79999   0.93746   0.00000  Uiso   1.00
O1545  O     0.09540   0.74826   0.92491   0.00000  Uiso   1.00
H1546  H     0.06325   0.73458   0.90686   0.00000  Uiso   1.00
C1547  C     0.24613   0.87943   0.72438   0.00000  Uiso   1.00
O1548  O     0.28940   0.86667   0.72916   0.00000  Uiso   1.00
O1549  O     0.23795   0.91838   0.74177   0.00000  Uiso   1.00
H1550  H     0.27013   0.93208   0.75978   0.00000  Uiso   1.00
C1551  C     0.50381   0.75426   0.83313   0.00000  Uiso   1.00
C1552  C     0.49618   0.91241   0.83353   0.00000  Uiso   1.00
C1553  C     0.40152   0.83168   0.82182   0.00000  Uiso   1.00
C1554  C     0.59848   0.83499   0.84484   0.00000  Uiso   1.00
C1555  C     0.34665   0.82417   0.81779   0.00000  Uiso   1.00
C1556  C     0.65335   0.84250   0.84887   0.00000  Uiso   1.00
C1557  C     0.49454   0.68620   0.78976   0.00000  Uiso   1.00
C1558  C     0.50540   0.98046   0.87691   0.00000  Uiso   1.00
C1559  C     0.48215   0.97761   0.79171   0.00000  Uiso   1.00
C1560  C     0.51780   0.68905   0.87496   0.00000  Uiso   1.00
C1561  C     0.49237   0.95726   0.83449   0.00000  Uiso   1.00
C1562  C     0.50759   0.70940   0.83218   0.00000  Uiso   1.00
C1563  C     0.46262   0.81149   0.68729   0.00000  Uiso   1.00
C1564  C     0.53737   0.85517   0.97938   0.00000  Uiso   1.00
C1565  C     0.46254   0.81130   0.97100   0.00000  Uiso   1.00
C1566  C     0.53747   0.85537   0.69567   0.00000  Uiso   1.00
Cu1567 Cu    0.50000   0.83334   0.88022   0.00000  Uiso   1.00
Cu1568 Cu    0.50000   0.83333   0.78645   0.00000  Uiso   1.00
N1569  N     0.50001   0.83334   0.95069   0.00000  Uiso   1.00
N1570  N     0.49999   0.83332   0.71597   0.00000  Uiso   1.00
O1571  O     0.50000   0.77322   0.87291   0.00000  Uiso   1.00
O1572  O     0.50000   0.89345   0.79375   0.00000  Uiso   1.00
O1573  O     0.50000   0.77321   0.79372   0.00000  Uiso   1.00
O1574  O     0.50000   0.89346   0.87294   0.00000  Uiso   1.00
O1575  O     0.42495   0.83334   0.86379   0.00000  Uiso   1.00
O1576  O     0.57505   0.83333   0.80288   0.00000  Uiso   1.00
O1577  O     0.42494   0.83333   0.78460   0.00000  Uiso   1.00
O1578  O     0.57506   0.83334   0.88207   0.00000  Uiso   1.00
N1579  N     0.65636   0.79231   0.78589   0.00000  Uiso   1.00
H1580  H     0.66334   0.79969   0.75202   0.00000  Uiso   1.00
H1581  H     0.34110   0.76515   0.79427   0.00000  Uiso   1.00
N1582  N     0.34364   0.87436   0.88079   0.00000  Uiso   1.00
H1583  H     0.33665   0.86697   0.91465   0.00000  Uiso   1.00
H1584  H     0.65890   0.90152   0.87241   0.00000  Uiso   1.00
C1585  C     0.50078   0.70313   0.74285   0.00000  Uiso   1.00
O1586  O     0.53973   0.72381   0.73744   0.00000  Uiso   1.00
O1587  O     0.46441   0.69291   0.70419   0.00000  Uiso   1.00
H1588  H     0.47472   0.70439   0.67397   0.00000  Uiso   1.00
C1589  C     0.49915   0.96353   0.92381   0.00000  Uiso   1.00
O1590  O     0.46020   0.94284   0.92920   0.00000  Uiso   1.00
O1591  O     0.53550   0.97375   0.96248   0.00000  Uiso   1.00
H1592  H     0.52519   0.96226   0.99269   0.00000  Uiso   1.00
N1593  N     0.45582   0.95681   0.75042   0.00000  Uiso   1.00
H1594  H     0.42623   0.93698   0.75945   0.00000  Uiso   1.00
H1595  H     0.48155   0.94085   0.73296   0.00000  Uiso   1.00
N1596  N     0.54415   0.70984   0.91624   0.00000  Uiso   1.00
H1597  H     0.57386   0.72955   0.90722   0.00000  Uiso   1.00
H1598  H     0.51848   0.72590   0.93366   0.00000  Uiso   1.00
N1599  N     0.42298   0.78914   0.70774   0.00000  Uiso   1.00
H1600  H     0.38794   0.80157   0.69600   0.00000  Uiso   1.00
H1601  H     0.42112   0.75871   0.69590   0.00000  Uiso   1.00
N1602  N     0.57700   0.87755   0.95892   0.00000  Uiso   1.00
H1603  H     0.61205   0.86514   0.97066   0.00000  Uiso   1.00
H1604  H     0.57883   0.90797   0.97075   0.00000  Uiso   1.00
C1605  C     0.42054   0.78723   0.94229   0.00000  Uiso   1.00
O1606  O     0.37729   0.79999   0.93746   0.00000  Uiso   1.00
O1607  O     0.42874   0.74826   0.92491   0.00000  Uiso   1.00
H1608  H     0.39658   0.73458   0.90686   0.00000  Uiso   1.00
C1609  C     0.57947   0.87943   0.72438   0.00000  Uiso   1.00
O1610  O     0.62273   0.86667   0.72916   0.00000  Uiso   1.00
O1611  O     0.57128   0.91838   0.74177   0.00000  Uiso   1.00
H1612  H     0.60346   0.93208   0.75978   0.00000  Uiso   1.00
C1613  C     0.83714   0.75426   0.83313   0.00000  Uiso   1.00
C1614  C     0.82952   0.91241   0.83353   0.00000  Uiso   1.00
C1615  C     0.73485   0.83168   0.82182   0.00000  Uiso   1.00
C1616  C     0.93181   0.83499   0.84484   0.00000  Uiso   1.00
C1617  C     0.67998   0.82417   0.81779   0.00000  Uiso   1.00
C1618  C     0.98668   0.84250   0.84887   0.00000  Uiso   1.00
C1619  C     0.82787   0.68620   0.78976   0.00000  Uiso   1.00
C1620  C     0.83874   0.98046   0.87691   0.00000  Uiso   1.00
C1621  C     0.81548   0.97761   0.79171   0.00000  Uiso   1.00
C1622  C     0.85113   0.68905   0.87496   0.00000  Uiso   1.00
C1623  C     0.82570   0.95726   0.83449   0.00000  Uiso   1.00
C1624  C     0.84092   0.70940   0.83218   0.00000  Uiso   1.00
C1625  C     0.79596   0.81149   0.68729   0.00000  Uiso   1.00
C1626  C     0.87071   0.85517   0.97938   0.00000  Uiso   1.00
C1627  C     0.79587   0.81130   0.97100   0.00000  Uiso   1.00
C1628  C     0.87080   0.85537   0.69567   0.00000  Uiso   1.00
Cu1629 Cu    0.83333   0.83334   0.88022   0.00000  Uiso   1.00
Cu1630 Cu    0.83333   0.83333   0.78645   0.00000  Uiso   1.00
N1631  N     0.83335   0.83334   0.95069   0.00000  Uiso   1.00
N1632  N     0.83332   0.83332   0.71597   0.00000  Uiso   1.00
O1633  O     0.83333   0.77322   0.87291   0.00000  Uiso   1.00
O1634  O     0.83334   0.89345   0.79375   0.00000  Uiso   1.00
O1635  O     0.83333   0.77321   0.79372   0.00000  Uiso   1.00
O1636  O     0.83334   0.89346   0.87294   0.00000  Uiso   1.00
O1637  O     0.75828   0.83334   0.86379   0.00000  Uiso   1.00
O1638  O     0.90839   0.83333   0.80288   0.00000  Uiso   1.00
O1639  O     0.75828   0.83333   0.78460   0.00000  Uiso   1.00
O1640  O     0.90839   0.83334   0.88207   0.00000  Uiso   1.00
N1641  N     0.98970   0.79231   0.78589   0.00000  Uiso   1.00
H1642  H     0.99668   0.79969   0.75202   0.00000  Uiso   1.00
H1643  H     0.67443   0.76515   0.79427   0.00000  Uiso   1.00
N1644  N     0.67697   0.87436   0.88079   0.00000  Uiso   1.00
H1645  H     0.66999   0.86697   0.91465   0.00000  Uiso   1.00
H1646  H     0.99223   0.90152   0.87241   0.00000  Uiso   1.00
C1647  C     0.83411   0.70313   0.74285   0.00000  Uiso   1.00
O1648  O     0.87307   0.72381   0.73744   0.00000  Uiso   1.00
O1649  O     0.79774   0.69291   0.70419   0.00000  Uiso   1.00
H1650  H     0.80805   0.70439   0.67397   0.00000  Uiso   1.00
C1651  C     0.83249   0.96353   0.92381   0.00000  Uiso   1.00
O1652  O     0.79354   0.94284   0.92920   0.00000  Uiso   1.00
O1653  O     0.86884   0.97375   0.96248   0.00000  Uiso   1.00
H1654  H     0.85853   0.96226   0.99269   0.00000  Uiso   1.00
N1655  N     0.78915   0.95681   0.75042   0.00000  Uiso   1.00
H1656  H     0.75956   0.93698   0.75945   0.00000  Uiso   1.00
H1657  H     0.81488   0.94085   0.73296   0.00000  Uiso   1.00
N1658  N     0.87749   0.70984   0.91624   0.00000  Uiso   1.00
H1659  H     0.90719   0.72955   0.90722   0.00000  Uiso   1.00
H1660  H     0.85182   0.72590   0.93366   0.00000  Uiso   1.00
N1661  N     0.75631   0.78914   0.70774   0.00000  Uiso   1.00
H1662  H     0.72127   0.80157   0.69600   0.00000  Uiso   1.00
H1663  H     0.75445   0.75871   0.69590   0.00000  Uiso   1.00
N1664  N     0.91033   0.87755   0.95892   0.00000  Uiso   1.00
H1665  H     0.94538   0.86514   0.97066   0.00000  Uiso   1.00
H1666  H     0.91217   0.90797   0.97075   0.00000  Uiso   1.00
C1667  C     0.75388   0.78723   0.94229   0.00000  Uiso   1.00
O1668  O     0.71062   0.79999   0.93746   0.00000  Uiso   1.00
O1669  O     0.76207   0.74826   0.92491   0.00000  Uiso   1.00
H1670  H     0.72992   0.73458   0.90686   0.00000  Uiso   1.00
C1671  C     0.91280   0.87943   0.72438   0.00000  Uiso   1.00
O1672  O     0.95607   0.86667   0.72916   0.00000  Uiso   1.00
O1673  O     0.90462   0.91838   0.74177   0.00000  Uiso   1.00
H1674  H     0.93679   0.93208   0.75978   0.00000  Uiso   1.00
loop_
_geom_bond_atom_site_label_1
_geom_bond_atom_site_label_2
_geom_bond_distance
_geom_bond_site_symmetry_2
_ccdc_geom_bond_type
C1     O21     1.307   .     A
C1     C12     1.474   .     S
C1     O23     1.298   .     A
C2     O22     1.307   .     A
C2     C11     1.474   .     S
C2     O24     1.298   .     A
C3     O27     1.297   .     A
C3     C5      1.437   .     S
C3     O25     1.286   .     A
C4     O26     1.286   .     A
C4     C6      1.437   .     S
C4     O28     1.297   .     A
C5     C130    1.348   1_455 S
C5     N153    1.439   1_455 S
C6     C67     1.348   .     S
C6     N94     1.439   .     S
C7     C12     1.420   .     A
C7     C35     1.492   .     S
C7     C381    1.396   1_545 S
C8     C39     1.492   .     S
C8     C11     1.420   .     A
C8     C196    1.396   .     S
C9     C11     1.414   .     A
C9     N43     1.440   .     S
C9     C193    1.396   .     S
C10    N46     1.440   .     S
C10    C12     1.414   .     A
C10    C380    1.396   1_545 S
C13    N49     1.431   .     S
C13    N20     1.364   .     A
C13    C1131   1.427   1_554 S
C14    N52     1.431   .     S
C14    N19     1.364   .     A
C14    C574    1.427   .     S
C15    N19     1.382   .     A
C15    C55     1.477   .     S
C15    C571    1.427   .     S
C16    N20     1.382   .     A
C16    C59     1.477   .     S
C16    C1130   1.427   1_554 S
Cu17   O25     1.967   .     S
Cu17   Cu18    2.697   .     S
Cu17   N19     2.027   .     S
Cu17   O24     1.980   .     S
Cu17   O28     1.962   .     S
Cu17   O21     1.972   .     S
Cu18   O26     1.967   .     S
Cu18   O22     1.972   .     S
Cu18   N20     2.027   .     S
Cu18   O23     1.980   .     S
Cu18   O27     1.962   .     S
N29    H30     1.043   .     S
N29    C67     1.439   .     S
N29    H93     1.046   .     S
H31    N153    1.046   1_455 S
N32    H33     1.043   .     S
N32    C130    1.439   1_455 S
N32    H158    1.046   1_455 S
H34    N94     1.046   .     S
C35    O36     1.224   .     D
C35    O37     1.398   .     S
O37    H38     1.014   .     S
C39    O41     1.398   .     S
C39    O40     1.223   .     D
O41    H42     1.014   .     S
N43    H45     1.042   .     S
N43    H44     1.046   .     S
N46    H48     1.042   .     S
N46    H47     1.046   .     S
N49    H50     1.045   .     S
N49    H51     1.042   .     S
N52    H54     1.042   .     S
N52    H53     1.045   .     S
C55    O56     1.221   .     D
C55    O57     1.395   .     S
O57    H58     1.014   .     S
C59    O60     1.221   .     D
C59    O61     1.395   .     S
O61    H62     1.014   .     S
C63    O83     1.307   .     A
C63    C74     1.474   .     S
C63    O85     1.298   .     A
C64    O84     1.307   .     A
C64    C73     1.474   .     S
C64    O86     1.298   .     A
C65    O89     1.297   .     A
C65    C67     1.437   .     S
C65    O87     1.286   .     A
C66    O88     1.286   .     A
C66    C68     1.437   .     S
C66    O90     1.297   .     A
C68    C129    1.348   .     S
C68    N156    1.439   .     S
C69    C74     1.420   .     A
C69    C97     1.492   .     S
C69    C443    1.396   1_545 S
C70    C101    1.492   .     S
C70    C73     1.420   .     A
C70    C258    1.396   .     S
C71    C73     1.414   .     A
C71    N105    1.440   .     S
C71    C255    1.396   .     S
C72    N108    1.440   .     S
C72    C74     1.414   .     A
C72    C442    1.396   1_545 S
C75    N111    1.431   .     S
C75    N82     1.364   .     A
C75    C1193   1.427   1_554 S
C76    N114    1.431   .     S
C76    N81     1.364   .     A
C76    C636    1.427   .     S
C77    N81     1.382   .     A
C77    C117    1.477   .     S
C77    C633    1.427   .     S
C78    N82     1.382   .     A
C78    C121    1.477   .     S
C78    C1192   1.427   1_554 S
Cu79   O87     1.967   .     S
Cu79   Cu80    2.697   .     S
Cu79   N81     2.027   .     S
Cu79   O86     1.980   .     S
Cu79   O90     1.962   .     S
Cu79   O83     1.972   .     S
Cu80   O88     1.967   .     S
Cu80   O84     1.972   .     S
Cu80   N82     2.027   .     S
Cu80   O85     1.980   .     S
Cu80   O89     1.962   .     S
N91    H92     1.043   .     S
N91    C129    1.439   .     S
N91    H155    1.046   .     S
N94    H95     1.043   .     S
H96    N156    1.046   .     S
C97    O98     1.224   .     D
C97    O99     1.398   .     S
O99    H100    1.014   .     S
C101   O103    1.398   .     S
C101   O102    1.223   .     D
O103   H104    1.014   .     S
N105   H107    1.042   .     S
N105   H106    1.046   .     S
N108   H110    1.042   .     S
N108   H109    1.046   .     S
N111   H112    1.045   .     S
N111   H113    1.042   .     S
N114   H116    1.042   .     S
N114   H115    1.045   .     S
C117   O118    1.221   .     D
C117   O119    1.395   .     S
O119   H120    1.014   .     S
C121   O122    1.221   .     D
C121   O123    1.395   .     S
O123   H124    1.014   .     S
C125   O145    1.307   .     A
C125   C136    1.474   .     S
C125   O147    1.298   .     A
C126   O146    1.307   .     A
C126   C135    1.474   .     S
C126   O148    1.298   .     A
C127   O151    1.297   .     A
C127   C129    1.437   .     S
C127   O149    1.286   .     A
C128   O150    1.286   .     A
C128   C130    1.437   .     S
C128   O152    1.297   .     A
C130   C5      1.348   1_655 S
C130   N32     1.439   1_655 S
C131   C136    1.420   .     A
C131   C159    1.492   .     S
C131   C505    1.396   1_545 S
C132   C163    1.492   .     S
C132   C135    1.420   .     A
C132   C320    1.396   .     S
C133   C135    1.414   .     A
C133   N167    1.440   .     S
C133   C317    1.396   .     S
C134   N170    1.440   .     S
C134   C136    1.414   .     A
C134   C504    1.396   1_545 S
C137   N173    1.431   .     S
C137   N144    1.364   .     A
C137   C1255   1.427   1_554 S
C138   N176    1.431   .     S
C138   N143    1.364   .     A
C138   C698    1.427   .     S
C139   N143    1.382   .     A
C139   C179    1.477   .     S
C139   C695    1.427   .     S
C140   N144    1.382   .     A
C140   C183    1.477   .     S
C140   C1254   1.427   1_554 S
Cu141  O149    1.967   .     S
Cu141  Cu142   2.697   .     S
Cu141  N143    2.027   .     S
Cu141  O148    1.980   .     S
Cu141  O152    1.962   .     S
Cu141  O145    1.972   .     S
Cu142  O150    1.967   .     S
Cu142  O146    1.972   .     S
Cu142  N144    2.027   .     S
Cu142  O147    1.980   .     S
Cu142  O151    1.962   .     S
N153   H154    1.043   .     S
N153   C5      1.439   1_655 S
N153   H31     1.046   1_655 S
N156   H157    1.043   .     S
H158   N32     1.046   1_655 S
C159   O160    1.224   .     D
C159   O161    1.398   .     S
O161   H162    1.014   .     S
C163   O165    1.398   .     S
C163   O164    1.223   .     D
O165   H166    1.014   .     S
N167   H169    1.042   .     S
N167   H168    1.046   .     S
N170   H172    1.042   .     S
N170   H171    1.046   .     S
N173   H174    1.045   .     S
N173   H175    1.042   .     S
N176   H178    1.042   .     S
N176   H177    1.045   .     S
C179   O180    1.221   .     D
C179   O181    1.395   .     S
O181   H182    1.014   .     S
C183   O184    1.221   .     D
C183   O185    1.395   .     S
O185   H186    1.014   .     S
C187   O207    1.307   .     A
C187   C198    1.474   .     S
C187   O209    1.298   .     A
C188   O208    1.307   .     A
C188   C197    1.474   .     S
C188   O210    1.298   .     A
C189   O213    1.297   .     A
C189   C191    1.437   .     S
C189   O211    1.286   .     A
C190   O212    1.286   .     A
C190   C192    1.437   .     S
C190   O214    1.297   .     A
C191   C316    1.348   1_455 S
C191   N339    1.439   1_455 S
C192   C253    1.348   .     S
C192   N280    1.439   .     S
C193   C198    1.420   .     A
C193   C221    1.492   .     S
C194   C225    1.492   .     S
C194   C197    1.420   .     A
C194   C382    1.396   .     S
C195   C197    1.414   .     A
C195   N229    1.440   .     S
C195   C379    1.396   .     S
C196   N232    1.440   .     S
C196   C198    1.414   .     A
C199   N235    1.431   .     S
C199   N206    1.364   .     A
C199   C1317   1.427   1_554 S
C200   N238    1.431   .     S
C200   N205    1.364   .     A
C200   C760    1.427   .     S
C201   N205    1.382   .     A
C201   C241    1.477   .     S
C201   C757    1.427   .     S
C202   N206    1.382   .     A
C202   C245    1.477   .     S
C202   C1316   1.427   1_554 S
Cu203  O211    1.967   .     S
Cu203  Cu204   2.697   .     S
Cu203  N205    2.027   .     S
Cu203  O210    1.980   .     S
Cu203  O214    1.962   .     S
Cu203  O207    1.972   .     S
Cu204  O212    1.967   .     S
Cu204  O208    1.972   .     S
Cu204  N206    2.027   .     S
Cu204  O209    1.980   .     S
Cu204  O213    1.962   .     S
N215   H216    1.043   .     S
N215   C253    1.439   .     S
N215   H279    1.046   .     S
H217   N339    1.046   1_455 S
N218   H219    1.043   .     S
N218   C316    1.439   1_455 S
N218   H344    1.046   1_455 S
H220   N280    1.046   .     S
C221   O222    1.224   .     D
C221   O223    1.398   .     S
O223   H224    1.014   .     S
C225   O227    1.398   .     S
C225   O226    1.223   .     D
O227   H228    1.014   .     S
N229   H231    1.042   .     S
N229   H230    1.046   .     S
N232   H234    1.042   .     S
N232   H233    1.046   .     S
N235   H236    1.045   .     S
N235   H237    1.042   .     S
N238   H240    1.042   .     S
N238   H239    1.045   .     S
C241   O242    1.221   .     D
C241   O243    1.395   .     S
O243   H244    1.014   .     S
C245   O246    1.221   .     D
C245   O247    1.395   .     S
O247   H248    1.014   .     S
C249   O269    1.307   .     A
C249   C260    1.474   .     S
C249   O271    1.298   .     A
C250   O270    1.307   .     A
C250   C259    1.474   .     S
C250   O272    1.298   .     A
C251   O275    1.297   .     A
C251   C253    1.437   .     S
C251   O273    1.286   .     A
C252   O274    1.286   .     A
C252   C254    1.437   .     S
C252   O276    1.297   .     A
C254   C315    1.348   .     S
C254   N342    1.439   .     S
C255   C260    1.420   .     A
C255   C283    1.492   .     S
C256   C287    1.492   .     S
C256   C259    1.420   .     A
C256   C444    1.396   .     S
C257   C259    1.414   .     A
C257   N291    1.440   .     S
C257   C441    1.396   .     S
C258   N294    1.440   .     S
C258   C260    1.414   .     A
C261   N297    1.431   .     S
C261   N268    1.364   .     A
C261   C1379   1.427   1_554 S
C262   N300    1.431   .     S
C262   N267    1.364   .     A
C262   C822    1.427   .     S
C263   N267    1.382   .     A
C263   C303    1.477   .     S
C263   C819    1.427   .     S
C264   N268    1.382   .     A
C264   C307    1.477   .     S
C264   C1378   1.427   1_554 S
Cu265  O273    1.967   .     S
Cu265  Cu266   2.697   .     S
Cu265  N267    2.027   .     S
Cu265  O272    1.980   .     S
Cu265  O276    1.962   .     S
Cu265  O269    1.972   .     S
Cu266  O274    1.967   .     S
Cu266  O270    1.972   .     S
Cu266  N268    2.027   .     S
Cu266  O271    1.980   .     S
Cu266  O275    1.962   .     S
N277   H278    1.043   .     S
N277   C315    1.439   .     S
N277   H341    1.046   .     S
N280   H281    1.043   .     S
H282   N342    1.046   .     S
C283   O284    1.224   .     D
C283   O285    1.398   .     S
O285   H286    1.014   .     S
C287   O289    1.398   .     S
C287   O288    1.223   .     D
O289   H290    1.014   .     S
N291   H293    1.042   .     S
N291   H292    1.046   .     S
N294   H296    1.042   .     S
N294   H295    1.046   .     S
N297   H298    1.045   .     S
N297   H299    1.042   .     S
N300   H302    1.042   .     S
N300   H301    1.045   .     S
C303   O304    1.221   .     D
C303   O305    1.395   .     S
O305   H306    1.014   .     S
C307   O308    1.221   .     D
C307   O309    1.395   .     S
O309   H310    1.014   .     S
C311   O331    1.307   .     A
C311   C322    1.474   .     S
C311   O333    1.298   .     A
C312   O332    1.307   .     A
C312   C321    1.474   .     S
C312   O334    1.298   .     A
C313   O337    1.297   .     A
C313   C315    1.437   .     S
C313   O335    1.286   .     A
C314   O336    1.286   .     A
C314   C316    1.437   .     S
C314   O338    1.297   .     A
C316   C191    1.348   1_655 S
C316   N218    1.439   1_655 S
C317   C322    1.420   .     A
C317   C345    1.492   .     S
C318   C349    1.492   .     S
C318   C321    1.420   .     A
C318   C506    1.396   .     S
C319   C321    1.414   .     A
C319   N353    1.440   .     S
C319   C503    1.396   .     S
C320   N356    1.440   .     S
C320   C322    1.414   .     A
C323   N359    1.431   .     S
C323   N330    1.364   .     A
C323   C1441   1.427   1_554 S
C324   N362    1.431   .     S
C324   N329    1.364   .     A
C324   C884    1.427   .     S
C325   N329    1.382   .     A
C325   C365    1.477   .     S
C325   C881    1.427   .     S
C326   N330    1.382   .     A
C326   C369    1.477   .     S
C326   C1440   1.427   1_554 S
Cu327  O335    1.967   .     S
Cu327  Cu328   2.697   .     S
Cu327  N329    2.027   .     S
Cu327  O334    1.980   .     S
Cu327  O338    1.962   .     S
Cu327  O331    1.972   .     S
Cu328  O336    1.967   .     S
Cu328  O332    1.972   .     S
Cu328  N330    2.027   .     S
Cu328  O333    1.980   .     S
Cu328  O337    1.962   .     S
N339   H340    1.043   .     S
N339   C191    1.439   1_655 S
N339   H217    1.046   1_655 S
N342   H343    1.043   .     S
H344   N218    1.046   1_655 S
C345   O346    1.224   .     D
C345   O347    1.398   .     S
O347   H348    1.014   .     S
C349   O351    1.398   .     S
C349   O350    1.223   .     D
O351   H352    1.014   .     S
N353   H355    1.042   .     S
N353   H354    1.046   .     S
N356   H358    1.042   .     S
N356   H357    1.046   .     S
N359   H360    1.045   .     S
N359   H361    1.042   .     S
N362   H364    1.042   .     S
N362   H363    1.045   .     S
C365   O366    1.221   .     D
C365   O367    1.395   .     S
O367   H368    1.014   .     S
C369   O370    1.221   .     D
C369   O371    1.395   .     S
O371   H372    1.014   .     S
C373   O393    1.307   .     A
C373   C384    1.474   .     S
C373   O395    1.298   .     A
C374   O394    1.307   .     A
C374   C383    1.474   .     S
C374   O396    1.298   .     A
C375   O399    1.297   .     A
C375   C377    1.437   .     S
C375   O397    1.286   .     A
C376   O398    1.286   .     A
C376   C378    1.437   .     S
C376   O400    1.297   .     A
C377   C502    1.348   1_455 S
C377   N525    1.439   1_455 S
C378   C439    1.348   .     S
C378   N466    1.439   .     S
C379   C384    1.420   .     A
C379   C407    1.492   .     S
C380   C411    1.492   .     S
C380   C383    1.420   .     A
C380   C10     1.396   1_565 S
C381   C383    1.414   .     A
C381   N415    1.440   .     S
C381   C7      1.396   1_565 S
C382   N418    1.440   .     S
C382   C384    1.414   .     A
C385   N421    1.431   .     S
C385   N392    1.364   .     A
C385   C1503   1.427   1_554 S
C386   N424    1.431   .     S
C386   N391    1.364   .     A
C386   C946    1.427   .     S
C387   N391    1.382   .     A
C387   C427    1.477   .     S
C387   C943    1.427   .     S
C388   N392    1.382   .     A
C388   C431    1.477   .     S
C388   C1502   1.427   1_554 S
Cu389  O397    1.967   .     S
Cu389  Cu390   2.697   .     S
Cu389  N391    2.027   .     S
Cu389  O396    1.980   .     S
Cu389  O400    1.962   .     S
Cu389  O393    1.972   .     S
Cu390  O398    1.967   .     S
Cu390  O394    1.972   .     S
Cu390  N392    2.027   .     S
Cu390  O395    1.980   .     S
Cu390  O399    1.962   .     S
N401   H402    1.043   .     S
N401   C439    1.439   .     S
N401   H465    1.046   .     S
H403   N525    1.046   1_455 S
N404   H405    1.043   .     S
N404   C502    1.439   1_455 S
N404   H530    1.046   1_455 S
H406   N466    1.046   .     S
C407   O408    1.224   .     D
C407   O409    1.398   .     S
O409   H410    1.014   .     S
C411   O413    1.398   .     S
C411   O412    1.223   .     D
O413   H414    1.014   .     S
N415   H417    1.042   .     S
N415   H416    1.046   .     S
N418   H420    1.042   .     S
N418   H419    1.046   .     S
N421   H422    1.045   .     S
N421   H423    1.042   .     S
N424   H426    1.042   .     S
N424   H425    1.045   .     S
C427   O428    1.221   .     D
C427   O429    1.395   .     S
O429   H430    1.014   .     S
C431   O432    1.221   .     D
C431   O433    1.395   .     S
O433   H434    1.014   .     S
C435   O455    1.307   .     A
C435   C446    1.474   .     S
C435   O457    1.298   .     A
C436   O456    1.307   .     A
C436   C445    1.474   .     S
C436   O458    1.298   .     A
C437   O461    1.297   .     A
C437   C439    1.437   .     S
C437   O459    1.286   .     A
C438   O460    1.286   .     A
C438   C440    1.437   .     S
C438   O462    1.297   .     A
C440   C501    1.348   .     S
C440   N528    1.439   .     S
C441   C446    1.420   .     A
C441   C469    1.492   .     S
C442   C473    1.492   .     S
C442   C445    1.420   .     A
C442   C72     1.396   1_565 S
C443   C445    1.414   .     A
C443   N477    1.440   .     S
C443   C69     1.396   1_565 S
C444   N480    1.440   .     S
C444   C446    1.414   .     A
C447   N483    1.431   .     S
C447   N454    1.364   .     A
C447   C1565   1.427   1_554 S
C448   N486    1.431   .     S
C448   N453    1.364   .     A
C448   C1008   1.427   .     S
C449   N453    1.382   .     A
C449   C489    1.477   .     S
C449   C1005   1.427   .     S
C450   N454    1.382   .     A
C450   C493    1.477   .     S
C450   C1564   1.427   1_554 S
Cu451  O459    1.967   .     S
Cu451  Cu452   2.697   .     S
Cu451  N453    2.027   .     S
Cu451  O458    1.980   .     S
Cu451  O462    1.962   .     S
Cu451  O455    1.972   .     S
Cu452  O460    1.967   .     S
Cu452  O456    1.972   .     S
Cu452  N454    2.027   .     S
Cu452  O457    1.980   .     S
Cu452  O461    1.962   .     S
N463   H464    1.043   .     S
N463   C501    1.439   .     S
N463   H527    1.046   .     S
N466   H467    1.043   .     S
H468   N528    1.046   .     S
C469   O470    1.224   .     D
C469   O471    1.398   .     S
O471   H472    1.014   .     S
C473   O475    1.398   .     S
C473   O474    1.223   .     D
O475   H476    1.014   .     S
N477   H479    1.042   .     S
N477   H478    1.046   .     S
N480   H482    1.042   .     S
N480   H481    1.046   .     S
N483   H484    1.045   .     S
N483   H485    1.042   .     S
N486   H488    1.042   .     S
N486   H487    1.045   .     S
C489   O490    1.221   .     D
C489   O491    1.395   .     S
O491   H492    1.014   .     S
C493   O494    1.221   .     D
C493   O495    1.395   .     S
O495   H496    1.014   .     S
C497   O517    1.307   .     A
C497   C508    1.474   .     S
C497   O519    1.298   .     A
C498   O518    1.307   .     A
C498   C507    1.474   .     S
C498   O520    1.298   .     A
C499   O523    1.297   .     A
C499   C501    1.437   .     S
C499   O521    1.286   .     A
C500   O522    1.286   .     A
C500   C502    1.437   .     S
C500   O524    1.297   .     A
C502   C377    1.348   1_655 S
C502   N404    1.439   1_655 S
C503   C508    1.420   .     A
C503   C531    1.492   .     S
C504   C535    1.492   .     S
C504   C507    1.420   .     A
C504   C134    1.396   1_565 S
C505   C507    1.414   .     A
C505   N539    1.440   .     S
C505   C131    1.396   1_565 S
C506   N542    1.440   .     S
C506   C508    1.414   .     A
C509   N545    1.431   .     S
C509   N516    1.364   .     A
C509   C1627   1.427   1_554 S
C510   N548    1.431   .     S
C510   N515    1.364   .     A
C510   C1070   1.427   .     S
C511   N515    1.382   .     A
C511   C551    1.477   .     S
C511   C1067   1.427   .     S
C512   N516    1.382   .     A
C512   C555    1.477   .     S
C512   C1626   1.427   1_554 S
Cu513  O521    1.967   .     S
Cu513  Cu514   2.697   .     S
Cu513  N515    2.027   .     S
Cu513  O520    1.980   .     S
Cu513  O524    1.962   .     S
Cu513  O517    1.972   .     S
Cu514  O522    1.967   .     S
Cu514  O518    1.972   .     S
Cu514  N516    2.027   .     S
Cu514  O519    1.980   .     S
Cu514  O523    1.962   .     S
N525   H526    1.043   .     S
N525   C377    1.439   1_655 S
N525   H403    1.046   1_655 S
N528   H529    1.043   .     S
H530   N404    1.046   1_655 S
C531   O532    1.224   .     D
C531   O533    1.398   .     S
O533   H534    1.014   .     S
C535   O537    1.398   .     S
C535   O536    1.223   .     D
O537   H538    1.014   .     S
N539   H541    1.042   .     S
N539   H540    1.046   .     S
N542   H544    1.042   .     S
N542   H543    1.046   .     S
N545   H546    1.045   .     S
N545   H547    1.042   .     S
N548   H550    1.042   .     S
N548   H549    1.045   .     S
C551   O552    1.221   .     D
C551   O553    1.395   .     S
O553   H554    1.014   .     S
C555   O556    1.221   .     D
C555   O557    1.395   .     S
O557   H558    1.014   .     S
C559   O579    1.307   .     A
C559   C570    1.474   .     S
C559   O581    1.298   .     A
C560   O580    1.307   .     A
C560   C569    1.474   .     S
C560   O582    1.298   .     A
C561   O585    1.297   .     A
C561   C563    1.437   .     S
C561   O583    1.286   .     A
C562   O584    1.286   .     A
C562   C564    1.437   .     S
C562   O586    1.297   .     A
C563   C688    1.348   1_455 S
C563   N711    1.439   1_455 S
C564   C625    1.348   .     S
C564   N652    1.439   .     S
C565   C570    1.420   .     A
C565   C593    1.492   .     S
C565   C939    1.396   1_545 S
C566   C597    1.492   .     S
C566   C569    1.420   .     A
C566   C754    1.396   .     S
C567   C569    1.414   .     A
C567   N601    1.440   .     S
C567   C751    1.396   .     S
C568   N604    1.440   .     S
C568   C570    1.414   .     A
C568   C938    1.396   1_545 S
C571   N607    1.431   .     S
C571   N578    1.364   .     A
C572   N610    1.431   .     S
C572   N577    1.364   .     A
C572   C1132   1.427   .     S
C573   N577    1.382   .     A
C573   C613    1.477   .     S
C573   C1129   1.427   .     S
C574   N578    1.382   .     A
C574   C617    1.477   .     S
Cu575  O583    1.967   .     S
Cu575  Cu576   2.697   .     S
Cu575  N577    2.027   .     S
Cu575  O582    1.980   .     S
Cu575  O586    1.962   .     S
Cu575  O579    1.972   .     S
Cu576  O584    1.967   .     S
Cu576  O580    1.972   .     S
Cu576  N578    2.027   .     S
Cu576  O581    1.980   .     S
Cu576  O585    1.962   .     S
N587   H588    1.043   .     S
N587   C625    1.439   .     S
N587   H651    1.046   .     S
H589   N711    1.046   1_455 S
N590   H591    1.043   .     S
N590   C688    1.439   1_455 S
N590   H716    1.046   1_455 S
H592   N652    1.046   .     S
C593   O594    1.224   .     D
C593   O595    1.398   .     S
O595   H596    1.014   .     S
C597   O599    1.398   .     S
C597   O598    1.223   .     D
O599   H600    1.014   .     S
N601   H603    1.042   .     S
N601   H602    1.046   .     S
N604   H606    1.042   .     S
N604   H605    1.046   .     S
N607   H608    1.045   .     S
N607   H609    1.042   .     S
N610   H612    1.042   .     S
N610   H611    1.045   .     S
C613   O614    1.221   .     D
C613   O615    1.395   .     S
O615   H616    1.014   .     S
C617   O618    1.221   .     D
C617   O619    1.395   .     S
O619   H620    1.014   .     S
C621   O641    1.307   .     A
C621   C632    1.474   .     S
C621   O643    1.298   .     A
C622   O642    1.307   .     A
C622   C631    1.474   .     S
C622   O644    1.298   .     A
C623   O647    1.297   .     A
C623   C625    1.437   .     S
C623   O645    1.286   .     A
C624   O646    1.286   .     A
C624   C626    1.437   .     S
C624   O648    1.297   .     A
C626   C687    1.348   .     S
C626   N714    1.439   .     S
C627   C632    1.420   .     A
C627   C655    1.492   .     S
C627   C1001   1.396   1_545 S
C628   C659    1.492   .     S
C628   C631    1.420   .     A
C628   C816    1.396   .     S
C629   C631    1.414   .     A
C629   N663    1.440   .     S
C629   C813    1.396   .     S
C630   N666    1.440   .     S
C630   C632    1.414   .     A
C630   C1000   1.396   1_545 S
C633   N669    1.431   .     S
C633   N640    1.364   .     A
C634   N672    1.431   .     S
C634   N639    1.364   .     A
C634   C1194   1.427   .     S
C635   N639    1.382   .     A
C635   C675    1.477   .     S
C635   C1191   1.427   .     S
C636   N640    1.382   .     A
C636   C679    1.477   .     S
Cu637  O645    1.967   .     S
Cu637  Cu638   2.697   .     S
Cu637  N639    2.027   .     S
Cu637  O644    1.980   .     S
Cu637  O648    1.962   .     S
Cu637  O641    1.972   .     S
Cu638  O646    1.967   .     S
Cu638  O642    1.972   .     S
Cu638  N640    2.027   .     S
Cu638  O643    1.980   .     S
Cu638  O647    1.962   .     S
N649   H650    1.043   .     S
N649   C687    1.439   .     S
N649   H713    1.046   .     S
N652   H653    1.043   .     S
H654   N714    1.046   .     S
C655   O656    1.224   .     D
C655   O657    1.398   .     S
O657   H658    1.014   .     S
C659   O661    1.398   .     S
C659   O660    1.223   .     D
O661   H662    1.014   .     S
N663   H665    1.042   .     S
N663   H664    1.046   .     S
N666   H668    1.042   .     S
N666   H667    1.046   .     S
N669   H670    1.045   .     S
N669   H671    1.042   .     S
N672   H674    1.042   .     S
N672   H673    1.045   .     S
C675   O676    1.221   .     D
C675   O677    1.395   .     S
O677   H678    1.014   .     S
C679   O680    1.221   .     D
C679   O681    1.395   .     S
O681   H682    1.014   .     S
C683   O703    1.307   .     A
C683   C694    1.474   .     S
C683   O705    1.298   .     A
C684   O704    1.307   .     A
C684   C693    1.474   .     S
C684   O706    1.298   .     A
C685   O709    1.297   .     A
C685   C687    1.437   .     S
C685   O707    1.286   .     A
C686   O708    1.286   .     A
C686   C688    1.437   .     S
C686   O710    1.297   .     A
C688   C563    1.348   1_655 S
C688   N590    1.439   1_655 S
C689   C694    1.420   .     A
C689   C717    1.492   .     S
C689   C1063   1.396   1_545 S
C690   C721    1.492   .     S
C690   C693    1.420   .     A
C690   C878    1.396   .     S
C691   C693    1.414   .     A
C691   N725    1.440   .     S
C691   C875    1.396   .     S
C692   N728    1.440   .     S
C692   C694    1.414   .     A
C692   C1062   1.396   1_545 S
C695   N731    1.431   .     S
C695   N702    1.364   .     A
C696   N734    1.431   .     S
C696   N701    1.364   .     A
C696   C1256   1.427   .     S
C697   N701    1.382   .     A
C697   C737    1.477   .     S
C697   C1253   1.427   .     S
C698   N702    1.382   .     A
C698   C741    1.477   .     S
Cu699  O707    1.967   .     S
Cu699  Cu700   2.697   .     S
Cu699  N701    2.027   .     S
Cu699  O706    1.980   .     S
Cu699  O710    1.962   .     S
Cu699  O703    1.972   .     S
Cu700  O708    1.967   .     S
Cu700  O704    1.972   .     S
Cu700  N702    2.027   .     S
Cu700  O705    1.980   .     S
Cu700  O709    1.962   .     S
N711   H712    1.043   .     S
N711   C563    1.439   1_655 S
N711   H589    1.046   1_655 S
N714   H715    1.043   .     S
H716   N590    1.046   1_655 S
C717   O718    1.224   .     D
C717   O719    1.398   .     S
O719   H720    1.014   .     S
C721   O723    1.398   .     S
C721   O722    1.223   .     D
O723   H724    1.014   .     S
N725   H727    1.042   .     S
N725   H726    1.046   .     S
N728   H730    1.042   .     S
N728   H729    1.046   .     S
N731   H732    1.045   .     S
N731   H733    1.042   .     S
N734   H736    1.042   .     S
N734   H735    1.045   .     S
C737   O738    1.221   .     D
C737   O739    1.395   .     S
O739   H740    1.014   .     S
C741   O742    1.221   .     D
C741   O743    1.395   .     S
O743   H744    1.014   .     S
C745   O765    1.307   .     A
C745   C756    1.474   .     S
C745   O767    1.298   .     A
C746   O766    1.307   .     A
C746   C755    1.474   .     S
C746   O768    1.298   .     A
C747   O771    1.297   .     A
C747   C749    1.437   .     S
C747   O769    1.286   .     A
C748   O770    1.286   .     A
C748   C750    1.437   .     S
C748   O772    1.297   .     A
C749   C874    1.348   1_455 S
C749   N897    1.439   1_455 S
C750   C811    1.348   .     S
C750   N838    1.439   .     S
C751   C756    1.420   .     A
C751   C779    1.492   .     S
C752   C783    1.492   .     S
C752   C755    1.420   .     A
C752   C940    1.396   .     S
C753   C755    1.414   .     A
C753   N787    1.440   .     S
C753   C937    1.396   .     S
C754   N790    1.440   .     S
C754   C756    1.414   .     A
C757   N793    1.431   .     S
C757   N764    1.364   .     A
C758   N796    1.431   .     S
C758   N763    1.364   .     A
C758   C1318   1.427   .     S
C759   N763    1.382   .     A
C759   C799    1.477   .     S
C759   C1315   1.427   .     S
C760   N764    1.382   .     A
C760   C803    1.477   .     S
Cu761  O769    1.967   .     S
Cu761  Cu762   2.697   .     S
Cu761  N763    2.027   .     S
Cu761  O768    1.980   .     S
Cu761  O772    1.962   .     S
Cu761  O765    1.972   .     S
Cu762  O770    1.967   .     S
Cu762  O766    1.972   .     S
Cu762  N764    2.027   .     S
Cu762  O767    1.980   .     S
Cu762  O771    1.962   .     S
N773   H774    1.043   .     S
N773   C811    1.439   .     S
N773   H837    1.046   .     S
H775   N897    1.046   1_455 S
N776   H777    1.043   .     S
N776   C874    1.439   1_455 S
N776   H902    1.046   1_455 S
H778   N838    1.046   .     S
C779   O780    1.224   .     D
C779   O781    1.398   .     S
O781   H782    1.014   .     S
C783   O785    1.398   .     S
C783   O784    1.223   .     D
O785   H786    1.014   .     S
N787   H789    1.042   .     S
N787   H788    1.046   .     S
N790   H792    1.042   .     S
N790   H791    1.046   .     S
N793   H794    1.045   .     S
N793   H795    1.042   .     S
N796   H798    1.042   .     S
N796   H797    1.045   .     S
C799   O800    1.221   .     D
C799   O801    1.395   .     S
O801   H802    1.014   .     S
C803   O804    1.221   .     D
C803   O805    1.395   .     S
O805   H806    1.014   .     S
C807   O827    1.307   .     A
C807   C818    1.474   .     S
C807   O829    1.298   .     A
C808   O828    1.307   .     A
C808   C817    1.474   .     S
C808   O830    1.298   .     A
C809   O833    1.297   .     A
C809   C811    1.437   .     S
C809   O831    1.286   .     A
C810   O832    1.286   .     A
C810   C812    1.437   .     S
C810   O834    1.297   .     A
C812   C873    1.348   .     S
C812   N900    1.439   .     S
C813   C818    1.420   .     A
C813   C841    1.492   .     S
C814   C845    1.492   .     S
C814   C817    1.420   .     A
C814   C1002   1.396   .     S
C815   C817    1.414   .     A
C815   N849    1.440   .     S
C815   C999    1.396   .     S
C816   N852    1.440   .     S
C816   C818    1.414   .     A
C819   N855    1.431   .     S
C819   N826    1.364   .     A
C820   N858    1.431   .     S
C820   N825    1.364   .     A
C820   C1380   1.427   .     S
C821   N825    1.382   .     A
C821   C861    1.477   .     S
C821   C1377   1.427   .     S
C822   N826    1.382   .     A
C822   C865    1.477   .     S
Cu823  O831    1.967   .     S
Cu823  Cu824   2.697   .     S
Cu823  N825    2.027   .     S
Cu823  O830    1.980   .     S
Cu823  O834    1.962   .     S
Cu823  O827    1.972   .     S
Cu824  O832    1.967   .     S
Cu824  O828    1.972   .     S
Cu824  N826    2.027   .     S
Cu824  O829    1.980   .     S
Cu824  O833    1.962   .     S
N835   H836    1.043   .     S
N835   C873    1.439   .     S
N835   H899    1.046   .     S
N838   H839    1.043   .     S
H840   N900    1.046   .     S
C841   O842    1.224   .     D
C841   O843    1.398   .     S
O843   H844    1.014   .     S
C845   O847    1.398   .     S
C845   O846    1.223   .     D
O847   H848    1.014   .     S
N849   H851    1.042   .     S
N849   H850    1.046   .     S
N852   H854    1.042   .     S
N852   H853    1.046   .     S
N855   H856    1.045   .     S
N855   H857    1.042   .     S
N858   H860    1.042   .     S
N858   H859    1.045   .     S
C861   O862    1.221   .     D
C861   O863    1.395   .     S
O863   H864    1.014   .     S
C865   O866    1.221   .     D
C865   O867    1.395   .     S
O867   H868    1.014   .     S
C869   O889    1.307   .     A
C869   C880    1.474   .     S
C869   O891    1.298   .     A
C870   O890    1.307   .     A
C870   C879    1.474   .     S
C870   O892    1.298   .     A
C871   O895    1.297   .     A
C871   C873    1.437   .     S
C871   O893    1.286   .     A
C872   O894    1.286   .     A
C872   C874    1.437   .     S
C872   O896    1.297   .     A
C874   C749    1.348   1_655 S
C874   N776    1.439   1_655 S
C875   C880    1.420   .     A
C875   C903    1.492   .     S
C876   C907    1.492   .     S
C876   C879    1.420   .     A
C876   C1064   1.396   .     S
C877   C879    1.414   .     A
C877   N911    1.440   .     S
C877   C1061   1.396   .     S
C878   N914    1.440   .     S
C878   C880    1.414   .     A
C881   N917    1.431   .     S
C881   N888    1.364   .     A
C882   N920    1.431   .     S
C882   N887    1.364   .     A
C882   C1442   1.427   .     S
C883   N887    1.382   .     A
C883   C923    1.477   .     S
C883   C1439   1.427   .     S
C884   N888    1.382   .     A
C884   C927    1.477   .     S
Cu885  O893    1.967   .     S
Cu885  Cu886   2.697   .     S
Cu885  N887    2.027   .     S
Cu885  O892    1.980   .     S
Cu885  O896    1.962   .     S
Cu885  O889    1.972   .     S
Cu886  O894    1.967   .     S
Cu886  O890    1.972   .     S
Cu886  N888    2.027   .     S
Cu886  O891    1.980   .     S
Cu886  O895    1.962   .     S
N897   H898    1.043   .     S
N897   C749    1.439   1_655 S
N897   H775    1.046   1_655 S
N900   H901    1.043   .     S
H902   N776    1.046   1_655 S
C903   O904    1.224   .     D
C903   O905    1.398   .     S
O905   H906    1.014   .     S
C907   O909    1.398   .     S
C907   O908    1.223   .     D
O909   H910    1.014   .     S
N911   H913    1.042   .     S
N911   H912    1.046   .     S
N914   H916    1.042   .     S
N914   H915    1.046   .     S
N917   H918    1.045   .     S
N917   H919    1.042   .     S
N920   H922    1.042   .     S
N920   H921    1.045   .     S
C923   O924    1.221   .     D
C923   O925    1.395   .     S
O925   H926    1.014   .     S
C927   O928    1.221   .     D
C927   O929    1.395   .     S
O929   H930    1.014   .     S
C931   O951    1.307   .     A
C931   C942    1.474   .     S
C931   O953    1.298   .     A
C932   O952    1.307   .     A
C932   C941    1.474   .     S
C932   O954    1.298   .     A
C933   O957    1.297   .     A
C933   C935    1.437   .     S
C933   O955    1.286   .     A
C934   O956    1.286   .     A
C934   C936    1.437   .     S
C934   O958    1.297   .     A
C935   C1060   1.348   1_455 S
C935   N1083   1.439   1_455 S
C936   C997    1.348   .     S
C936   N1024   1.439   .     S
C937   C942    1.420   .     A
C937   C965    1.492   .     S
C938   C969    1.492   .     S
C938   C941    1.420   .     A
C938   C568    1.396   1_565 S
C939   C941    1.414   .     A
C939   N973    1.440   .     S
C939   C565    1.396   1_565 S
C940   N976    1.440   .     S
C940   C942    1.414   .     A
C943   N979    1.431   .     S
C943   N950    1.364   .     A
C944   N982    1.431   .     S
C944   N949    1.364   .     A
C944   C1504   1.427   .     S
C945   N949    1.382   .     A
C945   C985    1.477   .     S
C945   C1501   1.427   .     S
C946   N950    1.382   .     A
C946   C989    1.477   .     S
Cu947  O955    1.967   .     S
Cu947  Cu948   2.697   .     S
Cu947  N949    2.027   .     S
Cu947  O954    1.980   .     S
Cu947  O958    1.962   .     S
Cu947  O951    1.972   .     S
Cu948  O956    1.967   .     S
Cu948  O952    1.972   .     S
Cu948  N950    2.027   .     S
Cu948  O953    1.980   .     S
Cu948  O957    1.962   .     S
N959   H960    1.043   .     S
N959   C997    1.439   .     S
N959   H1023   1.046   .     S
H961   N1083   1.046   1_455 S
N962   H963    1.043   .     S
N962   C1060   1.439   1_455 S
N962   H1088   1.046   1_455 S
H964   N1024   1.046   .     S
C965   O966    1.224   .     D
C965   O967    1.398   .     S
O967   H968    1.014   .     S
C969   O971    1.398   .     S
C969   O970    1.223   .     D
O971   H972    1.014   .     S
N973   H975    1.042   .     S
N973   H974    1.046   .     S
N976   H978    1.042   .     S
N976   H977    1.046   .     S
N979   H980    1.045   .     S
N979   H981    1.042   .     S
N982   H984    1.042   .     S
N982   H983    1.045   .     S
C985   O986    1.221   .     D
C985   O987    1.395   .     S
O987   H988    1.014   .     S
C989   O990    1.221   .     D
C989   O991    1.395   .     S
O991   H992    1.014   .     S
C993   O1013   1.307   .     A
C993   C1004   1.474   .     S
C993   O1015   1.298   .     A
C994   O1014   1.307   .     A
C994   C1003   1.474   .     S
C994   O1016   1.298   .     A
C995   O1019   1.297   .     A
C995   C997    1.437   .     S
C995   O1017   1.286   .     A
C996   O1018   1.286   .     A
C996   C998    1.437   .     S
C996   O1020   1.297   .     A
C998   C1059   1.348   .     S
C998   N1086   1.439   .     S
C999   C1004   1.420   .     A
C999   C1027   1.492   .     S
C1000  C1031   1.492   .     S
C1000  C1003   1.420   .     A
C1000  C630    1.396   1_565 S
C1001  C1003   1.414   .     A
C1001  N1035   1.440   .     S
C1001  C627    1.396   1_565 S
C1002  N1038   1.440   .     S
C1002  C1004   1.414   .     A
C1005  N1041   1.431   .     S
C1005  N1012   1.364   .     A
C1006  N1044   1.431   .     S
C1006  N1011   1.364   .     A
C1006  C1566   1.427   .     S
C1007  N1011   1.382   .     A
C1007  C1047   1.477   .     S
C1007  C1563   1.427   .     S
C1008  N1012   1.382   .     A
C1008  C1051   1.477   .     S
Cu1009 O1017   1.967   .     S
Cu1009 Cu1010  2.697   .     S
Cu1009 N1011   2.027   .     S
Cu1009 O1016   1.980   .     S
Cu1009 O1020   1.962   .     S
Cu1009 O1013   1.972   .     S
Cu1010 O1018   1.967   .     S
Cu1010 O1014   1.972   .     S
Cu1010 N1012   2.027   .     S
Cu1010 O1015   1.980   .     S
Cu1010 O1019   1.962   .     S
N1021  H1022   1.043   .     S
N1021  C1059   1.439   .     S
N1021  H1085   1.046   .     S
N1024  H1025   1.043   .     S
H1026  N1086   1.046   .     S
C1027  O1028   1.224   .     D
C1027  O1029   1.398   .     S
O1029  H1030   1.014   .     S
C1031  O1033   1.398   .     S
C1031  O1032   1.223   .     D
O1033  H1034   1.014   .     S
N1035  H1037   1.042   .     S
N1035  H1036   1.046   .     S
N1038  H1040   1.042   .     S
N1038  H1039   1.046   .     S
N1041  H1042   1.045   .     S
N1041  H1043   1.042   .     S
N1044  H1046   1.042   .     S
N1044  H1045   1.045   .     S
C1047  O1048   1.221   .     D
C1047  O1049   1.395   .     S
O1049  H1050   1.014   .     S
C1051  O1052   1.221   .     D
C1051  O1053   1.395   .     S
O1053  H1054   1.014   .     S
C1055  O1075   1.307   .     A
C1055  C1066   1.474   .     S
C1055  O1077   1.298   .     A
C1056  O1076   1.307   .     A
C1056  C1065   1.474   .     S
C1056  O1078   1.298   .     A
C1057  O1081   1.297   .     A
C1057  C1059   1.437   .     S
C1057  O1079   1.286   .     A
C1058  O1080   1.286   .     A
C1058  C1060   1.437   .     S
C1058  O1082   1.297   .     A
C1060  C935    1.348   1_655 S
C1060  N962    1.439   1_655 S
C1061  C1066   1.420   .     A
C1061  C1089   1.492   .     S
C1062  C1093   1.492   .     S
C1062  C1065   1.420   .     A
C1062  C692    1.396   1_565 S
C1063  C1065   1.414   .     A
C1063  N1097   1.440   .     S
C1063  C689    1.396   1_565 S
C1064  N1100   1.440   .     S
C1064  C1066   1.414   .     A
C1067  N1103   1.431   .     S
C1067  N1074   1.364   .     A
C1068  N1106   1.431   .     S
C1068  N1073   1.364   .     A
C1068  C1628   1.427   .     S
C1069  N1073   1.382   .     A
C1069  C1109   1.477   .     S
C1069  C1625   1.427   .     S
C1070  N1074   1.382   .     A
C1070  C1113   1.477   .     S
Cu1071 O1079   1.967   .     S
Cu1071 Cu1072  2.697   .     S
Cu1071 N1073   2.027   .     S
Cu1071 O1078   1.980   .     S
Cu1071 O1082   1.962   .     S
Cu1071 O1075   1.972   .     S
Cu1072 O1080   1.967   .     S
Cu1072 O1076   1.972   .     S
Cu1072 N1074   2.027   .     S
Cu1072 O1077   1.980   .     S
Cu1072 O1081   1.962   .     S
N1083  H1084   1.043   .     S
N1083  C935    1.439   1_655 S
N1083  H961    1.046   1_655 S
N1086  H1087   1.043   .     S
H1088  N962    1.046   1_655 S
C1089  O1090   1.224   .     D
C1089  O1091   1.398   .     S
O1091  H1092   1.014   .     S
C1093  O1095   1.398   .     S
C1093  O1094   1.223   .     D
O1095  H1096   1.014   .     S
N1097  H1099   1.042   .     S
N1097  H1098   1.046   .     S
N1100  H1102   1.042   .     S
N1100  H1101   1.046   .     S
N1103  H1104   1.045   .     S
N1103  H1105   1.042   .     S
N1106  H1108   1.042   .     S
N1106  H1107   1.045   .     S
C1109  O1110   1.221   .     D
C1109  O1111   1.395   .     S
O1111  H1112   1.014   .     S
C1113  O1114   1.221   .     D
C1113  O1115   1.395   .     S
O1115  H1116   1.014   .     S
C1117  O1137   1.307   .     A
C1117  C1128   1.474   .     S
C1117  O1139   1.298   .     A
C1118  O1138   1.307   .     A
C1118  C1127   1.474   .     S
C1118  O1140   1.298   .     A
C1119  O1143   1.297   .     A
C1119  C1121   1.437   .     S
C1119  O1141   1.286   .     A
C1120  O1142   1.286   .     A
C1120  C1122   1.437   .     S
C1120  O1144   1.297   .     A
C1121  C1246   1.348   1_455 S
C1121  N1269   1.439   1_455 S
C1122  C1183   1.348   .     S
C1122  N1210   1.439   .     S
C1123  C1128   1.420   .     A
C1123  C1151   1.492   .     S
C1123  C1497   1.396   1_545 S
C1124  C1155   1.492   .     S
C1124  C1127   1.420   .     A
C1124  C1312   1.396   .     S
C1125  C1127   1.414   .     A
C1125  N1159   1.440   .     S
C1125  C1309   1.396   .     S
C1126  N1162   1.440   .     S
C1126  C1128   1.414   .     A
C1126  C1496   1.396   1_545 S
C1129  N1165   1.431   .     S
C1129  N1136   1.364   .     A
C1130  N1168   1.431   .     S
C1130  N1135   1.364   .     A
C1130  C16     1.427   1_556 S
C1131  N1135   1.382   .     A
C1131  C1171   1.477   .     S
C1131  C13     1.427   1_556 S
C1132  N1136   1.382   .     A
C1132  C1175   1.477   .     S
Cu1133 O1141   1.967   .     S
Cu1133 Cu1134  2.697   .     S
Cu1133 N1135   2.027   .     S
Cu1133 O1140   1.980   .     S
Cu1133 O1144   1.962   .     S
Cu1133 O1137   1.972   .     S
Cu1134 O1142   1.967   .     S
Cu1134 O1138   1.972   .     S
Cu1134 N1136   2.027   .     S
Cu1134 O1139   1.980   .     S
Cu1134 O1143   1.962   .     S
N1145  H1146   1.043   .     S
N1145  C1183   1.439   .     S
N1145  H1209   1.046   .     S
H1147  N1269   1.046   1_455 S
N1148  H1149   1.043   .     S
N1148  C1246   1.439   1_455 S
N1148  H1274   1.046   1_455 S
H1150  N1210   1.046   .     S
C1151  O1152   1.224   .     D
C1151  O1153   1.398   .     S
O1153  H1154   1.014   .     S
C1155  O1157   1.398   .     S
C1155  O1156   1.223   .     D
O1157  H1158   1.014   .     S
N1159  H1161   1.042   .     S
N1159  H1160   1.046   .     S
N1162  H1164   1.042   .     S
N1162  H1163   1.046   .     S
N1165  H1166   1.045   .     S
N1165  H1167   1.042   .     S
N1168  H1170   1.042   .     S
N1168  H1169   1.045   .     S
C1171  O1172   1.221   .     D
C1171  O1173   1.395   .     S
O1173  H1174   1.014   .     S
C1175  O1176   1.221   .     D
C1175  O1177   1.395   .     S
O1177  H1178   1.014   .     S
C1179  O1199   1.307   .     A
C1179  C1190   1.474   .     S
C1179  O1201   1.298   .     A
C1180  O1200   1.307   .     A
C1180  C1189   1.474   .     S
C1180  O1202   1.298   .     A
C1181  O1205   1.297   .     A
C1181  C1183   1.437   .     S
C1181  O1203   1.286   .     A
C1182  O1204   1.286   .     A
C1182  C1184   1.437   .     S
C1182  O1206   1.297   .     A
C1184  C1245   1.348   .     S
C1184  N1272   1.439   .     S
C1185  C1190   1.420   .     A
C1185  C1213   1.492   .     S
C1185  C1559   1.396   1_545 S
C1186  C1217   1.492   .     S
C1186  C1189   1.420   .     A
C1186  C1374   1.396   .     S
C1187  C1189   1.414   .     A
C1187  N1221   1.440   .     S
C1187  C1371   1.396   .     S
C1188  N1224   1.440   .     S
C1188  C1190   1.414   .     A
C1188  C1558   1.396   1_545 S
C1191  N1227   1.431   .     S
C1191  N1198   1.364   .     A
C1192  N1230   1.431   .     S
C1192  N1197   1.364   .     A
C1192  C78     1.427   1_556 S
C1193  N1197   1.382   .     A
C1193  C1233   1.477   .     S
C1193  C75     1.427   1_556 S
C1194  N1198   1.382   .     A
C1194  C1237   1.477   .     S
Cu1195 O1203   1.967   .     S
Cu1195 Cu1196  2.697   .     S
Cu1195 N1197   2.027   .     S
Cu1195 O1202   1.980   .     S
Cu1195 O1206   1.962   .     S
Cu1195 O1199   1.972   .     S
Cu1196 O1204   1.967   .     S
Cu1196 O1200   1.972   .     S
Cu1196 N1198   2.027   .     S
Cu1196 O1201   1.980   .     S
Cu1196 O1205   1.962   .     S
N1207  H1208   1.043   .     S
N1207  C1245   1.439   .     S
N1207  H1271   1.046   .     S
N1210  H1211   1.043   .     S
H1212  N1272   1.046   .     S
C1213  O1214   1.224   .     D
C1213  O1215   1.398   .     S
O1215  H1216   1.014   .     S
C1217  O1219   1.398   .     S
C1217  O1218   1.223   .     D
O1219  H1220   1.014   .     S
N1221  H1223   1.042   .     S
N1221  H1222   1.046   .     S
N1224  H1226   1.042   .     S
N1224  H1225   1.046   .     S
N1227  H1228   1.045   .     S
N1227  H1229   1.042   .     S
N1230  H1232   1.042   .     S
N1230  H1231   1.045   .     S
C1233  O1234   1.221   .     D
C1233  O1235   1.395   .     S
O1235  H1236   1.014   .     S
C1237  O1238   1.221   .     D
C1237  O1239   1.395   .     S
O1239  H1240   1.014   .     S
C1241  O1261   1.307   .     A
C1241  C1252   1.474   .     S
C1241  O1263   1.298   .     A
C1242  O1262   1.307   .     A
C1242  C1251   1.474   .     S
C1242  O1264   1.298   .     A
C1243  O1267   1.297   .     A
C1243  C1245   1.437   .     S
C1243  O1265   1.286   .     A
C1244  O1266   1.286   .     A
C1244  C1246   1.437   .     S
C1244  O1268   1.297   .     A
C1246  C1121   1.348   1_655 S
C1246  N1148   1.439   1_655 S
C1247  C1252   1.420   .     A
C1247  C1275   1.492   .     S
C1247  C1621   1.396   1_545 S
C1248  C1279   1.492   .     S
C1248  C1251   1.420   .     A
C1248  C1436   1.396   .     S
C1249  C1251   1.414   .     A
C1249  N1283   1.440   .     S
C1249  C1433   1.396   .     S
C1250  N1286   1.440   .     S
C1250  C1252   1.414   .     A
C1250  C1620   1.396   1_545 S
C1253  N1289   1.431   .     S
C1253  N1260   1.364   .     A
C1254  N1292   1.431   .     S
C1254  N1259   1.364   .     A
C1254  C140    1.427   1_556 S
C1255  N1259   1.382   .     A
C1255  C1295   1.477   .     S
C1255  C137    1.427   1_556 S
C1256  N1260   1.382   .     A
C1256  C1299   1.477   .     S
Cu1257 O1265   1.967   .     S
Cu1257 Cu1258  2.697   .     S
Cu1257 N1259   2.027   .     S
Cu1257 O1264   1.980   .     S
Cu1257 O1268   1.962   .     S
Cu1257 O1261   1.972   .     S
Cu1258 O1266   1.967   .     S
Cu1258 O1262   1.972   .     S
Cu1258 N1260   2.027   .     S
Cu1258 O1263   1.980   .     S
Cu1258 O1267   1.962   .     S
N1269  H1270   1.043   .     S
N1269  C1121   1.439   1_655 S
N1269  H1147   1.046   1_655 S
N1272  H1273   1.043   .     S
H1274  N1148   1.046   1_655 S
C1275  O1276   1.224   .     D
C1275  O1277   1.398   .     S
O1277  H1278   1.014   .     S
C1279  O1281   1.398   .     S
C1279  O1280   1.223   .     D
O1281  H1282   1.014   .     S
N1283  H1285   1.042   .     S
N1283  H1284   1.046   .     S
N1286  H1288   1.042   .     S
N1286  H1287   1.046   .     S
N1289  H1290   1.045   .     S
N1289  H1291   1.042   .     S
N1292  H1294   1.042   .     S
N1292  H1293   1.045   .     S
C1295  O1296   1.221   .     D
C1295  O1297   1.395   .     S
O1297  H1298   1.014   .     S
C1299  O1300   1.221   .     D
C1299  O1301   1.395   .     S
O1301  H1302   1.014   .     S
C1303  O1323   1.307   .     A
C1303  C1314   1.474   .     S
C1303  O1325   1.298   .     A
C1304  O1324   1.307   .     A
C1304  C1313   1.474   .     S
C1304  O1326   1.298   .     A
C1305  O1329   1.297   .     A
C1305  C1307   1.437   .     S
C1305  O1327   1.286   .     A
C1306  O1328   1.286   .     A
C1306  C1308   1.437   .     S
C1306  O1330   1.297   .     A
C1307  C1432   1.348   1_455 S
C1307  N1455   1.439   1_455 S
C1308  C1369   1.348   .     S
C1308  N1396   1.439   .     S
C1309  C1314   1.420   .     A
C1309  C1337   1.492   .     S
C1310  C1341   1.492   .     S
C1310  C1313   1.420   .     A
C1310  C1498   1.396   .     S
C1311  C1313   1.414   .     A
C1311  N1345   1.440   .     S
C1311  C1495   1.396   .     S
C1312  N1348   1.440   .     S
C1312  C1314   1.414   .     A
C1315  N1351   1.431   .     S
C1315  N1322   1.364   .     A
C1316  N1354   1.431   .     S
C1316  N1321   1.364   .     A
C1316  C202    1.427   1_556 S
C1317  N1321   1.382   .     A
C1317  C1357   1.477   .     S
C1317  C199    1.427   1_556 S
C1318  N1322   1.382   .     A
C1318  C1361   1.477   .     S
Cu1319 O1327   1.967   .     S
Cu1319 Cu1320  2.697   .     S
Cu1319 N1321   2.027   .     S
Cu1319 O1326   1.980   .     S
Cu1319 O1330   1.962   .     S
Cu1319 O1323   1.972   .     S
Cu1320 O1328   1.967   .     S
Cu1320 O1324   1.972   .     S
Cu1320 N1322   2.027   .     S
Cu1320 O1325   1.980   .     S
Cu1320 O1329   1.962   .     S
N1331  H1332   1.043   .     S
N1331  C1369   1.439   .     S
N1331  H1395   1.046   .     S
H1333  N1455   1.046   1_455 S
N1334  H1335   1.043   .     S
N1334  C1432   1.439   1_455 S
N1334  H1460   1.046   1_455 S
H1336  N1396   1.046   .     S
C1337  O1338   1.224   .     D
C1337  O1339   1.398   .     S
O1339  H1340   1.014   .     S
C1341  O1343   1.398   .     S
C1341  O1342   1.223   .     D
O1343  H1344   1.014   .     S
N1345  H1347   1.042   .     S
N1345  H1346   1.046   .     S
N1348  H1350   1.042   .     S
N1348  H1349   1.046   .     S
N1351  H1352   1.045   .     S
N1351  H1353   1.042   .     S
N1354  H1356   1.042   .     S
N1354  H1355   1.045   .     S
C1357  O1358   1.221   .     D
C1357  O1359   1.395   .     S
O1359  H1360   1.014   .     S
C1361  O1362   1.221   .     D
C1361  O1363   1.395   .     S
O1363  H1364   1.014   .     S
C1365  O1385   1.307   .     A
C1365  C1376   1.474   .     S
C1365  O1387   1.298   .     A
C1366  O1386   1.307   .     A
C1366  C1375   1.474   .     S
C1366  O1388   1.298   .     A
C1367  O1391   1.297   .     A
C1367  C1369   1.437   .     S
C1367  O1389   1.286   .     A
C1368  O1390   1.286   .     A
C1368  C1370   1.437   .     S
C1368  O1392   1.297   .     A
C1370  C1431   1.348   .     S
C1370  N1458   1.439   .     S
C1371  C1376   1.420   .     A
C1371  C1399   1.492   .     S
C1372  C1403   1.492   .     S
C1372  C1375   1.420   .     A
C1372  C1560   1.396   .     S
C1373  C1375   1.414   .     A
C1373  N1407   1.440   .     S
C1373  C1557   1.396   .     S
C1374  N1410   1.440   .     S
C1374  C1376   1.414   .     A
C1377  N1413   1.431   .     S
C1377  N1384   1.364   .     A
C1378  N1416   1.431   .     S
C1378  N1383   1.364   .     A
C1378  C264    1.427   1_556 S
C1379  N1383   1.382   .     A
C1379  C1419   1.477   .     S
C1379  C261    1.427   1_556 S
C1380  N1384   1.382   .     A
C1380  C1423   1.477   .     S
Cu1381 O1389   1.967   .     S
Cu1381 Cu1382  2.697   .     S
Cu1381 N1383   2.027   .     S
Cu1381 O1388   1.980   .     S
Cu1381 O1392   1.962   .     S
Cu1381 O1385   1.972   .     S
Cu1382 O1390   1.967   .     S
Cu1382 O1386   1.972   .     S
Cu1382 N1384   2.027   .     S
Cu1382 O1387   1.980   .     S
Cu1382 O1391   1.962   .     S
N1393  H1394   1.043   .     S
N1393  C1431   1.439   .     S
N1393  H1457   1.046   .     S
N1396  H1397   1.043   .     S
H1398  N1458   1.046   .     S
C1399  O1400   1.224   .     D
C1399  O1401   1.398   .     S
O1401  H1402   1.014   .     S
C1403  O1405   1.398   .     S
C1403  O1404   1.223   .     D
O1405  H1406   1.014   .     S
N1407  H1409   1.042   .     S
N1407  H1408   1.046   .     S
N1410  H1412   1.042   .     S
N1410  H1411   1.046   .     S
N1413  H1414   1.045   .     S
N1413  H1415   1.042   .     S
N1416  H1418   1.042   .     S
N1416  H1417   1.045   .     S
C1419  O1420   1.221   .     D
C1419  O1421   1.395   .     S
O1421  H1422   1.014   .     S
C1423  O1424   1.221   .     D
C1423  O1425   1.395   .     S
O1425  H1426   1.014   .     S
C1427  O1447   1.307   .     A
C1427  C1438   1.474   .     S
C1427  O1449   1.298   .     A
C1428  O1448   1.307   .     A
C1428  C1437   1.474   .     S
C1428  O1450   1.298   .     A
C1429  O1453   1.297   .     A
C1429  C1431   1.437   .     S
C1429  O1451   1.286   .     A
C1430  O1452   1.286   .     A
C1430  C1432   1.437   .     S
C1430  O1454   1.297   .     A
C1432  C1307   1.348   1_655 S
C1432  N1334   1.439   1_655 S
C1433  C1438   1.420   .     A
C1433  C1461   1.492   .     S
C1434  C1465   1.492   .     S
C1434  C1437   1.420   .     A
C1434  C1622   1.396   .     S
C1435  C1437   1.414   .     A
C1435  N1469   1.440   .     S
C1435  C1619   1.396   .     S
C1436  N1472   1.440   .     S
C1436  C1438   1.414   .     A
C1439  N1475   1.431   .     S
C1439  N1446   1.364   .     A
C1440  N1478   1.431   .     S
C1440  N1445   1.364   .     A
C1440  C326    1.427   1_556 S
C1441  N1445   1.382   .     A
C1441  C1481   1.477   .     S
C1441  C323    1.427   1_556 S
C1442  N1446   1.382   .     A
C1442  C1485   1.477   .     S
Cu1443 O1451   1.967   .     S
Cu1443 Cu1444  2.697   .     S
Cu1443 N1445   2.027   .     S
Cu1443 O1450   1.980   .     S
Cu1443 O1454   1.962   .     S
Cu1443 O1447   1.972   .     S
Cu1444 O1452   1.967   .     S
Cu1444 O1448   1.972   .     S
Cu1444 N1446   2.027   .     S
Cu1444 O1449   1.980   .     S
Cu1444 O1453   1.962   .     S
N1455  H1456   1.043   .     S
N1455  C1307   1.439   1_655 S
N1455  H1333   1.046   1_655 S
N1458  H1459   1.043   .     S
H1460  N1334   1.046   1_655 S
C1461  O1462   1.224   .     D
C1461  O1463   1.398   .     S
O1463  H1464   1.014   .     S
C1465  O1467   1.398   .     S
C1465  O1466   1.223   .     D
O1467  H1468   1.014   .     S
N1469  H1471   1.042   .     S
N1469  H1470   1.046   .     S
N1472  H1474   1.042   .     S
N1472  H1473   1.046   .     S
N1475  H1476   1.045   .     S
N1475  H1477   1.042   .     S
N1478  H1480   1.042   .     S
N1478  H1479   1.045   .     S
C1481  O1482   1.221   .     D
C1481  O1483   1.395   .     S
O1483  H1484   1.014   .     S
C1485  O1486   1.221   .     D
C1485  O1487   1.395   .     S
O1487  H1488   1.014   .     S
C1489  O1509   1.307   .     A
C1489  C1500   1.474   .     S
C1489  O1511   1.298   .     A
C1490  O1510   1.307   .     A
C1490  C1499   1.474   .     S
C1490  O1512   1.298   .     A
C1491  O1515   1.297   .     A
C1491  C1493   1.437   .     S
C1491  O1513   1.286   .     A
C1492  O1514   1.286   .     A
C1492  C1494   1.437   .     S
C1492  O1516   1.297   .     A
C1493  C1618   1.348   1_455 S
C1493  N1641   1.439   1_455 S
C1494  C1555   1.348   .     S
C1494  N1582   1.439   .     S
C1495  C1500   1.420   .     A
C1495  C1523   1.492   .     S
C1496  C1527   1.492   .     S
C1496  C1499   1.420   .     A
C1496  C1126   1.396   1_565 S
C1497  C1499   1.414   .     A
C1497  N1531   1.440   .     S
C1497  C1123   1.396   1_565 S
C1498  N1534   1.440   .     S
C1498  C1500   1.414   .     A
C1501  N1537   1.431   .     S
C1501  N1508   1.364   .     A
C1502  N1540   1.431   .     S
C1502  N1507   1.364   .     A
C1502  C388    1.427   1_556 S
C1503  N1507   1.382   .     A
C1503  C1543   1.477   .     S
C1503  C385    1.427   1_556 S
C1504  N1508   1.382   .     A
C1504  C1547   1.477   .     S
Cu1505 O1513   1.967   .     S
Cu1505 Cu1506  2.697   .     S
Cu1505 N1507   2.027   .     S
Cu1505 O1512   1.980   .     S
Cu1505 O1516   1.962   .     S
Cu1505 O1509   1.972   .     S
Cu1506 O1514   1.967   .     S
Cu1506 O1510   1.972   .     S
Cu1506 N1508   2.027   .     S
Cu1506 O1511   1.980   .     S
Cu1506 O1515   1.962   .     S
N1517  H1518   1.043   .     S
N1517  C1555   1.439   .     S
N1517  H1581   1.046   .     S
H1519  N1641   1.046   1_455 S
N1520  H1521   1.043   .     S
N1520  C1618   1.439   1_455 S
N1520  H1646   1.046   1_455 S
H1522  N1582   1.046   .     S
C1523  O1524   1.224   .     D
C1523  O1525   1.398   .     S
O1525  H1526   1.014   .     S
C1527  O1529   1.398   .     S
C1527  O1528   1.223   .     D
O1529  H1530   1.014   .     S
N1531  H1533   1.042   .     S
N1531  H1532   1.046   .     S
N1534  H1536   1.042   .     S
N1534  H1535   1.046   .     S
N1537  H1538   1.045   .     S
N1537  H1539   1.042   .     S
N1540  H1542   1.042   .     S
N1540  H1541   1.045   .     S
C1543  O1544   1.221   .     D
C1543  O1545   1.395   .     S
O1545  H1546   1.014   .     S
C1547  O1548   1.221   .     D
C1547  O1549   1.395   .     S
O1549  H1550   1.014   .     S
C1551  O1571   1.307   .     A
C1551  C1562   1.474   .     S
C1551  O1573   1.298   .     A
C1552  O1572   1.307   .     A
C1552  C1561   1.474   .     S
C1552  O1574   1.298   .     A
C1553  O1577   1.297   .     A
C1553  C1555   1.437   .     S
C1553  O1575   1.286   .     A
C1554  O1576   1.286   .     A
C1554  C1556   1.437   .     S
C1554  O1578   1.297   .     A
C1556  C1617   1.348   .     S
C1556  N1644   1.439   .     S
C1557  C1562   1.420   .     A
C1557  C1585   1.492   .     S
C1558  C1589   1.492   .     S
C1558  C1561   1.420   .     A
C1558  C1188   1.396   1_565 S
C1559  C1561   1.414   .     A
C1559  N1593   1.440   .     S
C1559  C1185   1.396   1_565 S
C1560  N1596   1.440   .     S
C1560  C1562   1.414   .     A
C1563  N1599   1.431   .     S
C1563  N1570   1.364   .     A
C1564  N1602   1.431   .     S
C1564  N1569   1.364   .     A
C1564  C450    1.427   1_556 S
C1565  N1569   1.382   .     A
C1565  C1605   1.477   .     S
C1565  C447    1.427   1_556 S
C1566  N1570   1.382   .     A
C1566  C1609   1.477   .     S
Cu1567 O1575   1.967   .     S
Cu1567 Cu1568  2.697   .     S
Cu1567 N1569   2.027   .     S
Cu1567 O1574   1.980   .     S
Cu1567 O1578   1.962   .     S
Cu1567 O1571   1.972   .     S
Cu1568 O1576   1.967   .     S
Cu1568 O1572   1.972   .     S
Cu1568 N1570   2.027   .     S
Cu1568 O1573   1.980   .     S
Cu1568 O1577   1.962   .     S
N1579  H1580   1.043   .     S
N1579  C1617   1.439   .     S
N1579  H1643   1.046   .     S
N1582  H1583   1.043   .     S
H1584  N1644   1.046   .     S
C1585  O1586   1.224   .     D
C1585  O1587   1.398   .     S
O1587  H1588   1.014   .     S
C1589  O1591   1.398   .     S
C1589  O1590   1.223   .     D
O1591  H1592   1.014   .     S
N1593  H1595   1.042   .     S
N1593  H1594   1.046   .     S
N1596  H1598   1.042   .     S
N1596  H1597   1.046   .     S
N1599  H1600   1.045   .     S
N1599  H1601   1.042   .     S
N1602  H1604   1.042   .     S
N1602  H1603   1.045   .     S
C1605  O1606   1.221   .     D
C1605  O1607   1.395   .     S
O1607  H1608   1.014   .     S
C1609  O1610   1.221   .     D
C1609  O1611   1.395   .     S
O1611  H1612   1.014   .     S
C1613  O1633   1.307   .     A
C1613  C1624   1.474   .     S
C1613  O1635   1.298   .     A
C1614  O1634   1.307   .     A
C1614  C1623   1.474   .     S
C1614  O1636   1.298   .     A
C1615  O1639   1.297   .     A
C1615  C1617   1.437   .     S
C1615  O1637   1.286   .     A
C1616  O1638   1.286   .     A
C1616  C1618   1.437   .     S
C1616  O1640   1.297   .     A
C1618  C1493   1.348   1_655 S
C1618  N1520   1.439   1_655 S
C1619  C1624   1.420   .     A
C1619  C1647   1.492   .     S
C1620  C1651   1.492   .     S
C1620  C1623   1.420   .     A
C1620  C1250   1.396   1_565 S
C1621  C1623   1.414   .     A
C1621  N1655   1.440   .     S
C1621  C1247   1.396   1_565 S
C1622  N1658   1.440   .     S
C1622  C1624   1.414   .     A
C1625  N1661   1.431   .     S
C1625  N1632   1.364   .     A
C1626  N1664   1.431   .     S
C1626  N1631   1.364   .     A
C1626  C512    1.427   1_556 S
C1627  N1631   1.382   .     A
C1627  C1667   1.477   .     S
C1627  C509    1.427   1_556 S
C1628  N1632   1.382   .     A
C1628  C1671   1.477   .     S
Cu1629 O1637   1.967   .     S
Cu1629 Cu1630  2.697   .     S
Cu1629 N1631   2.027   .     S
Cu1629 O1636   1.980   .     S
Cu1629 O1640   1.962   .     S
Cu1629 O1633   1.972   .     S
Cu1630 O1638   1.967   .     S
Cu1630 O1634   1.972   .     S
Cu1630 N1632   2.027   .     S
Cu1630 O1635   1.980   .     S
Cu1630 O1639   1.962   .     S
N1641  H1642   1.043   .     S
N1641  C1493   1.439   1_655 S
N1641  H1519   1.046   1_655 S
N1644  H1645   1.043   .     S
H1646  N1520   1.046   1_655 S
C1647  O1648   1.224   .     D
C1647  O1649   1.398   .     S
O1649  H1650   1.014   .     S
C1651  O1653   1.398   .     S
C1651  O1652   1.223   .     D
O1653  H1654   1.014   .     S
N1655  H1657   1.042   .     S
N1655  H1656   1.046   .     S
N1658  H1660   1.042   .     S
N1658  H1659   1.046   .     S
N1661  H1662   1.045   .     S
N1661  H1663   1.042   .     S
N1664  H1666   1.042   .     S
N1664  H1665   1.045   .     S
C1667  O1668   1.221   .     D
C1667  O1669   1.395   .     S
O1669  H1670   1.014   .     S
C1671  O1672   1.221   .     D
C1671  O1673   1.395   .     S
O1673  H1674   1.014   .     S
