data_str_m2_o1_o1_pcu_sym.45
_audit_creation_date              2020-01-03
_audit_creation_method            'Materials Studio'
_symmetry_space_group_name_H-M    'P1'
_symmetry_Int_Tables_number       1
_symmetry_cell_setting            triclinic
loop_
_symmetry_equiv_pos_as_xyz
  x,y,z
_cell_length_a                    31.0118
_cell_length_b                    30.2445
_cell_length_c                    28.7441
_cell_angle_alpha                 90.0000
_cell_angle_beta                  90.0000
_cell_angle_gamma                 90.0000
loop_
_atom_site_label
_atom_site_type_symbol
_atom_site_fract_x
_atom_site_fract_y
_atom_site_fract_z
_atom_site_U_iso_or_equiv
_atom_site_adp_type
_atom_site_occupancy
C1     C     0.05940   0.19053   0.16667   0.00000  Uiso   1.00
C2     C     0.00000   0.28893   0.30853   0.00000  Uiso   1.00
C3     C     0.00000   0.28893   0.02481   0.00000  Uiso   1.00
C4     C     0.00000   0.21107   0.30853   0.00000  Uiso   1.00
C5     C     0.25000   0.46107   0.02481   0.00000  Uiso   1.00
C6     C     0.25000   0.03893   0.30853   0.00000  Uiso   1.00
C7     C     0.25000   0.03893   0.02481   0.00000  Uiso   1.00
C8     C     0.25000   0.46107   0.30853   0.00000  Uiso   1.00
C9     C     0.39098   0.14096   0.12439   0.00000  Uiso   1.00
C10    C     0.10902   0.35904   0.20894   0.00000  Uiso   1.00
C11    C     0.10902   0.35904   0.12439   0.00000  Uiso   1.00
C12    C     0.44060   0.30947   0.16667   0.00000  Uiso   1.00
C13    C     0.39098   0.14096   0.20894   0.00000  Uiso   1.00
C14    C     0.10902   0.14096   0.20894   0.00000  Uiso   1.00
C15    C     0.39098   0.35904   0.12439   0.00000  Uiso   1.00
C16    C     0.39098   0.35904   0.20894   0.00000  Uiso   1.00
C17    C     0.10902   0.14096   0.12439   0.00000  Uiso   1.00
C18    C     0.14098   0.39096   0.12439   0.00000  Uiso   1.00
C19    C     0.35902   0.10904   0.20894   0.00000  Uiso   1.00
C20    C     0.35902   0.10904   0.12439   0.00000  Uiso   1.00
C21    C     0.14098   0.39096   0.20894   0.00000  Uiso   1.00
C22    C     0.35902   0.39096   0.20894   0.00000  Uiso   1.00
C23    C     0.44060   0.19053   0.16667   0.00000  Uiso   1.00
C24    C     0.14098   0.10904   0.12439   0.00000  Uiso   1.00
C25    C     0.14098   0.10904   0.20894   0.00000  Uiso   1.00
C26    C     0.35902   0.39096   0.12439   0.00000  Uiso   1.00
C27    C     0.09289   0.34295   0.16667   0.00000  Uiso   1.00
C28    C     0.40711   0.15705   0.16667   0.00000  Uiso   1.00
C29    C     0.40711   0.34295   0.16667   0.00000  Uiso   1.00
C30    C     0.09289   0.15705   0.16667   0.00000  Uiso   1.00
C31    C     0.34289   0.09295   0.16667   0.00000  Uiso   1.00
C32    C     0.15711   0.40705   0.16667   0.00000  Uiso   1.00
C33    C     0.15711   0.09295   0.16667   0.00000  Uiso   1.00
C34    C     0.05940   0.30947   0.16667   0.00000  Uiso   1.00
C35    C     0.34289   0.40705   0.16667   0.00000  Uiso   1.00
C36    C     0.00000   0.16946   0.04947   0.00000  Uiso   1.00
C37    C     0.00000   0.33054   0.28387   0.00000  Uiso   1.00
C38    C     0.00000   0.33054   0.04947   0.00000  Uiso   1.00
C39    C     0.00000   0.16946   0.28387   0.00000  Uiso   1.00
C40    C     0.25000   0.41946   0.04947   0.00000  Uiso   1.00
C41    C     0.25000   0.08054   0.28387   0.00000  Uiso   1.00
C42    C     0.25000   0.08054   0.04947   0.00000  Uiso   1.00
C43    C     0.25000   0.41946   0.28387   0.00000  Uiso   1.00
C44    C     0.30940   0.44053   0.16667   0.00000  Uiso   1.00
C45    C     0.19060   0.05947   0.16667   0.00000  Uiso   1.00
C46    C     0.19060   0.44053   0.16667   0.00000  Uiso   1.00
C47    C     0.30940   0.05947   0.16667   0.00000  Uiso   1.00
C48    C     0.00000   0.21107   0.02481   0.00000  Uiso   1.00
Cu49   Cu    0.00000   0.25000   0.21355   0.00000  Uiso   1.00
Cu50   Cu    0.00000   0.25000   0.11978   0.00000  Uiso   1.00
Cu51   Cu    0.25000   0.00000   0.21355   0.00000  Uiso   1.00
Cu52   Cu    0.25000   0.00000   0.11978   0.00000  Uiso   1.00
H53    H     0.40296   0.15297   0.09133   0.00000  Uiso   1.00
H54    H     0.34704   0.09704   0.24200   0.00000  Uiso   1.00
H55    H     0.34704   0.09704   0.09133   0.00000  Uiso   1.00
H56    H     0.15296   0.40296   0.24200   0.00000  Uiso   1.00
H57    H     0.34704   0.40297   0.24200   0.00000  Uiso   1.00
H58    H     0.15296   0.09704   0.09133   0.00000  Uiso   1.00
H59    H     0.15296   0.09704   0.24200   0.00000  Uiso   1.00
H60    H     0.34704   0.40296   0.09133   0.00000  Uiso   1.00
H61    H     0.09704   0.34703   0.24200   0.00000  Uiso   1.00
H62    H     0.09704   0.34704   0.09133   0.00000  Uiso   1.00
H63    H     0.40296   0.15296   0.24200   0.00000  Uiso   1.00
H64    H     0.09704   0.15297   0.24200   0.00000  Uiso   1.00
H65    H     0.40296   0.34704   0.09133   0.00000  Uiso   1.00
H66    H     0.40296   0.34704   0.24200   0.00000  Uiso   1.00
H67    H     0.09704   0.15297   0.09133   0.00000  Uiso   1.00
H68    H     0.15296   0.40297   0.09133   0.00000  Uiso   1.00
N69    N     0.00000   0.25000   0.28402   0.00000  Uiso   1.00
N70    N     0.25000   0.11410   0.26448   0.00000  Uiso   1.00
N71    N     0.25000   0.11410   0.06885   0.00000  Uiso   1.00
N72    N     0.25000   0.38590   0.26448   0.00000  Uiso   1.00
N73    N     0.00000   0.25000   0.04931   0.00000  Uiso   1.00
N74    N     0.25000   0.00000   0.28402   0.00000  Uiso   1.00
N75    N     0.25000   0.00000   0.04931   0.00000  Uiso   1.00
N76    N     0.00000   0.13590   0.06885   0.00000  Uiso   1.00
N77    N     0.00000   0.36410   0.26448   0.00000  Uiso   1.00
N78    N     0.00000   0.36410   0.06885   0.00000  Uiso   1.00
N79    N     0.00000   0.13590   0.26448   0.00000  Uiso   1.00
N80    N     0.25000   0.38590   0.06885   0.00000  Uiso   1.00
O81    O     0.04508   0.20491   0.20625   0.00000  Uiso   1.00
O82    O     0.20491   0.04509   0.12709   0.00000  Uiso   1.00
O83    O     0.20491   0.04509   0.20625   0.00000  Uiso   1.00
O84    O     0.29508   0.45491   0.12709   0.00000  Uiso   1.00
O85    O     0.20491   0.45491   0.12709   0.00000  Uiso   1.00
O86    O     0.29508   0.04509   0.20625   0.00000  Uiso   1.00
O87    O     0.29508   0.04509   0.12709   0.00000  Uiso   1.00
O88    O     0.20491   0.45491   0.20625   0.00000  Uiso   1.00
O89    O     0.45491   0.29509   0.12709   0.00000  Uiso   1.00
O90    O     0.45491   0.29509   0.20625   0.00000  Uiso   1.00
O91    O     0.04508   0.20491   0.12709   0.00000  Uiso   1.00
O92    O     0.45491   0.20491   0.12709   0.00000  Uiso   1.00
O93    O     0.04508   0.29509   0.20625   0.00000  Uiso   1.00
O94    O     0.04508   0.29509   0.12709   0.00000  Uiso   1.00
O95    O     0.45491   0.20491   0.20625   0.00000  Uiso   1.00
O96    O     0.29508   0.45491   0.20625   0.00000  Uiso   1.00
C97    C     0.55940   0.19053   0.16667   0.00000  Uiso   1.00
C98    C     0.50000   0.28893   0.30853   0.00000  Uiso   1.00
C99    C     0.50000   0.28893   0.02481   0.00000  Uiso   1.00
C100   C     0.50000   0.21107   0.30853   0.00000  Uiso   1.00
C101   C     0.75000   0.46107   0.02481   0.00000  Uiso   1.00
C102   C     0.75000   0.03893   0.30853   0.00000  Uiso   1.00
C103   C     0.75000   0.03893   0.02481   0.00000  Uiso   1.00
C104   C     0.75000   0.46107   0.30853   0.00000  Uiso   1.00
C105   C     0.89098   0.14096   0.12439   0.00000  Uiso   1.00
C106   C     0.60902   0.35904   0.20894   0.00000  Uiso   1.00
C107   C     0.60902   0.35904   0.12439   0.00000  Uiso   1.00
C108   C     0.94060   0.30947   0.16667   0.00000  Uiso   1.00
C109   C     0.89098   0.14096   0.20894   0.00000  Uiso   1.00
C110   C     0.60902   0.14096   0.20894   0.00000  Uiso   1.00
C111   C     0.89098   0.35904   0.12439   0.00000  Uiso   1.00
C112   C     0.89098   0.35904   0.20894   0.00000  Uiso   1.00
C113   C     0.60902   0.14096   0.12439   0.00000  Uiso   1.00
C114   C     0.64098   0.39096   0.12439   0.00000  Uiso   1.00
C115   C     0.85902   0.10904   0.20894   0.00000  Uiso   1.00
C116   C     0.85902   0.10904   0.12439   0.00000  Uiso   1.00
C117   C     0.64098   0.39096   0.20894   0.00000  Uiso   1.00
C118   C     0.85902   0.39096   0.20894   0.00000  Uiso   1.00
C119   C     0.94060   0.19053   0.16667   0.00000  Uiso   1.00
C120   C     0.64098   0.10904   0.12439   0.00000  Uiso   1.00
C121   C     0.64098   0.10904   0.20894   0.00000  Uiso   1.00
C122   C     0.85902   0.39096   0.12439   0.00000  Uiso   1.00
C123   C     0.59289   0.34295   0.16667   0.00000  Uiso   1.00
C124   C     0.90711   0.15705   0.16667   0.00000  Uiso   1.00
C125   C     0.90711   0.34295   0.16667   0.00000  Uiso   1.00
C126   C     0.59289   0.15705   0.16667   0.00000  Uiso   1.00
C127   C     0.84289   0.09295   0.16667   0.00000  Uiso   1.00
C128   C     0.65711   0.40705   0.16667   0.00000  Uiso   1.00
C129   C     0.65711   0.09295   0.16667   0.00000  Uiso   1.00
C130   C     0.55940   0.30947   0.16667   0.00000  Uiso   1.00
C131   C     0.84289   0.40705   0.16667   0.00000  Uiso   1.00
C132   C     0.50000   0.16946   0.04947   0.00000  Uiso   1.00
C133   C     0.50000   0.33054   0.28387   0.00000  Uiso   1.00
C134   C     0.50000   0.33054   0.04947   0.00000  Uiso   1.00
C135   C     0.50000   0.16946   0.28387   0.00000  Uiso   1.00
C136   C     0.75000   0.41946   0.04947   0.00000  Uiso   1.00
C137   C     0.75000   0.08054   0.28387   0.00000  Uiso   1.00
C138   C     0.75000   0.08054   0.04947   0.00000  Uiso   1.00
C139   C     0.75000   0.41946   0.28387   0.00000  Uiso   1.00
C140   C     0.80940   0.44053   0.16667   0.00000  Uiso   1.00
C141   C     0.69060   0.05947   0.16667   0.00000  Uiso   1.00
C142   C     0.69060   0.44053   0.16667   0.00000  Uiso   1.00
C143   C     0.80940   0.05947   0.16667   0.00000  Uiso   1.00
C144   C     0.50000   0.21107   0.02481   0.00000  Uiso   1.00
Cu145  Cu    0.50000   0.25000   0.21355   0.00000  Uiso   1.00
Cu146  Cu    0.50000   0.25000   0.11978   0.00000  Uiso   1.00
Cu147  Cu    0.75000   0.00000   0.21355   0.00000  Uiso   1.00
Cu148  Cu    0.75000   0.00000   0.11978   0.00000  Uiso   1.00
H149   H     0.90296   0.15297   0.09133   0.00000  Uiso   1.00
H150   H     0.84704   0.09704   0.24200   0.00000  Uiso   1.00
H151   H     0.84704   0.09704   0.09133   0.00000  Uiso   1.00
H152   H     0.65296   0.40296   0.24200   0.00000  Uiso   1.00
H153   H     0.84704   0.40297   0.24200   0.00000  Uiso   1.00
H154   H     0.65296   0.09704   0.09133   0.00000  Uiso   1.00
H155   H     0.65296   0.09704   0.24200   0.00000  Uiso   1.00
H156   H     0.84704   0.40296   0.09133   0.00000  Uiso   1.00
H157   H     0.59704   0.34703   0.24200   0.00000  Uiso   1.00
H158   H     0.59704   0.34704   0.09133   0.00000  Uiso   1.00
H159   H     0.90296   0.15296   0.24200   0.00000  Uiso   1.00
H160   H     0.59704   0.15297   0.24200   0.00000  Uiso   1.00
H161   H     0.90296   0.34704   0.09133   0.00000  Uiso   1.00
H162   H     0.90296   0.34704   0.24200   0.00000  Uiso   1.00
H163   H     0.59704   0.15297   0.09133   0.00000  Uiso   1.00
H164   H     0.65296   0.40297   0.09133   0.00000  Uiso   1.00
N165   N     0.50000   0.25000   0.28402   0.00000  Uiso   1.00
N166   N     0.75000   0.11410   0.26448   0.00000  Uiso   1.00
N167   N     0.75000   0.11410   0.06885   0.00000  Uiso   1.00
N168   N     0.75000   0.38590   0.26448   0.00000  Uiso   1.00
N169   N     0.50000   0.25000   0.04931   0.00000  Uiso   1.00
N170   N     0.75000   0.00000   0.28402   0.00000  Uiso   1.00
N171   N     0.75000   0.00000   0.04931   0.00000  Uiso   1.00
N172   N     0.50000   0.13590   0.06885   0.00000  Uiso   1.00
N173   N     0.50000   0.36410   0.26448   0.00000  Uiso   1.00
N174   N     0.50000   0.36410   0.06885   0.00000  Uiso   1.00
N175   N     0.50000   0.13590   0.26448   0.00000  Uiso   1.00
N176   N     0.75000   0.38590   0.06885   0.00000  Uiso   1.00
O177   O     0.54508   0.20491   0.20625   0.00000  Uiso   1.00
O178   O     0.70491   0.04509   0.12709   0.00000  Uiso   1.00
O179   O     0.70491   0.04509   0.20625   0.00000  Uiso   1.00
O180   O     0.79508   0.45491   0.12709   0.00000  Uiso   1.00
O181   O     0.70491   0.45491   0.12709   0.00000  Uiso   1.00
O182   O     0.79508   0.04509   0.20625   0.00000  Uiso   1.00
O183   O     0.79508   0.04509   0.12709   0.00000  Uiso   1.00
O184   O     0.70491   0.45491   0.20625   0.00000  Uiso   1.00
O185   O     0.95491   0.29509   0.12709   0.00000  Uiso   1.00
O186   O     0.95491   0.29509   0.20625   0.00000  Uiso   1.00
O187   O     0.54508   0.20491   0.12709   0.00000  Uiso   1.00
O188   O     0.95491   0.20491   0.12709   0.00000  Uiso   1.00
O189   O     0.54508   0.29509   0.20625   0.00000  Uiso   1.00
O190   O     0.54508   0.29509   0.12709   0.00000  Uiso   1.00
O191   O     0.95491   0.20491   0.20625   0.00000  Uiso   1.00
O192   O     0.79508   0.45491   0.20625   0.00000  Uiso   1.00
C193   C     0.05940   0.69053   0.16667   0.00000  Uiso   1.00
C194   C     0.00000   0.78893   0.30853   0.00000  Uiso   1.00
C195   C     0.00000   0.78893   0.02481   0.00000  Uiso   1.00
C196   C     0.00000   0.71107   0.30853   0.00000  Uiso   1.00
C197   C     0.25000   0.96107   0.02481   0.00000  Uiso   1.00
C198   C     0.25000   0.53893   0.30853   0.00000  Uiso   1.00
C199   C     0.25000   0.53893   0.02481   0.00000  Uiso   1.00
C200   C     0.25000   0.96107   0.30853   0.00000  Uiso   1.00
C201   C     0.39098   0.64096   0.12439   0.00000  Uiso   1.00
C202   C     0.10902   0.85904   0.20894   0.00000  Uiso   1.00
C203   C     0.10902   0.85904   0.12439   0.00000  Uiso   1.00
C204   C     0.44060   0.80947   0.16667   0.00000  Uiso   1.00
C205   C     0.39098   0.64096   0.20894   0.00000  Uiso   1.00
C206   C     0.10902   0.64096   0.20894   0.00000  Uiso   1.00
C207   C     0.39098   0.85904   0.12439   0.00000  Uiso   1.00
C208   C     0.39098   0.85904   0.20894   0.00000  Uiso   1.00
C209   C     0.10902   0.64096   0.12439   0.00000  Uiso   1.00
C210   C     0.14098   0.89096   0.12439   0.00000  Uiso   1.00
C211   C     0.35902   0.60904   0.20894   0.00000  Uiso   1.00
C212   C     0.35902   0.60904   0.12439   0.00000  Uiso   1.00
C213   C     0.14098   0.89096   0.20894   0.00000  Uiso   1.00
C214   C     0.35902   0.89096   0.20894   0.00000  Uiso   1.00
C215   C     0.44060   0.69053   0.16667   0.00000  Uiso   1.00
C216   C     0.14098   0.60904   0.12439   0.00000  Uiso   1.00
C217   C     0.14098   0.60904   0.20894   0.00000  Uiso   1.00
C218   C     0.35902   0.89096   0.12439   0.00000  Uiso   1.00
C219   C     0.09289   0.84295   0.16667   0.00000  Uiso   1.00
C220   C     0.40711   0.65705   0.16667   0.00000  Uiso   1.00
C221   C     0.40711   0.84295   0.16667   0.00000  Uiso   1.00
C222   C     0.09289   0.65705   0.16667   0.00000  Uiso   1.00
C223   C     0.34289   0.59295   0.16667   0.00000  Uiso   1.00
C224   C     0.15711   0.90705   0.16667   0.00000  Uiso   1.00
C225   C     0.15711   0.59295   0.16667   0.00000  Uiso   1.00
C226   C     0.05940   0.80947   0.16667   0.00000  Uiso   1.00
C227   C     0.34289   0.90705   0.16667   0.00000  Uiso   1.00
C228   C     0.00000   0.66946   0.04947   0.00000  Uiso   1.00
C229   C     0.00000   0.83054   0.28387   0.00000  Uiso   1.00
C230   C     0.00000   0.83054   0.04947   0.00000  Uiso   1.00
C231   C     0.00000   0.66946   0.28387   0.00000  Uiso   1.00
C232   C     0.25000   0.91946   0.04947   0.00000  Uiso   1.00
C233   C     0.25000   0.58054   0.28387   0.00000  Uiso   1.00
C234   C     0.25000   0.58054   0.04947   0.00000  Uiso   1.00
C235   C     0.25000   0.91946   0.28387   0.00000  Uiso   1.00
C236   C     0.30940   0.94053   0.16667   0.00000  Uiso   1.00
C237   C     0.19060   0.55947   0.16667   0.00000  Uiso   1.00
C238   C     0.19060   0.94053   0.16667   0.00000  Uiso   1.00
C239   C     0.30940   0.55947   0.16667   0.00000  Uiso   1.00
C240   C     0.00000   0.71107   0.02481   0.00000  Uiso   1.00
Cu241  Cu    0.00000   0.75000   0.21355   0.00000  Uiso   1.00
Cu242  Cu    0.00000   0.75000   0.11978   0.00000  Uiso   1.00
Cu243  Cu    0.25000   0.50000   0.21355   0.00000  Uiso   1.00
Cu244  Cu    0.25000   0.50000   0.11978   0.00000  Uiso   1.00
H245   H     0.40296   0.65297   0.09133   0.00000  Uiso   1.00
H246   H     0.34704   0.59704   0.24200   0.00000  Uiso   1.00
H247   H     0.34704   0.59704   0.09133   0.00000  Uiso   1.00
H248   H     0.15296   0.90296   0.24200   0.00000  Uiso   1.00
H249   H     0.34704   0.90297   0.24200   0.00000  Uiso   1.00
H250   H     0.15296   0.59704   0.09133   0.00000  Uiso   1.00
H251   H     0.15296   0.59704   0.24200   0.00000  Uiso   1.00
H252   H     0.34704   0.90296   0.09133   0.00000  Uiso   1.00
H253   H     0.09704   0.84703   0.24200   0.00000  Uiso   1.00
H254   H     0.09704   0.84704   0.09133   0.00000  Uiso   1.00
H255   H     0.40296   0.65296   0.24200   0.00000  Uiso   1.00
H256   H     0.09704   0.65297   0.24200   0.00000  Uiso   1.00
H257   H     0.40296   0.84704   0.09133   0.00000  Uiso   1.00
H258   H     0.40296   0.84704   0.24200   0.00000  Uiso   1.00
H259   H     0.09704   0.65297   0.09133   0.00000  Uiso   1.00
H260   H     0.15296   0.90297   0.09133   0.00000  Uiso   1.00
N261   N     0.00000   0.75000   0.28402   0.00000  Uiso   1.00
N262   N     0.25000   0.61410   0.26448   0.00000  Uiso   1.00
N263   N     0.25000   0.61410   0.06885   0.00000  Uiso   1.00
N264   N     0.25000   0.88590   0.26448   0.00000  Uiso   1.00
N265   N     0.00000   0.75000   0.04931   0.00000  Uiso   1.00
N266   N     0.25000   0.50000   0.28402   0.00000  Uiso   1.00
N267   N     0.25000   0.50000   0.04931   0.00000  Uiso   1.00
N268   N     0.00000   0.63590   0.06885   0.00000  Uiso   1.00
N269   N     0.00000   0.86410   0.26448   0.00000  Uiso   1.00
N270   N     0.00000   0.86410   0.06885   0.00000  Uiso   1.00
N271   N     0.00000   0.63590   0.26448   0.00000  Uiso   1.00
N272   N     0.25000   0.88590   0.06885   0.00000  Uiso   1.00
O273   O     0.04508   0.70491   0.20625   0.00000  Uiso   1.00
O274   O     0.20491   0.54509   0.12709   0.00000  Uiso   1.00
O275   O     0.20491   0.54509   0.20625   0.00000  Uiso   1.00
O276   O     0.29508   0.95491   0.12709   0.00000  Uiso   1.00
O277   O     0.20491   0.95491   0.12709   0.00000  Uiso   1.00
O278   O     0.29508   0.54509   0.20625   0.00000  Uiso   1.00
O279   O     0.29508   0.54509   0.12709   0.00000  Uiso   1.00
O280   O     0.20491   0.95491   0.20625   0.00000  Uiso   1.00
O281   O     0.45491   0.79509   0.12709   0.00000  Uiso   1.00
O282   O     0.45491   0.79509   0.20625   0.00000  Uiso   1.00
O283   O     0.04508   0.70491   0.12709   0.00000  Uiso   1.00
O284   O     0.45491   0.70491   0.12709   0.00000  Uiso   1.00
O285   O     0.04508   0.79509   0.20625   0.00000  Uiso   1.00
O286   O     0.04508   0.79509   0.12709   0.00000  Uiso   1.00
O287   O     0.45491   0.70491   0.20625   0.00000  Uiso   1.00
O288   O     0.29508   0.95491   0.20625   0.00000  Uiso   1.00
C289   C     0.55940   0.69053   0.16667   0.00000  Uiso   1.00
C290   C     0.50000   0.78893   0.30853   0.00000  Uiso   1.00
C291   C     0.50000   0.78893   0.02481   0.00000  Uiso   1.00
C292   C     0.50000   0.71107   0.30853   0.00000  Uiso   1.00
C293   C     0.75000   0.96107   0.02481   0.00000  Uiso   1.00
C294   C     0.75000   0.53893   0.30853   0.00000  Uiso   1.00
C295   C     0.75000   0.53893   0.02481   0.00000  Uiso   1.00
C296   C     0.75000   0.96107   0.30853   0.00000  Uiso   1.00
C297   C     0.89098   0.64096   0.12439   0.00000  Uiso   1.00
C298   C     0.60902   0.85904   0.20894   0.00000  Uiso   1.00
C299   C     0.60902   0.85904   0.12439   0.00000  Uiso   1.00
C300   C     0.94060   0.80947   0.16667   0.00000  Uiso   1.00
C301   C     0.89098   0.64096   0.20894   0.00000  Uiso   1.00
C302   C     0.60902   0.64096   0.20894   0.00000  Uiso   1.00
C303   C     0.89098   0.85904   0.12439   0.00000  Uiso   1.00
C304   C     0.89098   0.85904   0.20894   0.00000  Uiso   1.00
C305   C     0.60902   0.64096   0.12439   0.00000  Uiso   1.00
C306   C     0.64098   0.89096   0.12439   0.00000  Uiso   1.00
C307   C     0.85902   0.60904   0.20894   0.00000  Uiso   1.00
C308   C     0.85902   0.60904   0.12439   0.00000  Uiso   1.00
C309   C     0.64098   0.89096   0.20894   0.00000  Uiso   1.00
C310   C     0.85902   0.89096   0.20894   0.00000  Uiso   1.00
C311   C     0.94060   0.69053   0.16667   0.00000  Uiso   1.00
C312   C     0.64098   0.60904   0.12439   0.00000  Uiso   1.00
C313   C     0.64098   0.60904   0.20894   0.00000  Uiso   1.00
C314   C     0.85902   0.89096   0.12439   0.00000  Uiso   1.00
C315   C     0.59289   0.84295   0.16667   0.00000  Uiso   1.00
C316   C     0.90711   0.65705   0.16667   0.00000  Uiso   1.00
C317   C     0.90711   0.84295   0.16667   0.00000  Uiso   1.00
C318   C     0.59289   0.65705   0.16667   0.00000  Uiso   1.00
C319   C     0.84289   0.59295   0.16667   0.00000  Uiso   1.00
C320   C     0.65711   0.90705   0.16667   0.00000  Uiso   1.00
C321   C     0.65711   0.59295   0.16667   0.00000  Uiso   1.00
C322   C     0.55940   0.80947   0.16667   0.00000  Uiso   1.00
C323   C     0.84289   0.90705   0.16667   0.00000  Uiso   1.00
C324   C     0.50000   0.66946   0.04947   0.00000  Uiso   1.00
C325   C     0.50000   0.83054   0.28387   0.00000  Uiso   1.00
C326   C     0.50000   0.83054   0.04947   0.00000  Uiso   1.00
C327   C     0.50000   0.66946   0.28387   0.00000  Uiso   1.00
C328   C     0.75000   0.91946   0.04947   0.00000  Uiso   1.00
C329   C     0.75000   0.58054   0.28387   0.00000  Uiso   1.00
C330   C     0.75000   0.58054   0.04947   0.00000  Uiso   1.00
C331   C     0.75000   0.91946   0.28387   0.00000  Uiso   1.00
C332   C     0.80940   0.94053   0.16667   0.00000  Uiso   1.00
C333   C     0.69060   0.55947   0.16667   0.00000  Uiso   1.00
C334   C     0.69060   0.94053   0.16667   0.00000  Uiso   1.00
C335   C     0.80940   0.55947   0.16667   0.00000  Uiso   1.00
C336   C     0.50000   0.71107   0.02481   0.00000  Uiso   1.00
Cu337  Cu    0.50000   0.75000   0.21355   0.00000  Uiso   1.00
Cu338  Cu    0.50000   0.75000   0.11978   0.00000  Uiso   1.00
Cu339  Cu    0.75000   0.50000   0.21355   0.00000  Uiso   1.00
Cu340  Cu    0.75000   0.50000   0.11978   0.00000  Uiso   1.00
H341   H     0.90296   0.65297   0.09133   0.00000  Uiso   1.00
H342   H     0.84704   0.59704   0.24200   0.00000  Uiso   1.00
H343   H     0.84704   0.59704   0.09133   0.00000  Uiso   1.00
H344   H     0.65296   0.90296   0.24200   0.00000  Uiso   1.00
H345   H     0.84704   0.90297   0.24200   0.00000  Uiso   1.00
H346   H     0.65296   0.59704   0.09133   0.00000  Uiso   1.00
H347   H     0.65296   0.59704   0.24200   0.00000  Uiso   1.00
H348   H     0.84704   0.90296   0.09133   0.00000  Uiso   1.00
H349   H     0.59704   0.84703   0.24200   0.00000  Uiso   1.00
H350   H     0.59704   0.84704   0.09133   0.00000  Uiso   1.00
H351   H     0.90296   0.65296   0.24200   0.00000  Uiso   1.00
H352   H     0.59704   0.65297   0.24200   0.00000  Uiso   1.00
H353   H     0.90296   0.84704   0.09133   0.00000  Uiso   1.00
H354   H     0.90296   0.84704   0.24200   0.00000  Uiso   1.00
H355   H     0.59704   0.65297   0.09133   0.00000  Uiso   1.00
H356   H     0.65296   0.90297   0.09133   0.00000  Uiso   1.00
N357   N     0.50000   0.75000   0.28402   0.00000  Uiso   1.00
N358   N     0.75000   0.61410   0.26448   0.00000  Uiso   1.00
N359   N     0.75000   0.61410   0.06885   0.00000  Uiso   1.00
N360   N     0.75000   0.88590   0.26448   0.00000  Uiso   1.00
N361   N     0.50000   0.75000   0.04931   0.00000  Uiso   1.00
N362   N     0.75000   0.50000   0.28402   0.00000  Uiso   1.00
N363   N     0.75000   0.50000   0.04931   0.00000  Uiso   1.00
N364   N     0.50000   0.63590   0.06885   0.00000  Uiso   1.00
N365   N     0.50000   0.86410   0.26448   0.00000  Uiso   1.00
N366   N     0.50000   0.86410   0.06885   0.00000  Uiso   1.00
N367   N     0.50000   0.63590   0.26448   0.00000  Uiso   1.00
N368   N     0.75000   0.88590   0.06885   0.00000  Uiso   1.00
O369   O     0.54508   0.70491   0.20625   0.00000  Uiso   1.00
O370   O     0.70491   0.54509   0.12709   0.00000  Uiso   1.00
O371   O     0.70491   0.54509   0.20625   0.00000  Uiso   1.00
O372   O     0.79508   0.95491   0.12709   0.00000  Uiso   1.00
O373   O     0.70491   0.95491   0.12709   0.00000  Uiso   1.00
O374   O     0.79508   0.54509   0.20625   0.00000  Uiso   1.00
O375   O     0.79508   0.54509   0.12709   0.00000  Uiso   1.00
O376   O     0.70491   0.95491   0.20625   0.00000  Uiso   1.00
O377   O     0.95491   0.79509   0.12709   0.00000  Uiso   1.00
O378   O     0.95491   0.79509   0.20625   0.00000  Uiso   1.00
O379   O     0.54508   0.70491   0.12709   0.00000  Uiso   1.00
O380   O     0.95491   0.70491   0.12709   0.00000  Uiso   1.00
O381   O     0.54508   0.79509   0.20625   0.00000  Uiso   1.00
O382   O     0.54508   0.79509   0.12709   0.00000  Uiso   1.00
O383   O     0.95491   0.70491   0.20625   0.00000  Uiso   1.00
O384   O     0.79508   0.95491   0.20625   0.00000  Uiso   1.00
C385   C     0.05940   0.19053   0.50000   0.00000  Uiso   1.00
C386   C     0.00000   0.28893   0.64186   0.00000  Uiso   1.00
C387   C     0.00000   0.28893   0.35814   0.00000  Uiso   1.00
C388   C     0.00000   0.21107   0.64186   0.00000  Uiso   1.00
C389   C     0.25000   0.46107   0.35814   0.00000  Uiso   1.00
C390   C     0.25000   0.03893   0.64186   0.00000  Uiso   1.00
C391   C     0.25000   0.03893   0.35814   0.00000  Uiso   1.00
C392   C     0.25000   0.46107   0.64186   0.00000  Uiso   1.00
C393   C     0.39098   0.14096   0.45773   0.00000  Uiso   1.00
C394   C     0.10902   0.35904   0.54227   0.00000  Uiso   1.00
C395   C     0.10902   0.35904   0.45773   0.00000  Uiso   1.00
C396   C     0.44060   0.30947   0.50000   0.00000  Uiso   1.00
C397   C     0.39098   0.14096   0.54227   0.00000  Uiso   1.00
C398   C     0.10902   0.14096   0.54227   0.00000  Uiso   1.00
C399   C     0.39098   0.35904   0.45773   0.00000  Uiso   1.00
C400   C     0.39098   0.35904   0.54227   0.00000  Uiso   1.00
C401   C     0.10902   0.14096   0.45773   0.00000  Uiso   1.00
C402   C     0.14098   0.39096   0.45773   0.00000  Uiso   1.00
C403   C     0.35902   0.10904   0.54227   0.00000  Uiso   1.00
C404   C     0.35902   0.10904   0.45773   0.00000  Uiso   1.00
C405   C     0.14098   0.39096   0.54227   0.00000  Uiso   1.00
C406   C     0.35902   0.39096   0.54227   0.00000  Uiso   1.00
C407   C     0.44060   0.19053   0.50000   0.00000  Uiso   1.00
C408   C     0.14098   0.10904   0.45773   0.00000  Uiso   1.00
C409   C     0.14098   0.10904   0.54227   0.00000  Uiso   1.00
C410   C     0.35902   0.39096   0.45773   0.00000  Uiso   1.00
C411   C     0.09289   0.34295   0.50000   0.00000  Uiso   1.00
C412   C     0.40711   0.15705   0.50000   0.00000  Uiso   1.00
C413   C     0.40711   0.34295   0.50000   0.00000  Uiso   1.00
C414   C     0.09289   0.15705   0.50000   0.00000  Uiso   1.00
C415   C     0.34289   0.09295   0.50000   0.00000  Uiso   1.00
C416   C     0.15711   0.40705   0.50000   0.00000  Uiso   1.00
C417   C     0.15711   0.09295   0.50000   0.00000  Uiso   1.00
C418   C     0.05940   0.30947   0.50000   0.00000  Uiso   1.00
C419   C     0.34289   0.40705   0.50000   0.00000  Uiso   1.00
C420   C     0.00000   0.16946   0.38280   0.00000  Uiso   1.00
C421   C     0.00000   0.33054   0.61720   0.00000  Uiso   1.00
C422   C     0.00000   0.33054   0.38280   0.00000  Uiso   1.00
C423   C     0.00000   0.16946   0.61720   0.00000  Uiso   1.00
C424   C     0.25000   0.41946   0.38280   0.00000  Uiso   1.00
C425   C     0.25000   0.08054   0.61720   0.00000  Uiso   1.00
C426   C     0.25000   0.08054   0.38280   0.00000  Uiso   1.00
C427   C     0.25000   0.41946   0.61720   0.00000  Uiso   1.00
C428   C     0.30940   0.44053   0.50000   0.00000  Uiso   1.00
C429   C     0.19060   0.05947   0.50000   0.00000  Uiso   1.00
C430   C     0.19060   0.44053   0.50000   0.00000  Uiso   1.00
C431   C     0.30940   0.05947   0.50000   0.00000  Uiso   1.00
C432   C     0.00000   0.21107   0.35814   0.00000  Uiso   1.00
Cu433  Cu    0.00000   0.25000   0.54689   0.00000  Uiso   1.00
Cu434  Cu    0.00000   0.25000   0.45311   0.00000  Uiso   1.00
Cu435  Cu    0.25000   0.00000   0.54689   0.00000  Uiso   1.00
Cu436  Cu    0.25000   0.00000   0.45311   0.00000  Uiso   1.00
H437   H     0.40296   0.15297   0.42466   0.00000  Uiso   1.00
H438   H     0.34704   0.09704   0.57534   0.00000  Uiso   1.00
H439   H     0.34704   0.09704   0.42466   0.00000  Uiso   1.00
H440   H     0.15296   0.40296   0.57534   0.00000  Uiso   1.00
H441   H     0.34704   0.40297   0.57534   0.00000  Uiso   1.00
H442   H     0.15296   0.09704   0.42466   0.00000  Uiso   1.00
H443   H     0.15296   0.09704   0.57534   0.00000  Uiso   1.00
H444   H     0.34704   0.40296   0.42466   0.00000  Uiso   1.00
H445   H     0.09704   0.34703   0.57534   0.00000  Uiso   1.00
H446   H     0.09704   0.34704   0.42466   0.00000  Uiso   1.00
H447   H     0.40296   0.15296   0.57534   0.00000  Uiso   1.00
H448   H     0.09704   0.15297   0.57534   0.00000  Uiso   1.00
H449   H     0.40296   0.34704   0.42466   0.00000  Uiso   1.00
H450   H     0.40296   0.34704   0.57534   0.00000  Uiso   1.00
H451   H     0.09704   0.15297   0.42466   0.00000  Uiso   1.00
H452   H     0.15296   0.40297   0.42466   0.00000  Uiso   1.00
N453   N     0.00000   0.25000   0.61736   0.00000  Uiso   1.00
N454   N     0.25000   0.11410   0.59782   0.00000  Uiso   1.00
N455   N     0.25000   0.11410   0.40218   0.00000  Uiso   1.00
N456   N     0.25000   0.38590   0.59782   0.00000  Uiso   1.00
N457   N     0.00000   0.25000   0.38264   0.00000  Uiso   1.00
N458   N     0.25000   0.00000   0.61736   0.00000  Uiso   1.00
N459   N     0.25000   0.00000   0.38264   0.00000  Uiso   1.00
N460   N     0.00000   0.13590   0.40218   0.00000  Uiso   1.00
N461   N     0.00000   0.36410   0.59782   0.00000  Uiso   1.00
N462   N     0.00000   0.36410   0.40218   0.00000  Uiso   1.00
N463   N     0.00000   0.13590   0.59782   0.00000  Uiso   1.00
N464   N     0.25000   0.38590   0.40218   0.00000  Uiso   1.00
O465   O     0.04508   0.20491   0.53958   0.00000  Uiso   1.00
O466   O     0.20491   0.04509   0.46042   0.00000  Uiso   1.00
O467   O     0.20491   0.04509   0.53958   0.00000  Uiso   1.00
O468   O     0.29508   0.45491   0.46042   0.00000  Uiso   1.00
O469   O     0.20491   0.45491   0.46042   0.00000  Uiso   1.00
O470   O     0.29508   0.04509   0.53958   0.00000  Uiso   1.00
O471   O     0.29508   0.04509   0.46042   0.00000  Uiso   1.00
O472   O     0.20491   0.45491   0.53958   0.00000  Uiso   1.00
O473   O     0.45491   0.29509   0.46042   0.00000  Uiso   1.00
O474   O     0.45491   0.29509   0.53958   0.00000  Uiso   1.00
O475   O     0.04508   0.20491   0.46042   0.00000  Uiso   1.00
O476   O     0.45491   0.20491   0.46042   0.00000  Uiso   1.00
O477   O     0.04508   0.29509   0.53958   0.00000  Uiso   1.00
O478   O     0.04508   0.29509   0.46042   0.00000  Uiso   1.00
O479   O     0.45491   0.20491   0.53958   0.00000  Uiso   1.00
O480   O     0.29508   0.45491   0.53958   0.00000  Uiso   1.00
C481   C     0.55940   0.19053   0.50000   0.00000  Uiso   1.00
C482   C     0.50000   0.28893   0.64186   0.00000  Uiso   1.00
C483   C     0.50000   0.28893   0.35814   0.00000  Uiso   1.00
C484   C     0.50000   0.21107   0.64186   0.00000  Uiso   1.00
C485   C     0.75000   0.46107   0.35814   0.00000  Uiso   1.00
C486   C     0.75000   0.03893   0.64186   0.00000  Uiso   1.00
C487   C     0.75000   0.03893   0.35814   0.00000  Uiso   1.00
C488   C     0.75000   0.46107   0.64186   0.00000  Uiso   1.00
C489   C     0.89098   0.14096   0.45773   0.00000  Uiso   1.00
C490   C     0.60902   0.35904   0.54227   0.00000  Uiso   1.00
C491   C     0.60902   0.35904   0.45773   0.00000  Uiso   1.00
C492   C     0.94060   0.30947   0.50000   0.00000  Uiso   1.00
C493   C     0.89098   0.14096   0.54227   0.00000  Uiso   1.00
C494   C     0.60902   0.14096   0.54227   0.00000  Uiso   1.00
C495   C     0.89098   0.35904   0.45773   0.00000  Uiso   1.00
C496   C     0.89098   0.35904   0.54227   0.00000  Uiso   1.00
C497   C     0.60902   0.14096   0.45773   0.00000  Uiso   1.00
C498   C     0.64098   0.39096   0.45773   0.00000  Uiso   1.00
C499   C     0.85902   0.10904   0.54227   0.00000  Uiso   1.00
C500   C     0.85902   0.10904   0.45773   0.00000  Uiso   1.00
C501   C     0.64098   0.39096   0.54227   0.00000  Uiso   1.00
C502   C     0.85902   0.39096   0.54227   0.00000  Uiso   1.00
C503   C     0.94060   0.19053   0.50000   0.00000  Uiso   1.00
C504   C     0.64098   0.10904   0.45773   0.00000  Uiso   1.00
C505   C     0.64098   0.10904   0.54227   0.00000  Uiso   1.00
C506   C     0.85902   0.39096   0.45773   0.00000  Uiso   1.00
C507   C     0.59289   0.34295   0.50000   0.00000  Uiso   1.00
C508   C     0.90711   0.15705   0.50000   0.00000  Uiso   1.00
C509   C     0.90711   0.34295   0.50000   0.00000  Uiso   1.00
C510   C     0.59289   0.15705   0.50000   0.00000  Uiso   1.00
C511   C     0.84289   0.09295   0.50000   0.00000  Uiso   1.00
C512   C     0.65711   0.40705   0.50000   0.00000  Uiso   1.00
C513   C     0.65711   0.09295   0.50000   0.00000  Uiso   1.00
C514   C     0.55940   0.30947   0.50000   0.00000  Uiso   1.00
C515   C     0.84289   0.40705   0.50000   0.00000  Uiso   1.00
C516   C     0.50000   0.16946   0.38280   0.00000  Uiso   1.00
C517   C     0.50000   0.33054   0.61720   0.00000  Uiso   1.00
C518   C     0.50000   0.33054   0.38280   0.00000  Uiso   1.00
C519   C     0.50000   0.16946   0.61720   0.00000  Uiso   1.00
C520   C     0.75000   0.41946   0.38280   0.00000  Uiso   1.00
C521   C     0.75000   0.08054   0.61720   0.00000  Uiso   1.00
C522   C     0.75000   0.08054   0.38280   0.00000  Uiso   1.00
C523   C     0.75000   0.41946   0.61720   0.00000  Uiso   1.00
C524   C     0.80940   0.44053   0.50000   0.00000  Uiso   1.00
C525   C     0.69060   0.05947   0.50000   0.00000  Uiso   1.00
C526   C     0.69060   0.44053   0.50000   0.00000  Uiso   1.00
C527   C     0.80940   0.05947   0.50000   0.00000  Uiso   1.00
C528   C     0.50000   0.21107   0.35814   0.00000  Uiso   1.00
Cu529  Cu    0.50000   0.25000   0.54689   0.00000  Uiso   1.00
Cu530  Cu    0.50000   0.25000   0.45311   0.00000  Uiso   1.00
Cu531  Cu    0.75000   0.00000   0.54689   0.00000  Uiso   1.00
Cu532  Cu    0.75000   0.00000   0.45311   0.00000  Uiso   1.00
H533   H     0.90296   0.15297   0.42466   0.00000  Uiso   1.00
H534   H     0.84704   0.09704   0.57534   0.00000  Uiso   1.00
H535   H     0.84704   0.09704   0.42466   0.00000  Uiso   1.00
H536   H     0.65296   0.40296   0.57534   0.00000  Uiso   1.00
H537   H     0.84704   0.40297   0.57534   0.00000  Uiso   1.00
H538   H     0.65296   0.09704   0.42466   0.00000  Uiso   1.00
H539   H     0.65296   0.09704   0.57534   0.00000  Uiso   1.00
H540   H     0.84704   0.40296   0.42466   0.00000  Uiso   1.00
H541   H     0.59704   0.34703   0.57534   0.00000  Uiso   1.00
H542   H     0.59704   0.34704   0.42466   0.00000  Uiso   1.00
H543   H     0.90296   0.15296   0.57534   0.00000  Uiso   1.00
H544   H     0.59704   0.15297   0.57534   0.00000  Uiso   1.00
H545   H     0.90296   0.34704   0.42466   0.00000  Uiso   1.00
H546   H     0.90296   0.34704   0.57534   0.00000  Uiso   1.00
H547   H     0.59704   0.15297   0.42466   0.00000  Uiso   1.00
H548   H     0.65296   0.40297   0.42466   0.00000  Uiso   1.00
N549   N     0.50000   0.25000   0.61736   0.00000  Uiso   1.00
N550   N     0.75000   0.11410   0.59782   0.00000  Uiso   1.00
N551   N     0.75000   0.11410   0.40218   0.00000  Uiso   1.00
N552   N     0.75000   0.38590   0.59782   0.00000  Uiso   1.00
N553   N     0.50000   0.25000   0.38264   0.00000  Uiso   1.00
N554   N     0.75000   0.00000   0.61736   0.00000  Uiso   1.00
N555   N     0.75000   0.00000   0.38264   0.00000  Uiso   1.00
N556   N     0.50000   0.13590   0.40218   0.00000  Uiso   1.00
N557   N     0.50000   0.36410   0.59782   0.00000  Uiso   1.00
N558   N     0.50000   0.36410   0.40218   0.00000  Uiso   1.00
N559   N     0.50000   0.13590   0.59782   0.00000  Uiso   1.00
N560   N     0.75000   0.38590   0.40218   0.00000  Uiso   1.00
O561   O     0.54508   0.20491   0.53958   0.00000  Uiso   1.00
O562   O     0.70491   0.04509   0.46042   0.00000  Uiso   1.00
O563   O     0.70491   0.04509   0.53958   0.00000  Uiso   1.00
O564   O     0.79508   0.45491   0.46042   0.00000  Uiso   1.00
O565   O     0.70491   0.45491   0.46042   0.00000  Uiso   1.00
O566   O     0.79508   0.04509   0.53958   0.00000  Uiso   1.00
O567   O     0.79508   0.04509   0.46042   0.00000  Uiso   1.00
O568   O     0.70491   0.45491   0.53958   0.00000  Uiso   1.00
O569   O     0.95491   0.29509   0.46042   0.00000  Uiso   1.00
O570   O     0.95491   0.29509   0.53958   0.00000  Uiso   1.00
O571   O     0.54508   0.20491   0.46042   0.00000  Uiso   1.00
O572   O     0.95491   0.20491   0.46042   0.00000  Uiso   1.00
O573   O     0.54508   0.29509   0.53958   0.00000  Uiso   1.00
O574   O     0.54508   0.29509   0.46042   0.00000  Uiso   1.00
O575   O     0.95491   0.20491   0.53958   0.00000  Uiso   1.00
O576   O     0.79508   0.45491   0.53958   0.00000  Uiso   1.00
C577   C     0.05940   0.69053   0.50000   0.00000  Uiso   1.00
C578   C     0.00000   0.78893   0.64186   0.00000  Uiso   1.00
C579   C     0.00000   0.78893   0.35814   0.00000  Uiso   1.00
C580   C     0.00000   0.71107   0.64186   0.00000  Uiso   1.00
C581   C     0.25000   0.96107   0.35814   0.00000  Uiso   1.00
C582   C     0.25000   0.53893   0.64186   0.00000  Uiso   1.00
C583   C     0.25000   0.53893   0.35814   0.00000  Uiso   1.00
C584   C     0.25000   0.96107   0.64186   0.00000  Uiso   1.00
C585   C     0.39098   0.64096   0.45773   0.00000  Uiso   1.00
C586   C     0.10902   0.85904   0.54227   0.00000  Uiso   1.00
C587   C     0.10902   0.85904   0.45773   0.00000  Uiso   1.00
C588   C     0.44060   0.80947   0.50000   0.00000  Uiso   1.00
C589   C     0.39098   0.64096   0.54227   0.00000  Uiso   1.00
C590   C     0.10902   0.64096   0.54227   0.00000  Uiso   1.00
C591   C     0.39098   0.85904   0.45773   0.00000  Uiso   1.00
C592   C     0.39098   0.85904   0.54227   0.00000  Uiso   1.00
C593   C     0.10902   0.64096   0.45773   0.00000  Uiso   1.00
C594   C     0.14098   0.89096   0.45773   0.00000  Uiso   1.00
C595   C     0.35902   0.60904   0.54227   0.00000  Uiso   1.00
C596   C     0.35902   0.60904   0.45773   0.00000  Uiso   1.00
C597   C     0.14098   0.89096   0.54227   0.00000  Uiso   1.00
C598   C     0.35902   0.89096   0.54227   0.00000  Uiso   1.00
C599   C     0.44060   0.69053   0.50000   0.00000  Uiso   1.00
C600   C     0.14098   0.60904   0.45773   0.00000  Uiso   1.00
C601   C     0.14098   0.60904   0.54227   0.00000  Uiso   1.00
C602   C     0.35902   0.89096   0.45773   0.00000  Uiso   1.00
C603   C     0.09289   0.84295   0.50000   0.00000  Uiso   1.00
C604   C     0.40711   0.65705   0.50000   0.00000  Uiso   1.00
C605   C     0.40711   0.84295   0.50000   0.00000  Uiso   1.00
C606   C     0.09289   0.65705   0.50000   0.00000  Uiso   1.00
C607   C     0.34289   0.59295   0.50000   0.00000  Uiso   1.00
C608   C     0.15711   0.90705   0.50000   0.00000  Uiso   1.00
C609   C     0.15711   0.59295   0.50000   0.00000  Uiso   1.00
C610   C     0.05940   0.80947   0.50000   0.00000  Uiso   1.00
C611   C     0.34289   0.90705   0.50000   0.00000  Uiso   1.00
C612   C     0.00000   0.66946   0.38280   0.00000  Uiso   1.00
C613   C     0.00000   0.83054   0.61720   0.00000  Uiso   1.00
C614   C     0.00000   0.83054   0.38280   0.00000  Uiso   1.00
C615   C     0.00000   0.66946   0.61720   0.00000  Uiso   1.00
C616   C     0.25000   0.91946   0.38280   0.00000  Uiso   1.00
C617   C     0.25000   0.58054   0.61720   0.00000  Uiso   1.00
C618   C     0.25000   0.58054   0.38280   0.00000  Uiso   1.00
C619   C     0.25000   0.91946   0.61720   0.00000  Uiso   1.00
C620   C     0.30940   0.94053   0.50000   0.00000  Uiso   1.00
C621   C     0.19060   0.55947   0.50000   0.00000  Uiso   1.00
C622   C     0.19060   0.94053   0.50000   0.00000  Uiso   1.00
C623   C     0.30940   0.55947   0.50000   0.00000  Uiso   1.00
C624   C     0.00000   0.71107   0.35814   0.00000  Uiso   1.00
Cu625  Cu    0.00000   0.75000   0.54689   0.00000  Uiso   1.00
Cu626  Cu    0.00000   0.75000   0.45311   0.00000  Uiso   1.00
Cu627  Cu    0.25000   0.50000   0.54689   0.00000  Uiso   1.00
Cu628  Cu    0.25000   0.50000   0.45311   0.00000  Uiso   1.00
H629   H     0.40296   0.65297   0.42466   0.00000  Uiso   1.00
H630   H     0.34704   0.59704   0.57534   0.00000  Uiso   1.00
H631   H     0.34704   0.59704   0.42466   0.00000  Uiso   1.00
H632   H     0.15296   0.90296   0.57534   0.00000  Uiso   1.00
H633   H     0.34704   0.90297   0.57534   0.00000  Uiso   1.00
H634   H     0.15296   0.59704   0.42466   0.00000  Uiso   1.00
H635   H     0.15296   0.59704   0.57534   0.00000  Uiso   1.00
H636   H     0.34704   0.90296   0.42466   0.00000  Uiso   1.00
H637   H     0.09704   0.84703   0.57534   0.00000  Uiso   1.00
H638   H     0.09704   0.84704   0.42466   0.00000  Uiso   1.00
H639   H     0.40296   0.65296   0.57534   0.00000  Uiso   1.00
H640   H     0.09704   0.65297   0.57534   0.00000  Uiso   1.00
H641   H     0.40296   0.84704   0.42466   0.00000  Uiso   1.00
H642   H     0.40296   0.84704   0.57534   0.00000  Uiso   1.00
H643   H     0.09704   0.65297   0.42466   0.00000  Uiso   1.00
H644   H     0.15296   0.90297   0.42466   0.00000  Uiso   1.00
N645   N     0.00000   0.75000   0.61736   0.00000  Uiso   1.00
N646   N     0.25000   0.61410   0.59782   0.00000  Uiso   1.00
N647   N     0.25000   0.61410   0.40218   0.00000  Uiso   1.00
N648   N     0.25000   0.88590   0.59782   0.00000  Uiso   1.00
N649   N     0.00000   0.75000   0.38264   0.00000  Uiso   1.00
N650   N     0.25000   0.50000   0.61736   0.00000  Uiso   1.00
N651   N     0.25000   0.50000   0.38264   0.00000  Uiso   1.00
N652   N     0.00000   0.63590   0.40218   0.00000  Uiso   1.00
N653   N     0.00000   0.86410   0.59782   0.00000  Uiso   1.00
N654   N     0.00000   0.86410   0.40218   0.00000  Uiso   1.00
N655   N     0.00000   0.63590   0.59782   0.00000  Uiso   1.00
N656   N     0.25000   0.88590   0.40218   0.00000  Uiso   1.00
O657   O     0.04508   0.70491   0.53958   0.00000  Uiso   1.00
O658   O     0.20491   0.54509   0.46042   0.00000  Uiso   1.00
O659   O     0.20491   0.54509   0.53958   0.00000  Uiso   1.00
O660   O     0.29508   0.95491   0.46042   0.00000  Uiso   1.00
O661   O     0.20491   0.95491   0.46042   0.00000  Uiso   1.00
O662   O     0.29508   0.54509   0.53958   0.00000  Uiso   1.00
O663   O     0.29508   0.54509   0.46042   0.00000  Uiso   1.00
O664   O     0.20491   0.95491   0.53958   0.00000  Uiso   1.00
O665   O     0.45491   0.79509   0.46042   0.00000  Uiso   1.00
O666   O     0.45491   0.79509   0.53958   0.00000  Uiso   1.00
O667   O     0.04508   0.70491   0.46042   0.00000  Uiso   1.00
O668   O     0.45491   0.70491   0.46042   0.00000  Uiso   1.00
O669   O     0.04508   0.79509   0.53958   0.00000  Uiso   1.00
O670   O     0.04508   0.79509   0.46042   0.00000  Uiso   1.00
O671   O     0.45491   0.70491   0.53958   0.00000  Uiso   1.00
O672   O     0.29508   0.95491   0.53958   0.00000  Uiso   1.00
C673   C     0.55940   0.69053   0.50000   0.00000  Uiso   1.00
C674   C     0.50000   0.78893   0.64186   0.00000  Uiso   1.00
C675   C     0.50000   0.78893   0.35814   0.00000  Uiso   1.00
C676   C     0.50000   0.71107   0.64186   0.00000  Uiso   1.00
C677   C     0.75000   0.96107   0.35814   0.00000  Uiso   1.00
C678   C     0.75000   0.53893   0.64186   0.00000  Uiso   1.00
C679   C     0.75000   0.53893   0.35814   0.00000  Uiso   1.00
C680   C     0.75000   0.96107   0.64186   0.00000  Uiso   1.00
C681   C     0.89098   0.64096   0.45773   0.00000  Uiso   1.00
C682   C     0.60902   0.85904   0.54227   0.00000  Uiso   1.00
C683   C     0.60902   0.85904   0.45773   0.00000  Uiso   1.00
C684   C     0.94060   0.80947   0.50000   0.00000  Uiso   1.00
C685   C     0.89098   0.64096   0.54227   0.00000  Uiso   1.00
C686   C     0.60902   0.64096   0.54227   0.00000  Uiso   1.00
C687   C     0.89098   0.85904   0.45773   0.00000  Uiso   1.00
C688   C     0.89098   0.85904   0.54227   0.00000  Uiso   1.00
C689   C     0.60902   0.64096   0.45773   0.00000  Uiso   1.00
C690   C     0.64098   0.89096   0.45773   0.00000  Uiso   1.00
C691   C     0.85902   0.60904   0.54227   0.00000  Uiso   1.00
C692   C     0.85902   0.60904   0.45773   0.00000  Uiso   1.00
C693   C     0.64098   0.89096   0.54227   0.00000  Uiso   1.00
C694   C     0.85902   0.89096   0.54227   0.00000  Uiso   1.00
C695   C     0.94060   0.69053   0.50000   0.00000  Uiso   1.00
C696   C     0.64098   0.60904   0.45773   0.00000  Uiso   1.00
C697   C     0.64098   0.60904   0.54227   0.00000  Uiso   1.00
C698   C     0.85902   0.89096   0.45773   0.00000  Uiso   1.00
C699   C     0.59289   0.84295   0.50000   0.00000  Uiso   1.00
C700   C     0.90711   0.65705   0.50000   0.00000  Uiso   1.00
C701   C     0.90711   0.84295   0.50000   0.00000  Uiso   1.00
C702   C     0.59289   0.65705   0.50000   0.00000  Uiso   1.00
C703   C     0.84289   0.59295   0.50000   0.00000  Uiso   1.00
C704   C     0.65711   0.90705   0.50000   0.00000  Uiso   1.00
C705   C     0.65711   0.59295   0.50000   0.00000  Uiso   1.00
C706   C     0.55940   0.80947   0.50000   0.00000  Uiso   1.00
C707   C     0.84289   0.90705   0.50000   0.00000  Uiso   1.00
C708   C     0.50000   0.66946   0.38280   0.00000  Uiso   1.00
C709   C     0.50000   0.83054   0.61720   0.00000  Uiso   1.00
C710   C     0.50000   0.83054   0.38280   0.00000  Uiso   1.00
C711   C     0.50000   0.66946   0.61720   0.00000  Uiso   1.00
C712   C     0.75000   0.91946   0.38280   0.00000  Uiso   1.00
C713   C     0.75000   0.58054   0.61720   0.00000  Uiso   1.00
C714   C     0.75000   0.58054   0.38280   0.00000  Uiso   1.00
C715   C     0.75000   0.91946   0.61720   0.00000  Uiso   1.00
C716   C     0.80940   0.94053   0.50000   0.00000  Uiso   1.00
C717   C     0.69060   0.55947   0.50000   0.00000  Uiso   1.00
C718   C     0.69060   0.94053   0.50000   0.00000  Uiso   1.00
C719   C     0.80940   0.55947   0.50000   0.00000  Uiso   1.00
C720   C     0.50000   0.71107   0.35814   0.00000  Uiso   1.00
Cu721  Cu    0.50000   0.75000   0.54689   0.00000  Uiso   1.00
Cu722  Cu    0.50000   0.75000   0.45311   0.00000  Uiso   1.00
Cu723  Cu    0.75000   0.50000   0.54689   0.00000  Uiso   1.00
Cu724  Cu    0.75000   0.50000   0.45311   0.00000  Uiso   1.00
H725   H     0.90296   0.65297   0.42466   0.00000  Uiso   1.00
H726   H     0.84704   0.59704   0.57534   0.00000  Uiso   1.00
H727   H     0.84704   0.59704   0.42466   0.00000  Uiso   1.00
H728   H     0.65296   0.90296   0.57534   0.00000  Uiso   1.00
H729   H     0.84704   0.90297   0.57534   0.00000  Uiso   1.00
H730   H     0.65296   0.59704   0.42466   0.00000  Uiso   1.00
H731   H     0.65296   0.59704   0.57534   0.00000  Uiso   1.00
H732   H     0.84704   0.90296   0.42466   0.00000  Uiso   1.00
H733   H     0.59704   0.84703   0.57534   0.00000  Uiso   1.00
H734   H     0.59704   0.84704   0.42466   0.00000  Uiso   1.00
H735   H     0.90296   0.65296   0.57534   0.00000  Uiso   1.00
H736   H     0.59704   0.65297   0.57534   0.00000  Uiso   1.00
H737   H     0.90296   0.84704   0.42466   0.00000  Uiso   1.00
H738   H     0.90296   0.84704   0.57534   0.00000  Uiso   1.00
H739   H     0.59704   0.65297   0.42466   0.00000  Uiso   1.00
H740   H     0.65296   0.90297   0.42466   0.00000  Uiso   1.00
N741   N     0.50000   0.75000   0.61736   0.00000  Uiso   1.00
N742   N     0.75000   0.61410   0.59782   0.00000  Uiso   1.00
N743   N     0.75000   0.61410   0.40218   0.00000  Uiso   1.00
N744   N     0.75000   0.88590   0.59782   0.00000  Uiso   1.00
N745   N     0.50000   0.75000   0.38264   0.00000  Uiso   1.00
N746   N     0.75000   0.50000   0.61736   0.00000  Uiso   1.00
N747   N     0.75000   0.50000   0.38264   0.00000  Uiso   1.00
N748   N     0.50000   0.63590   0.40218   0.00000  Uiso   1.00
N749   N     0.50000   0.86410   0.59782   0.00000  Uiso   1.00
N750   N     0.50000   0.86410   0.40218   0.00000  Uiso   1.00
N751   N     0.50000   0.63590   0.59782   0.00000  Uiso   1.00
N752   N     0.75000   0.88590   0.40218   0.00000  Uiso   1.00
O753   O     0.54508   0.70491   0.53958   0.00000  Uiso   1.00
O754   O     0.70491   0.54509   0.46042   0.00000  Uiso   1.00
O755   O     0.70491   0.54509   0.53958   0.00000  Uiso   1.00
O756   O     0.79508   0.95491   0.46042   0.00000  Uiso   1.00
O757   O     0.70491   0.95491   0.46042   0.00000  Uiso   1.00
O758   O     0.79508   0.54509   0.53958   0.00000  Uiso   1.00
O759   O     0.79508   0.54509   0.46042   0.00000  Uiso   1.00
O760   O     0.70491   0.95491   0.53958   0.00000  Uiso   1.00
O761   O     0.95491   0.79509   0.46042   0.00000  Uiso   1.00
O762   O     0.95491   0.79509   0.53958   0.00000  Uiso   1.00
O763   O     0.54508   0.70491   0.46042   0.00000  Uiso   1.00
O764   O     0.95491   0.70491   0.46042   0.00000  Uiso   1.00
O765   O     0.54508   0.79509   0.53958   0.00000  Uiso   1.00
O766   O     0.54508   0.79509   0.46042   0.00000  Uiso   1.00
O767   O     0.95491   0.70491   0.53958   0.00000  Uiso   1.00
O768   O     0.79508   0.95491   0.53958   0.00000  Uiso   1.00
C769   C     0.05940   0.19053   0.83333   0.00000  Uiso   1.00
C770   C     0.00000   0.28893   0.97519   0.00000  Uiso   1.00
C771   C     0.00000   0.28893   0.69147   0.00000  Uiso   1.00
C772   C     0.00000   0.21107   0.97519   0.00000  Uiso   1.00
C773   C     0.25000   0.46107   0.69147   0.00000  Uiso   1.00
C774   C     0.25000   0.03893   0.97519   0.00000  Uiso   1.00
C775   C     0.25000   0.03893   0.69147   0.00000  Uiso   1.00
C776   C     0.25000   0.46107   0.97519   0.00000  Uiso   1.00
C777   C     0.39098   0.14096   0.79106   0.00000  Uiso   1.00
C778   C     0.10902   0.35904   0.87561   0.00000  Uiso   1.00
C779   C     0.10902   0.35904   0.79106   0.00000  Uiso   1.00
C780   C     0.44060   0.30947   0.83333   0.00000  Uiso   1.00
C781   C     0.39098   0.14096   0.87561   0.00000  Uiso   1.00
C782   C     0.10902   0.14096   0.87561   0.00000  Uiso   1.00
C783   C     0.39098   0.35904   0.79106   0.00000  Uiso   1.00
C784   C     0.39098   0.35904   0.87561   0.00000  Uiso   1.00
C785   C     0.10902   0.14096   0.79106   0.00000  Uiso   1.00
C786   C     0.14098   0.39096   0.79106   0.00000  Uiso   1.00
C787   C     0.35902   0.10904   0.87561   0.00000  Uiso   1.00
C788   C     0.35902   0.10904   0.79106   0.00000  Uiso   1.00
C789   C     0.14098   0.39096   0.87561   0.00000  Uiso   1.00
C790   C     0.35902   0.39096   0.87561   0.00000  Uiso   1.00
C791   C     0.44060   0.19053   0.83333   0.00000  Uiso   1.00
C792   C     0.14098   0.10904   0.79106   0.00000  Uiso   1.00
C793   C     0.14098   0.10904   0.87561   0.00000  Uiso   1.00
C794   C     0.35902   0.39096   0.79106   0.00000  Uiso   1.00
C795   C     0.09289   0.34295   0.83333   0.00000  Uiso   1.00
C796   C     0.40711   0.15705   0.83333   0.00000  Uiso   1.00
C797   C     0.40711   0.34295   0.83333   0.00000  Uiso   1.00
C798   C     0.09289   0.15705   0.83333   0.00000  Uiso   1.00
C799   C     0.34289   0.09295   0.83333   0.00000  Uiso   1.00
C800   C     0.15711   0.40705   0.83333   0.00000  Uiso   1.00
C801   C     0.15711   0.09295   0.83333   0.00000  Uiso   1.00
C802   C     0.05940   0.30947   0.83333   0.00000  Uiso   1.00
C803   C     0.34289   0.40705   0.83333   0.00000  Uiso   1.00
C804   C     0.00000   0.16946   0.71613   0.00000  Uiso   1.00
C805   C     0.00000   0.33054   0.95053   0.00000  Uiso   1.00
C806   C     0.00000   0.33054   0.71613   0.00000  Uiso   1.00
C807   C     0.00000   0.16946   0.95053   0.00000  Uiso   1.00
C808   C     0.25000   0.41946   0.71613   0.00000  Uiso   1.00
C809   C     0.25000   0.08054   0.95053   0.00000  Uiso   1.00
C810   C     0.25000   0.08054   0.71613   0.00000  Uiso   1.00
C811   C     0.25000   0.41946   0.95053   0.00000  Uiso   1.00
C812   C     0.30940   0.44053   0.83333   0.00000  Uiso   1.00
C813   C     0.19060   0.05947   0.83333   0.00000  Uiso   1.00
C814   C     0.19060   0.44053   0.83333   0.00000  Uiso   1.00
C815   C     0.30940   0.05947   0.83333   0.00000  Uiso   1.00
C816   C     0.00000   0.21107   0.69147   0.00000  Uiso   1.00
Cu817  Cu    0.00000   0.25000   0.88022   0.00000  Uiso   1.00
Cu818  Cu    0.00000   0.25000   0.78645   0.00000  Uiso   1.00
Cu819  Cu    0.25000   0.00000   0.88022   0.00000  Uiso   1.00
Cu820  Cu    0.25000   0.00000   0.78645   0.00000  Uiso   1.00
H821   H     0.40296   0.15297   0.75800   0.00000  Uiso   1.00
H822   H     0.34704   0.09704   0.90867   0.00000  Uiso   1.00
H823   H     0.34704   0.09704   0.75800   0.00000  Uiso   1.00
H824   H     0.15296   0.40296   0.90867   0.00000  Uiso   1.00
H825   H     0.34704   0.40297   0.90867   0.00000  Uiso   1.00
H826   H     0.15296   0.09704   0.75800   0.00000  Uiso   1.00
H827   H     0.15296   0.09704   0.90867   0.00000  Uiso   1.00
H828   H     0.34704   0.40296   0.75800   0.00000  Uiso   1.00
H829   H     0.09704   0.34703   0.90867   0.00000  Uiso   1.00
H830   H     0.09704   0.34704   0.75800   0.00000  Uiso   1.00
H831   H     0.40296   0.15296   0.90867   0.00000  Uiso   1.00
H832   H     0.09704   0.15297   0.90867   0.00000  Uiso   1.00
H833   H     0.40296   0.34704   0.75800   0.00000  Uiso   1.00
H834   H     0.40296   0.34704   0.90867   0.00000  Uiso   1.00
H835   H     0.09704   0.15297   0.75800   0.00000  Uiso   1.00
H836   H     0.15296   0.40297   0.75800   0.00000  Uiso   1.00
N837   N     0.00000   0.25000   0.95069   0.00000  Uiso   1.00
N838   N     0.25000   0.11410   0.93115   0.00000  Uiso   1.00
N839   N     0.25000   0.11410   0.73552   0.00000  Uiso   1.00
N840   N     0.25000   0.38590   0.93115   0.00000  Uiso   1.00
N841   N     0.00000   0.25000   0.71598   0.00000  Uiso   1.00
N842   N     0.25000   0.00000   0.95069   0.00000  Uiso   1.00
N843   N     0.25000   0.00000   0.71598   0.00000  Uiso   1.00
N844   N     0.00000   0.13590   0.73552   0.00000  Uiso   1.00
N845   N     0.00000   0.36410   0.93115   0.00000  Uiso   1.00
N846   N     0.00000   0.36410   0.73552   0.00000  Uiso   1.00
N847   N     0.00000   0.13590   0.93115   0.00000  Uiso   1.00
N848   N     0.25000   0.38590   0.73552   0.00000  Uiso   1.00
O849   O     0.04508   0.20491   0.87291   0.00000  Uiso   1.00
O850   O     0.20491   0.04509   0.79375   0.00000  Uiso   1.00
O851   O     0.20491   0.04509   0.87291   0.00000  Uiso   1.00
O852   O     0.29508   0.45491   0.79375   0.00000  Uiso   1.00
O853   O     0.20491   0.45491   0.79375   0.00000  Uiso   1.00
O854   O     0.29508   0.04509   0.87291   0.00000  Uiso   1.00
O855   O     0.29508   0.04509   0.79375   0.00000  Uiso   1.00
O856   O     0.20491   0.45491   0.87291   0.00000  Uiso   1.00
O857   O     0.45491   0.29509   0.79375   0.00000  Uiso   1.00
O858   O     0.45491   0.29509   0.87291   0.00000  Uiso   1.00
O859   O     0.04508   0.20491   0.79375   0.00000  Uiso   1.00
O860   O     0.45491   0.20491   0.79375   0.00000  Uiso   1.00
O861   O     0.04508   0.29509   0.87291   0.00000  Uiso   1.00
O862   O     0.04508   0.29509   0.79375   0.00000  Uiso   1.00
O863   O     0.45491   0.20491   0.87291   0.00000  Uiso   1.00
O864   O     0.29508   0.45491   0.87291   0.00000  Uiso   1.00
C865   C     0.55940   0.19053   0.83333   0.00000  Uiso   1.00
C866   C     0.50000   0.28893   0.97519   0.00000  Uiso   1.00
C867   C     0.50000   0.28893   0.69147   0.00000  Uiso   1.00
C868   C     0.50000   0.21107   0.97519   0.00000  Uiso   1.00
C869   C     0.75000   0.46107   0.69147   0.00000  Uiso   1.00
C870   C     0.75000   0.03893   0.97519   0.00000  Uiso   1.00
C871   C     0.75000   0.03893   0.69147   0.00000  Uiso   1.00
C872   C     0.75000   0.46107   0.97519   0.00000  Uiso   1.00
C873   C     0.89098   0.14096   0.79106   0.00000  Uiso   1.00
C874   C     0.60902   0.35904   0.87561   0.00000  Uiso   1.00
C875   C     0.60902   0.35904   0.79106   0.00000  Uiso   1.00
C876   C     0.94060   0.30947   0.83333   0.00000  Uiso   1.00
C877   C     0.89098   0.14096   0.87561   0.00000  Uiso   1.00
C878   C     0.60902   0.14096   0.87561   0.00000  Uiso   1.00
C879   C     0.89098   0.35904   0.79106   0.00000  Uiso   1.00
C880   C     0.89098   0.35904   0.87561   0.00000  Uiso   1.00
C881   C     0.60902   0.14096   0.79106   0.00000  Uiso   1.00
C882   C     0.64098   0.39096   0.79106   0.00000  Uiso   1.00
C883   C     0.85902   0.10904   0.87561   0.00000  Uiso   1.00
C884   C     0.85902   0.10904   0.79106   0.00000  Uiso   1.00
C885   C     0.64098   0.39096   0.87561   0.00000  Uiso   1.00
C886   C     0.85902   0.39096   0.87561   0.00000  Uiso   1.00
C887   C     0.94060   0.19053   0.83333   0.00000  Uiso   1.00
C888   C     0.64098   0.10904   0.79106   0.00000  Uiso   1.00
C889   C     0.64098   0.10904   0.87561   0.00000  Uiso   1.00
C890   C     0.85902   0.39096   0.79106   0.00000  Uiso   1.00
C891   C     0.59289   0.34295   0.83333   0.00000  Uiso   1.00
C892   C     0.90711   0.15705   0.83333   0.00000  Uiso   1.00
C893   C     0.90711   0.34295   0.83333   0.00000  Uiso   1.00
C894   C     0.59289   0.15705   0.83333   0.00000  Uiso   1.00
C895   C     0.84289   0.09295   0.83333   0.00000  Uiso   1.00
C896   C     0.65711   0.40705   0.83333   0.00000  Uiso   1.00
C897   C     0.65711   0.09295   0.83333   0.00000  Uiso   1.00
C898   C     0.55940   0.30947   0.83333   0.00000  Uiso   1.00
C899   C     0.84289   0.40705   0.83333   0.00000  Uiso   1.00
C900   C     0.50000   0.16946   0.71613   0.00000  Uiso   1.00
C901   C     0.50000   0.33054   0.95053   0.00000  Uiso   1.00
C902   C     0.50000   0.33054   0.71613   0.00000  Uiso   1.00
C903   C     0.50000   0.16946   0.95053   0.00000  Uiso   1.00
C904   C     0.75000   0.41946   0.71613   0.00000  Uiso   1.00
C905   C     0.75000   0.08054   0.95053   0.00000  Uiso   1.00
C906   C     0.75000   0.08054   0.71613   0.00000  Uiso   1.00
C907   C     0.75000   0.41946   0.95053   0.00000  Uiso   1.00
C908   C     0.80940   0.44053   0.83333   0.00000  Uiso   1.00
C909   C     0.69060   0.05947   0.83333   0.00000  Uiso   1.00
C910   C     0.69060   0.44053   0.83333   0.00000  Uiso   1.00
C911   C     0.80940   0.05947   0.83333   0.00000  Uiso   1.00
C912   C     0.50000   0.21107   0.69147   0.00000  Uiso   1.00
Cu913  Cu    0.50000   0.25000   0.88022   0.00000  Uiso   1.00
Cu914  Cu    0.50000   0.25000   0.78645   0.00000  Uiso   1.00
Cu915  Cu    0.75000   0.00000   0.88022   0.00000  Uiso   1.00
Cu916  Cu    0.75000   0.00000   0.78645   0.00000  Uiso   1.00
H917   H     0.90296   0.15297   0.75800   0.00000  Uiso   1.00
H918   H     0.84704   0.09704   0.90867   0.00000  Uiso   1.00
H919   H     0.84704   0.09704   0.75800   0.00000  Uiso   1.00
H920   H     0.65296   0.40296   0.90867   0.00000  Uiso   1.00
H921   H     0.84704   0.40297   0.90867   0.00000  Uiso   1.00
H922   H     0.65296   0.09704   0.75800   0.00000  Uiso   1.00
H923   H     0.65296   0.09704   0.90867   0.00000  Uiso   1.00
H924   H     0.84704   0.40296   0.75800   0.00000  Uiso   1.00
H925   H     0.59704   0.34703   0.90867   0.00000  Uiso   1.00
H926   H     0.59704   0.34704   0.75800   0.00000  Uiso   1.00
H927   H     0.90296   0.15296   0.90867   0.00000  Uiso   1.00
H928   H     0.59704   0.15297   0.90867   0.00000  Uiso   1.00
H929   H     0.90296   0.34704   0.75800   0.00000  Uiso   1.00
H930   H     0.90296   0.34704   0.90867   0.00000  Uiso   1.00
H931   H     0.59704   0.15297   0.75800   0.00000  Uiso   1.00
H932   H     0.65296   0.40297   0.75800   0.00000  Uiso   1.00
N933   N     0.50000   0.25000   0.95069   0.00000  Uiso   1.00
N934   N     0.75000   0.11410   0.93115   0.00000  Uiso   1.00
N935   N     0.75000   0.11410   0.73552   0.00000  Uiso   1.00
N936   N     0.75000   0.38590   0.93115   0.00000  Uiso   1.00
N937   N     0.50000   0.25000   0.71598   0.00000  Uiso   1.00
N938   N     0.75000   0.00000   0.95069   0.00000  Uiso   1.00
N939   N     0.75000   0.00000   0.71598   0.00000  Uiso   1.00
N940   N     0.50000   0.13590   0.73552   0.00000  Uiso   1.00
N941   N     0.50000   0.36410   0.93115   0.00000  Uiso   1.00
N942   N     0.50000   0.36410   0.73552   0.00000  Uiso   1.00
N943   N     0.50000   0.13590   0.93115   0.00000  Uiso   1.00
N944   N     0.75000   0.38590   0.73552   0.00000  Uiso   1.00
O945   O     0.54508   0.20491   0.87291   0.00000  Uiso   1.00
O946   O     0.70491   0.04509   0.79375   0.00000  Uiso   1.00
O947   O     0.70491   0.04509   0.87291   0.00000  Uiso   1.00
O948   O     0.79508   0.45491   0.79375   0.00000  Uiso   1.00
O949   O     0.70491   0.45491   0.79375   0.00000  Uiso   1.00
O950   O     0.79508   0.04509   0.87291   0.00000  Uiso   1.00
O951   O     0.79508   0.04509   0.79375   0.00000  Uiso   1.00
O952   O     0.70491   0.45491   0.87291   0.00000  Uiso   1.00
O953   O     0.95491   0.29509   0.79375   0.00000  Uiso   1.00
O954   O     0.95491   0.29509   0.87291   0.00000  Uiso   1.00
O955   O     0.54508   0.20491   0.79375   0.00000  Uiso   1.00
O956   O     0.95491   0.20491   0.79375   0.00000  Uiso   1.00
O957   O     0.54508   0.29509   0.87291   0.00000  Uiso   1.00
O958   O     0.54508   0.29509   0.79375   0.00000  Uiso   1.00
O959   O     0.95491   0.20491   0.87291   0.00000  Uiso   1.00
O960   O     0.79508   0.45491   0.87291   0.00000  Uiso   1.00
C961   C     0.05940   0.69053   0.83333   0.00000  Uiso   1.00
C962   C     0.00000   0.78893   0.97519   0.00000  Uiso   1.00
C963   C     0.00000   0.78893   0.69147   0.00000  Uiso   1.00
C964   C     0.00000   0.71107   0.97519   0.00000  Uiso   1.00
C965   C     0.25000   0.96107   0.69147   0.00000  Uiso   1.00
C966   C     0.25000   0.53893   0.97519   0.00000  Uiso   1.00
C967   C     0.25000   0.53893   0.69147   0.00000  Uiso   1.00
C968   C     0.25000   0.96107   0.97519   0.00000  Uiso   1.00
C969   C     0.39098   0.64096   0.79106   0.00000  Uiso   1.00
C970   C     0.10902   0.85904   0.87561   0.00000  Uiso   1.00
C971   C     0.10902   0.85904   0.79106   0.00000  Uiso   1.00
C972   C     0.44060   0.80947   0.83333   0.00000  Uiso   1.00
C973   C     0.39098   0.64096   0.87561   0.00000  Uiso   1.00
C974   C     0.10902   0.64096   0.87561   0.00000  Uiso   1.00
C975   C     0.39098   0.85904   0.79106   0.00000  Uiso   1.00
C976   C     0.39098   0.85904   0.87561   0.00000  Uiso   1.00
C977   C     0.10902   0.64096   0.79106   0.00000  Uiso   1.00
C978   C     0.14098   0.89096   0.79106   0.00000  Uiso   1.00
C979   C     0.35902   0.60904   0.87561   0.00000  Uiso   1.00
C980   C     0.35902   0.60904   0.79106   0.00000  Uiso   1.00
C981   C     0.14098   0.89096   0.87561   0.00000  Uiso   1.00
C982   C     0.35902   0.89096   0.87561   0.00000  Uiso   1.00
C983   C     0.44060   0.69053   0.83333   0.00000  Uiso   1.00
C984   C     0.14098   0.60904   0.79106   0.00000  Uiso   1.00
C985   C     0.14098   0.60904   0.87561   0.00000  Uiso   1.00
C986   C     0.35902   0.89096   0.79106   0.00000  Uiso   1.00
C987   C     0.09289   0.84295   0.83333   0.00000  Uiso   1.00
C988   C     0.40711   0.65705   0.83333   0.00000  Uiso   1.00
C989   C     0.40711   0.84295   0.83333   0.00000  Uiso   1.00
C990   C     0.09289   0.65705   0.83333   0.00000  Uiso   1.00
C991   C     0.34289   0.59295   0.83333   0.00000  Uiso   1.00
C992   C     0.15711   0.90705   0.83333   0.00000  Uiso   1.00
C993   C     0.15711   0.59295   0.83333   0.00000  Uiso   1.00
C994   C     0.05940   0.80947   0.83333   0.00000  Uiso   1.00
C995   C     0.34289   0.90705   0.83333   0.00000  Uiso   1.00
C996   C     0.00000   0.66946   0.71613   0.00000  Uiso   1.00
C997   C     0.00000   0.83054   0.95053   0.00000  Uiso   1.00
C998   C     0.00000   0.83054   0.71613   0.00000  Uiso   1.00
C999   C     0.00000   0.66946   0.95053   0.00000  Uiso   1.00
C1000  C     0.25000   0.91946   0.71613   0.00000  Uiso   1.00
C1001  C     0.25000   0.58054   0.95053   0.00000  Uiso   1.00
C1002  C     0.25000   0.58054   0.71613   0.00000  Uiso   1.00
C1003  C     0.25000   0.91946   0.95053   0.00000  Uiso   1.00
C1004  C     0.30940   0.94053   0.83333   0.00000  Uiso   1.00
C1005  C     0.19060   0.55947   0.83333   0.00000  Uiso   1.00
C1006  C     0.19060   0.94053   0.83333   0.00000  Uiso   1.00
C1007  C     0.30940   0.55947   0.83333   0.00000  Uiso   1.00
C1008  C     0.00000   0.71107   0.69147   0.00000  Uiso   1.00
Cu1009 Cu    0.00000   0.75000   0.88022   0.00000  Uiso   1.00
Cu1010 Cu    0.00000   0.75000   0.78645   0.00000  Uiso   1.00
Cu1011 Cu    0.25000   0.50000   0.88022   0.00000  Uiso   1.00
Cu1012 Cu    0.25000   0.50000   0.78645   0.00000  Uiso   1.00
H1013  H     0.40296   0.65297   0.75800   0.00000  Uiso   1.00
H1014  H     0.34704   0.59704   0.90867   0.00000  Uiso   1.00
H1015  H     0.34704   0.59704   0.75800   0.00000  Uiso   1.00
H1016  H     0.15296   0.90296   0.90867   0.00000  Uiso   1.00
H1017  H     0.34704   0.90297   0.90867   0.00000  Uiso   1.00
H1018  H     0.15296   0.59704   0.75800   0.00000  Uiso   1.00
H1019  H     0.15296   0.59704   0.90867   0.00000  Uiso   1.00
H1020  H     0.34704   0.90296   0.75800   0.00000  Uiso   1.00
H1021  H     0.09704   0.84703   0.90867   0.00000  Uiso   1.00
H1022  H     0.09704   0.84704   0.75800   0.00000  Uiso   1.00
H1023  H     0.40296   0.65296   0.90867   0.00000  Uiso   1.00
H1024  H     0.09704   0.65297   0.90867   0.00000  Uiso   1.00
H1025  H     0.40296   0.84704   0.75800   0.00000  Uiso   1.00
H1026  H     0.40296   0.84704   0.90867   0.00000  Uiso   1.00
H1027  H     0.09704   0.65297   0.75800   0.00000  Uiso   1.00
H1028  H     0.15296   0.90297   0.75800   0.00000  Uiso   1.00
N1029  N     0.00000   0.75000   0.95069   0.00000  Uiso   1.00
N1030  N     0.25000   0.61410   0.93115   0.00000  Uiso   1.00
N1031  N     0.25000   0.61410   0.73552   0.00000  Uiso   1.00
N1032  N     0.25000   0.88590   0.93115   0.00000  Uiso   1.00
N1033  N     0.00000   0.75000   0.71598   0.00000  Uiso   1.00
N1034  N     0.25000   0.50000   0.95069   0.00000  Uiso   1.00
N1035  N     0.25000   0.50000   0.71598   0.00000  Uiso   1.00
N1036  N     0.00000   0.63590   0.73552   0.00000  Uiso   1.00
N1037  N     0.00000   0.86410   0.93115   0.00000  Uiso   1.00
N1038  N     0.00000   0.86410   0.73552   0.00000  Uiso   1.00
N1039  N     0.00000   0.63590   0.93115   0.00000  Uiso   1.00
N1040  N     0.25000   0.88590   0.73552   0.00000  Uiso   1.00
O1041  O     0.04508   0.70491   0.87291   0.00000  Uiso   1.00
O1042  O     0.20491   0.54509   0.79375   0.00000  Uiso   1.00
O1043  O     0.20491   0.54509   0.87291   0.00000  Uiso   1.00
O1044  O     0.29508   0.95491   0.79375   0.00000  Uiso   1.00
O1045  O     0.20491   0.95491   0.79375   0.00000  Uiso   1.00
O1046  O     0.29508   0.54509   0.87291   0.00000  Uiso   1.00
O1047  O     0.29508   0.54509   0.79375   0.00000  Uiso   1.00
O1048  O     0.20491   0.95491   0.87291   0.00000  Uiso   1.00
O1049  O     0.45491   0.79509   0.79375   0.00000  Uiso   1.00
O1050  O     0.45491   0.79509   0.87291   0.00000  Uiso   1.00
O1051  O     0.04508   0.70491   0.79375   0.00000  Uiso   1.00
O1052  O     0.45491   0.70491   0.79375   0.00000  Uiso   1.00
O1053  O     0.04508   0.79509   0.87291   0.00000  Uiso   1.00
O1054  O     0.04508   0.79509   0.79375   0.00000  Uiso   1.00
O1055  O     0.45491   0.70491   0.87291   0.00000  Uiso   1.00
O1056  O     0.29508   0.95491   0.87291   0.00000  Uiso   1.00
C1057  C     0.55940   0.69053   0.83333   0.00000  Uiso   1.00
C1058  C     0.50000   0.78893   0.97519   0.00000  Uiso   1.00
C1059  C     0.50000   0.78893   0.69147   0.00000  Uiso   1.00
C1060  C     0.50000   0.71107   0.97519   0.00000  Uiso   1.00
C1061  C     0.75000   0.96107   0.69147   0.00000  Uiso   1.00
C1062  C     0.75000   0.53893   0.97519   0.00000  Uiso   1.00
C1063  C     0.75000   0.53893   0.69147   0.00000  Uiso   1.00
C1064  C     0.75000   0.96107   0.97519   0.00000  Uiso   1.00
C1065  C     0.89098   0.64096   0.79106   0.00000  Uiso   1.00
C1066  C     0.60902   0.85904   0.87561   0.00000  Uiso   1.00
C1067  C     0.60902   0.85904   0.79106   0.00000  Uiso   1.00
C1068  C     0.94060   0.80947   0.83333   0.00000  Uiso   1.00
C1069  C     0.89098   0.64096   0.87561   0.00000  Uiso   1.00
C1070  C     0.60902   0.64096   0.87561   0.00000  Uiso   1.00
C1071  C     0.89098   0.85904   0.79106   0.00000  Uiso   1.00
C1072  C     0.89098   0.85904   0.87561   0.00000  Uiso   1.00
C1073  C     0.60902   0.64096   0.79106   0.00000  Uiso   1.00
C1074  C     0.64098   0.89096   0.79106   0.00000  Uiso   1.00
C1075  C     0.85902   0.60904   0.87561   0.00000  Uiso   1.00
C1076  C     0.85902   0.60904   0.79106   0.00000  Uiso   1.00
C1077  C     0.64098   0.89096   0.87561   0.00000  Uiso   1.00
C1078  C     0.85902   0.89096   0.87561   0.00000  Uiso   1.00
C1079  C     0.94060   0.69053   0.83333   0.00000  Uiso   1.00
C1080  C     0.64098   0.60904   0.79106   0.00000  Uiso   1.00
C1081  C     0.64098   0.60904   0.87561   0.00000  Uiso   1.00
C1082  C     0.85902   0.89096   0.79106   0.00000  Uiso   1.00
C1083  C     0.59289   0.84295   0.83333   0.00000  Uiso   1.00
C1084  C     0.90711   0.65705   0.83333   0.00000  Uiso   1.00
C1085  C     0.90711   0.84295   0.83333   0.00000  Uiso   1.00
C1086  C     0.59289   0.65705   0.83333   0.00000  Uiso   1.00
C1087  C     0.84289   0.59295   0.83333   0.00000  Uiso   1.00
C1088  C     0.65711   0.90705   0.83333   0.00000  Uiso   1.00
C1089  C     0.65711   0.59295   0.83333   0.00000  Uiso   1.00
C1090  C     0.55940   0.80947   0.83333   0.00000  Uiso   1.00
C1091  C     0.84289   0.90705   0.83333   0.00000  Uiso   1.00
C1092  C     0.50000   0.66946   0.71613   0.00000  Uiso   1.00
C1093  C     0.50000   0.83054   0.95053   0.00000  Uiso   1.00
C1094  C     0.50000   0.83054   0.71613   0.00000  Uiso   1.00
C1095  C     0.50000   0.66946   0.95053   0.00000  Uiso   1.00
C1096  C     0.75000   0.91946   0.71613   0.00000  Uiso   1.00
C1097  C     0.75000   0.58054   0.95053   0.00000  Uiso   1.00
C1098  C     0.75000   0.58054   0.71613   0.00000  Uiso   1.00
C1099  C     0.75000   0.91946   0.95053   0.00000  Uiso   1.00
C1100  C     0.80940   0.94053   0.83333   0.00000  Uiso   1.00
C1101  C     0.69060   0.55947   0.83333   0.00000  Uiso   1.00
C1102  C     0.69060   0.94053   0.83333   0.00000  Uiso   1.00
C1103  C     0.80940   0.55947   0.83333   0.00000  Uiso   1.00
C1104  C     0.50000   0.71107   0.69147   0.00000  Uiso   1.00
Cu1105 Cu    0.50000   0.75000   0.88022   0.00000  Uiso   1.00
Cu1106 Cu    0.50000   0.75000   0.78645   0.00000  Uiso   1.00
Cu1107 Cu    0.75000   0.50000   0.88022   0.00000  Uiso   1.00
Cu1108 Cu    0.75000   0.50000   0.78645   0.00000  Uiso   1.00
H1109  H     0.90296   0.65297   0.75800   0.00000  Uiso   1.00
H1110  H     0.84704   0.59704   0.90867   0.00000  Uiso   1.00
H1111  H     0.84704   0.59704   0.75800   0.00000  Uiso   1.00
H1112  H     0.65296   0.90296   0.90867   0.00000  Uiso   1.00
H1113  H     0.84704   0.90297   0.90867   0.00000  Uiso   1.00
H1114  H     0.65296   0.59704   0.75800   0.00000  Uiso   1.00
H1115  H     0.65296   0.59704   0.90867   0.00000  Uiso   1.00
H1116  H     0.84704   0.90296   0.75800   0.00000  Uiso   1.00
H1117  H     0.59704   0.84703   0.90867   0.00000  Uiso   1.00
H1118  H     0.59704   0.84704   0.75800   0.00000  Uiso   1.00
H1119  H     0.90296   0.65296   0.90867   0.00000  Uiso   1.00
H1120  H     0.59704   0.65297   0.90867   0.00000  Uiso   1.00
H1121  H     0.90296   0.84704   0.75800   0.00000  Uiso   1.00
H1122  H     0.90296   0.84704   0.90867   0.00000  Uiso   1.00
H1123  H     0.59704   0.65297   0.75800   0.00000  Uiso   1.00
H1124  H     0.65296   0.90297   0.75800   0.00000  Uiso   1.00
N1125  N     0.50000   0.75000   0.95069   0.00000  Uiso   1.00
N1126  N     0.75000   0.61410   0.93115   0.00000  Uiso   1.00
N1127  N     0.75000   0.61410   0.73552   0.00000  Uiso   1.00
N1128  N     0.75000   0.88590   0.93115   0.00000  Uiso   1.00
N1129  N     0.50000   0.75000   0.71598   0.00000  Uiso   1.00
N1130  N     0.75000   0.50000   0.95069   0.00000  Uiso   1.00
N1131  N     0.75000   0.50000   0.71598   0.00000  Uiso   1.00
N1132  N     0.50000   0.63590   0.73552   0.00000  Uiso   1.00
N1133  N     0.50000   0.86410   0.93115   0.00000  Uiso   1.00
N1134  N     0.50000   0.86410   0.73552   0.00000  Uiso   1.00
N1135  N     0.50000   0.63590   0.93115   0.00000  Uiso   1.00
N1136  N     0.75000   0.88590   0.73552   0.00000  Uiso   1.00
O1137  O     0.54508   0.70491   0.87291   0.00000  Uiso   1.00
O1138  O     0.70491   0.54509   0.79375   0.00000  Uiso   1.00
O1139  O     0.70491   0.54509   0.87291   0.00000  Uiso   1.00
O1140  O     0.79508   0.95491   0.79375   0.00000  Uiso   1.00
O1141  O     0.70491   0.95491   0.79375   0.00000  Uiso   1.00
O1142  O     0.79508   0.54509   0.87291   0.00000  Uiso   1.00
O1143  O     0.79508   0.54509   0.79375   0.00000  Uiso   1.00
O1144  O     0.70491   0.95491   0.87291   0.00000  Uiso   1.00
O1145  O     0.95491   0.79509   0.79375   0.00000  Uiso   1.00
O1146  O     0.95491   0.79509   0.87291   0.00000  Uiso   1.00
O1147  O     0.54508   0.70491   0.79375   0.00000  Uiso   1.00
O1148  O     0.95491   0.70491   0.79375   0.00000  Uiso   1.00
O1149  O     0.54508   0.79509   0.87291   0.00000  Uiso   1.00
O1150  O     0.54508   0.79509   0.79375   0.00000  Uiso   1.00
O1151  O     0.95491   0.70491   0.87291   0.00000  Uiso   1.00
O1152  O     0.79508   0.95491   0.87291   0.00000  Uiso   1.00
loop_
_geom_bond_atom_site_label_1
_geom_bond_atom_site_label_2
_geom_bond_distance
_geom_bond_site_symmetry_2
_ccdc_geom_bond_type
C1     O81     1.296   .     A
C1     C30     1.451   .     S
C1     O91     1.296   .     A
C2     N69     1.372   .     A
C2     C37     1.444   .     S
C2     C387    1.426   .     S
C3     C38     1.444   .     S
C3     N73     1.372   .     A
C3     C770    1.426   1_554 S
C4     N69     1.372   .     A
C4     C39     1.444   .     S
C4     C432    1.426   .     S
C5     C40     1.444   .     S
C5     C776    1.426   1_554 S
C5     N267    1.372   .     S
C6     C41     1.444   .     S
C6     C391    1.426   .     S
C6     N74     1.372   .     S
C7     C42     1.444   .     S
C7     N75     1.372   .     A
C7     C774    1.426   1_554 S
C8     N266    1.372   .     A
C8     C43     1.444   .     S
C8     C389    1.426   .     S
C9     C20     1.383   .     A
C9     H53     1.083   .     S
C9     C28     1.401   .     A
C10    C27     1.401   .     A
C10    C21     1.383   .     A
C10    H61     1.083   .     S
C11    C18     1.383   .     A
C11    H62     1.083   .     S
C11    C27     1.401   .     A
C12    C29     1.451   .     S
C12    O90     1.296   .     A
C12    O89     1.296   .     A
C13    C28     1.401   .     A
C13    C19     1.383   .     A
C13    H63     1.083   .     S
C14    C30     1.401   .     A
C14    H64     1.083   .     S
C14    C25     1.383   .     A
C15    H65     1.083   .     S
C15    C29     1.401   .     A
C15    C26     1.383   .     A
C16    C29     1.401   .     A
C16    C22     1.383   .     A
C16    H66     1.083   .     S
C17    C30     1.401   .     A
C17    H67     1.083   .     S
C17    C24     1.383   .     A
C18    C32     1.401   .     A
C18    H68     1.083   .     S
C19    C31     1.401   .     A
C19    H54     1.083   .     S
C20    H55     1.083   .     S
C20    C31     1.401   .     A
C21    C32     1.401   .     A
C21    H56     1.083   .     S
C22    H57     1.083   .     S
C22    C35     1.401   .     A
C23    C28     1.451   .     S
C23    O95     1.296   .     A
C23    O92     1.296   .     A
C24    H58     1.083   .     S
C24    C33     1.401   .     A
C25    C33     1.401   .     A
C25    H59     1.083   .     S
C26    C35     1.401   .     A
C26    H60     1.083   .     S
C27    C34     1.451   .     S
C31    C47     1.451   .     S
C32    C46     1.451   .     S
C33    C45     1.451   .     S
C34    O94     1.296   .     A
C34    O93     1.296   .     A
C35    C44     1.451   .     S
C36    N76     1.158   .     T
C36    C48     1.444   .     S
C37    N77     1.158   .     T
C38    N78     1.158   .     T
C39    N79     1.158   .     T
C40    N80     1.158   .     T
C41    N70     1.158   .     T
C42    N71     1.158   .     T
C43    N72     1.158   .     T
C44    O96     1.296   .     A
C44    O84     1.296   .     A
C45    O82     1.296   .     A
C45    O83     1.296   .     A
C46    O85     1.296   .     A
C46    O88     1.296   .     A
C47    O86     1.296   .     A
C47    O87     1.296   .     A
C48    N73     1.372   .     A
C48    C772    1.426   1_554 S
Cu49   O81     1.964   .     S
Cu49   Cu50    2.695   .     S
Cu49   N69     2.026   .     S
Cu49   O93     1.964   .     S
Cu49   O186    1.964   1_455 S
Cu49   O191    1.964   1_455 S
Cu50   N73     2.026   .     S
Cu50   O94     1.964   .     S
Cu50   O91     1.964   .     S
Cu50   O185    1.964   1_455 S
Cu50   O188    1.964   1_455 S
Cu51   O86     1.964   .     S
Cu51   Cu52    2.695   .     S
Cu51   O83     1.964   .     S
Cu51   N74     2.026   .     S
Cu51   O280    1.964   1_545 S
Cu51   O288    1.964   1_545 S
Cu52   N75     2.026   .     S
Cu52   O82     1.964   .     S
Cu52   O87     1.964   .     S
Cu52   O276    1.964   1_545 S
Cu52   O277    1.964   1_545 S
N74    C200    1.372   1_545 A
N75    C197    1.372   1_545 S
O84    Cu244   1.964   .     S
O85    Cu244   1.964   .     S
O88    Cu243   1.964   .     S
O89    Cu146   1.964   .     S
O90    Cu145   1.964   .     S
O92    Cu146   1.964   .     S
O95    Cu145   1.964   .     S
O96    Cu243   1.964   .     S
C97    O177    1.296   .     A
C97    C126    1.451   .     S
C97    O187    1.296   .     A
C98    N165    1.372   .     A
C98    C133    1.444   .     S
C98    C483    1.426   .     S
C99    C134    1.444   .     S
C99    N169    1.372   .     A
C99    C866    1.426   1_554 S
C100   N165    1.372   .     A
C100   C135    1.444   .     S
C100   C528    1.426   .     S
C101   C136    1.444   .     S
C101   C872    1.426   1_554 S
C101   N363    1.372   .     S
C102   C137    1.444   .     S
C102   C487    1.426   .     S
C102   N170    1.372   .     S
C103   C138    1.444   .     S
C103   N171    1.372   .     A
C103   C870    1.426   1_554 S
C104   N362    1.372   .     A
C104   C139    1.444   .     S
C104   C485    1.426   .     S
C105   C116    1.383   .     A
C105   H149    1.083   .     S
C105   C124    1.401   .     A
C106   C123    1.401   .     A
C106   C117    1.383   .     A
C106   H157    1.083   .     S
C107   C114    1.383   .     A
C107   H158    1.083   .     S
C107   C123    1.401   .     A
C108   C125    1.451   .     S
C108   O186    1.296   .     A
C108   O185    1.296   .     A
C109   C124    1.401   .     A
C109   C115    1.383   .     A
C109   H159    1.083   .     S
C110   C126    1.401   .     A
C110   H160    1.083   .     S
C110   C121    1.383   .     A
C111   H161    1.083   .     S
C111   C125    1.401   .     A
C111   C122    1.383   .     A
C112   C125    1.401   .     A
C112   C118    1.383   .     A
C112   H162    1.083   .     S
C113   C126    1.401   .     A
C113   H163    1.083   .     S
C113   C120    1.383   .     A
C114   C128    1.401   .     A
C114   H164    1.083   .     S
C115   C127    1.401   .     A
C115   H150    1.083   .     S
C116   H151    1.083   .     S
C116   C127    1.401   .     A
C117   C128    1.401   .     A
C117   H152    1.083   .     S
C118   H153    1.083   .     S
C118   C131    1.401   .     A
C119   C124    1.451   .     S
C119   O191    1.296   .     A
C119   O188    1.296   .     A
C120   H154    1.083   .     S
C120   C129    1.401   .     A
C121   C129    1.401   .     A
C121   H155    1.083   .     S
C122   C131    1.401   .     A
C122   H156    1.083   .     S
C123   C130    1.451   .     S
C127   C143    1.451   .     S
C128   C142    1.451   .     S
C129   C141    1.451   .     S
C130   O190    1.296   .     A
C130   O189    1.296   .     A
C131   C140    1.451   .     S
C132   N172    1.158   .     T
C132   C144    1.444   .     S
C133   N173    1.158   .     T
C134   N174    1.158   .     T
C135   N175    1.158   .     T
C136   N176    1.158   .     T
C137   N166    1.158   .     T
C138   N167    1.158   .     T
C139   N168    1.158   .     T
C140   O192    1.296   .     A
C140   O180    1.296   .     A
C141   O178    1.296   .     A
C141   O179    1.296   .     A
C142   O181    1.296   .     A
C142   O184    1.296   .     A
C143   O182    1.296   .     A
C143   O183    1.296   .     A
C144   N169    1.372   .     A
C144   C868    1.426   1_554 S
Cu145  O177    1.964   .     S
Cu145  Cu146   2.695   .     S
Cu145  N165    2.026   .     S
Cu145  O189    1.964   .     S
Cu146  N169    2.026   .     S
Cu146  O190    1.964   .     S
Cu146  O187    1.964   .     S
Cu147  O182    1.964   .     S
Cu147  Cu148   2.695   .     S
Cu147  O179    1.964   .     S
Cu147  N170    2.026   .     S
Cu147  O376    1.964   1_545 S
Cu147  O384    1.964   1_545 S
Cu148  N171    2.026   .     S
Cu148  O178    1.964   .     S
Cu148  O183    1.964   .     S
Cu148  O372    1.964   1_545 S
Cu148  O373    1.964   1_545 S
N170   C296    1.372   1_545 A
N171   C293    1.372   1_545 S
O180   Cu340   1.964   .     S
O181   Cu340   1.964   .     S
O184   Cu339   1.964   .     S
O185   Cu50    1.964   1_655 S
O186   Cu49    1.964   1_655 S
O188   Cu50    1.964   1_655 S
O191   Cu49    1.964   1_655 S
O192   Cu339   1.964   .     S
C193   O273    1.296   .     A
C193   C222    1.451   .     S
C193   O283    1.296   .     A
C194   N261    1.372   .     A
C194   C229    1.444   .     S
C194   C579    1.426   .     S
C195   C230    1.444   .     S
C195   N265    1.372   .     A
C195   C962    1.426   1_554 S
C196   N261    1.372   .     A
C196   C231    1.444   .     S
C196   C624    1.426   .     S
C197   C232    1.444   .     S
C197   C968    1.426   1_554 S
C197   N75     1.372   1_565 S
C198   C233    1.444   .     S
C198   C583    1.426   .     S
C198   N266    1.372   .     S
C199   C234    1.444   .     S
C199   N267    1.372   .     A
C199   C966    1.426   1_554 S
C200   N74     1.372   1_565 A
C200   C235    1.444   .     S
C200   C581    1.426   .     S
C201   C212    1.383   .     A
C201   H245    1.083   .     S
C201   C220    1.401   .     A
C202   C219    1.401   .     A
C202   C213    1.383   .     A
C202   H253    1.083   .     S
C203   C210    1.383   .     A
C203   H254    1.083   .     S
C203   C219    1.401   .     A
C204   C221    1.451   .     S
C204   O282    1.296   .     A
C204   O281    1.296   .     A
C205   C220    1.401   .     A
C205   C211    1.383   .     A
C205   H255    1.083   .     S
C206   C222    1.401   .     A
C206   H256    1.083   .     S
C206   C217    1.383   .     A
C207   H257    1.083   .     S
C207   C221    1.401   .     A
C207   C218    1.383   .     A
C208   C221    1.401   .     A
C208   C214    1.383   .     A
C208   H258    1.083   .     S
C209   C222    1.401   .     A
C209   H259    1.083   .     S
C209   C216    1.383   .     A
C210   C224    1.401   .     A
C210   H260    1.083   .     S
C211   C223    1.401   .     A
C211   H246    1.083   .     S
C212   H247    1.083   .     S
C212   C223    1.401   .     A
C213   C224    1.401   .     A
C213   H248    1.083   .     S
C214   H249    1.083   .     S
C214   C227    1.401   .     A
C215   C220    1.451   .     S
C215   O287    1.296   .     A
C215   O284    1.296   .     A
C216   H250    1.083   .     S
C216   C225    1.401   .     A
C217   C225    1.401   .     A
C217   H251    1.083   .     S
C218   C227    1.401   .     A
C218   H252    1.083   .     S
C219   C226    1.451   .     S
C223   C239    1.451   .     S
C224   C238    1.451   .     S
C225   C237    1.451   .     S
C226   O286    1.296   .     A
C226   O285    1.296   .     A
C227   C236    1.451   .     S
C228   N268    1.158   .     T
C228   C240    1.444   .     S
C229   N269    1.158   .     T
C230   N270    1.158   .     T
C231   N271    1.158   .     T
C232   N272    1.158   .     T
C233   N262    1.158   .     T
C234   N263    1.158   .     T
C235   N264    1.158   .     T
C236   O288    1.296   .     A
C236   O276    1.296   .     A
C237   O274    1.296   .     A
C237   O275    1.296   .     A
C238   O277    1.296   .     A
C238   O280    1.296   .     A
C239   O278    1.296   .     A
C239   O279    1.296   .     A
C240   N265    1.372   .     A
C240   C964    1.426   1_554 S
Cu241  O273    1.964   .     S
Cu241  Cu242   2.695   .     S
Cu241  N261    2.026   .     S
Cu241  O285    1.964   .     S
Cu241  O378    1.964   1_455 S
Cu241  O383    1.964   1_455 S
Cu242  N265    2.026   .     S
Cu242  O286    1.964   .     S
Cu242  O283    1.964   .     S
Cu242  O377    1.964   1_455 S
Cu242  O380    1.964   1_455 S
Cu243  O278    1.964   .     S
Cu243  Cu244   2.695   .     S
Cu243  O275    1.964   .     S
Cu243  N266    2.026   .     S
Cu244  N267    2.026   .     S
Cu244  O274    1.964   .     S
Cu244  O279    1.964   .     S
O276   Cu52    1.964   1_565 S
O277   Cu52    1.964   1_565 S
O280   Cu51    1.964   1_565 S
O281   Cu338   1.964   .     S
O282   Cu337   1.964   .     S
O284   Cu338   1.964   .     S
O287   Cu337   1.964   .     S
O288   Cu51    1.964   1_565 S
C289   O369    1.296   .     A
C289   C318    1.451   .     S
C289   O379    1.296   .     A
C290   N357    1.372   .     A
C290   C325    1.444   .     S
C290   C675    1.426   .     S
C291   C326    1.444   .     S
C291   N361    1.372   .     A
C291   C1058   1.426   1_554 S
C292   N357    1.372   .     A
C292   C327    1.444   .     S
C292   C720    1.426   .     S
C293   C328    1.444   .     S
C293   C1064   1.426   1_554 S
C293   N171    1.372   1_565 S
C294   C329    1.444   .     S
C294   C679    1.426   .     S
C294   N362    1.372   .     S
C295   C330    1.444   .     S
C295   N363    1.372   .     A
C295   C1062   1.426   1_554 S
C296   N170    1.372   1_565 A
C296   C331    1.444   .     S
C296   C677    1.426   .     S
C297   C308    1.383   .     A
C297   H341    1.083   .     S
C297   C316    1.401   .     A
C298   C315    1.401   .     A
C298   C309    1.383   .     A
C298   H349    1.083   .     S
C299   C306    1.383   .     A
C299   H350    1.083   .     S
C299   C315    1.401   .     A
C300   C317    1.451   .     S
C300   O378    1.296   .     A
C300   O377    1.296   .     A
C301   C316    1.401   .     A
C301   C307    1.383   .     A
C301   H351    1.083   .     S
C302   C318    1.401   .     A
C302   H352    1.083   .     S
C302   C313    1.383   .     A
C303   H353    1.083   .     S
C303   C317    1.401   .     A
C303   C314    1.383   .     A
C304   C317    1.401   .     A
C304   C310    1.383   .     A
C304   H354    1.083   .     S
C305   C318    1.401   .     A
C305   H355    1.083   .     S
C305   C312    1.383   .     A
C306   C320    1.401   .     A
C306   H356    1.083   .     S
C307   C319    1.401   .     A
C307   H342    1.083   .     S
C308   H343    1.083   .     S
C308   C319    1.401   .     A
C309   C320    1.401   .     A
C309   H344    1.083   .     S
C310   H345    1.083   .     S
C310   C323    1.401   .     A
C311   C316    1.451   .     S
C311   O383    1.296   .     A
C311   O380    1.296   .     A
C312   H346    1.083   .     S
C312   C321    1.401   .     A
C313   C321    1.401   .     A
C313   H347    1.083   .     S
C314   C323    1.401   .     A
C314   H348    1.083   .     S
C315   C322    1.451   .     S
C319   C335    1.451   .     S
C320   C334    1.451   .     S
C321   C333    1.451   .     S
C322   O382    1.296   .     A
C322   O381    1.296   .     A
C323   C332    1.451   .     S
C324   N364    1.158   .     T
C324   C336    1.444   .     S
C325   N365    1.158   .     T
C326   N366    1.158   .     T
C327   N367    1.158   .     T
C328   N368    1.158   .     T
C329   N358    1.158   .     T
C330   N359    1.158   .     T
C331   N360    1.158   .     T
C332   O384    1.296   .     A
C332   O372    1.296   .     A
C333   O370    1.296   .     A
C333   O371    1.296   .     A
C334   O373    1.296   .     A
C334   O376    1.296   .     A
C335   O374    1.296   .     A
C335   O375    1.296   .     A
C336   N361    1.372   .     A
C336   C1060   1.426   1_554 S
Cu337  O369    1.964   .     S
Cu337  Cu338   2.695   .     S
Cu337  N357    2.026   .     S
Cu337  O381    1.964   .     S
Cu338  N361    2.026   .     S
Cu338  O382    1.964   .     S
Cu338  O379    1.964   .     S
Cu339  O374    1.964   .     S
Cu339  Cu340   2.695   .     S
Cu339  O371    1.964   .     S
Cu339  N362    2.026   .     S
Cu340  N363    2.026   .     S
Cu340  O370    1.964   .     S
Cu340  O375    1.964   .     S
O372   Cu148   1.964   1_565 S
O373   Cu148   1.964   1_565 S
O376   Cu147   1.964   1_565 S
O377   Cu242   1.964   1_655 S
O378   Cu241   1.964   1_655 S
O380   Cu242   1.964   1_655 S
O383   Cu241   1.964   1_655 S
O384   Cu147   1.964   1_565 S
C385   O465    1.296   .     A
C385   C414    1.451   .     S
C385   O475    1.296   .     A
C386   N453    1.372   .     A
C386   C421    1.444   .     S
C386   C771    1.426   .     S
C387   C422    1.444   .     S
C387   N457    1.372   .     A
C388   N453    1.372   .     A
C388   C423    1.444   .     S
C388   C816    1.426   .     S
C389   C424    1.444   .     S
C389   N651    1.372   .     S
C390   C425    1.444   .     S
C390   C775    1.426   .     S
C390   N458    1.372   .     S
C391   C426    1.444   .     S
C391   N459    1.372   .     A
C392   N650    1.372   .     A
C392   C427    1.444   .     S
C392   C773    1.426   .     S
C393   C404    1.383   .     A
C393   H437    1.083   .     S
C393   C412    1.401   .     A
C394   C411    1.401   .     A
C394   C405    1.383   .     A
C394   H445    1.083   .     S
C395   C402    1.383   .     A
C395   H446    1.083   .     S
C395   C411    1.401   .     A
C396   C413    1.451   .     S
C396   O474    1.296   .     A
C396   O473    1.296   .     A
C397   C412    1.401   .     A
C397   C403    1.383   .     A
C397   H447    1.083   .     S
C398   C414    1.401   .     A
C398   H448    1.083   .     S
C398   C409    1.383   .     A
C399   H449    1.083   .     S
C399   C413    1.401   .     A
C399   C410    1.383   .     A
C400   C413    1.401   .     A
C400   C406    1.383   .     A
C400   H450    1.083   .     S
C401   C414    1.401   .     A
C401   H451    1.083   .     S
C401   C408    1.383   .     A
C402   C416    1.401   .     A
C402   H452    1.083   .     S
C403   C415    1.401   .     A
C403   H438    1.083   .     S
C404   H439    1.083   .     S
C404   C415    1.401   .     A
C405   C416    1.401   .     A
C405   H440    1.083   .     S
C406   H441    1.083   .     S
C406   C419    1.401   .     A
C407   C412    1.451   .     S
C407   O479    1.296   .     A
C407   O476    1.296   .     A
C408   H442    1.083   .     S
C408   C417    1.401   .     A
C409   C417    1.401   .     A
C409   H443    1.083   .     S
C410   C419    1.401   .     A
C410   H444    1.083   .     S
C411   C418    1.451   .     S
C415   C431    1.451   .     S
C416   C430    1.451   .     S
C417   C429    1.451   .     S
C418   O478    1.296   .     A
C418   O477    1.296   .     A
C419   C428    1.451   .     S
C420   N460    1.158   .     T
C420   C432    1.444   .     S
C421   N461    1.158   .     T
C422   N462    1.158   .     T
C423   N463    1.158   .     T
C424   N464    1.158   .     T
C425   N454    1.158   .     T
C426   N455    1.158   .     T
C427   N456    1.158   .     T
C428   O480    1.296   .     A
C428   O468    1.296   .     A
C429   O466    1.296   .     A
C429   O467    1.296   .     A
C430   O469    1.296   .     A
C430   O472    1.296   .     A
C431   O470    1.296   .     A
C431   O471    1.296   .     A
C432   N457    1.372   .     A
Cu433  O465    1.964   .     S
Cu433  Cu434   2.695   .     S
Cu433  N453    2.026   .     S
Cu433  O477    1.964   .     S
Cu433  O570    1.964   1_455 S
Cu433  O575    1.964   1_455 S
Cu434  N457    2.026   .     S
Cu434  O478    1.964   .     S
Cu434  O475    1.964   .     S
Cu434  O569    1.964   1_455 S
Cu434  O572    1.964   1_455 S
Cu435  O470    1.964   .     S
Cu435  Cu436   2.695   .     S
Cu435  O467    1.964   .     S
Cu435  N458    2.026   .     S
Cu435  O664    1.964   1_545 S
Cu435  O672    1.964   1_545 S
Cu436  N459    2.026   .     S
Cu436  O466    1.964   .     S
Cu436  O471    1.964   .     S
Cu436  O660    1.964   1_545 S
Cu436  O661    1.964   1_545 S
N458   C584    1.372   1_545 A
N459   C581    1.372   1_545 S
O468   Cu628   1.964   .     S
O469   Cu628   1.964   .     S
O472   Cu627   1.964   .     S
O473   Cu530   1.964   .     S
O474   Cu529   1.964   .     S
O476   Cu530   1.964   .     S
O479   Cu529   1.964   .     S
O480   Cu627   1.964   .     S
C481   O561    1.296   .     A
C481   C510    1.451   .     S
C481   O571    1.296   .     A
C482   N549    1.372   .     A
C482   C517    1.444   .     S
C482   C867    1.426   .     S
C483   C518    1.444   .     S
C483   N553    1.372   .     A
C484   N549    1.372   .     A
C484   C519    1.444   .     S
C484   C912    1.426   .     S
C485   C520    1.444   .     S
C485   N747    1.372   .     S
C486   C521    1.444   .     S
C486   C871    1.426   .     S
C486   N554    1.372   .     S
C487   C522    1.444   .     S
C487   N555    1.372   .     A
C488   N746    1.372   .     A
C488   C523    1.444   .     S
C488   C869    1.426   .     S
C489   C500    1.383   .     A
C489   H533    1.083   .     S
C489   C508    1.401   .     A
C490   C507    1.401   .     A
C490   C501    1.383   .     A
C490   H541    1.083   .     S
C491   C498    1.383   .     A
C491   H542    1.083   .     S
C491   C507    1.401   .     A
C492   C509    1.451   .     S
C492   O570    1.296   .     A
C492   O569    1.296   .     A
C493   C508    1.401   .     A
C493   C499    1.383   .     A
C493   H543    1.083   .     S
C494   C510    1.401   .     A
C494   H544    1.083   .     S
C494   C505    1.383   .     A
C495   H545    1.083   .     S
C495   C509    1.401   .     A
C495   C506    1.383   .     A
C496   C509    1.401   .     A
C496   C502    1.383   .     A
C496   H546    1.083   .     S
C497   C510    1.401   .     A
C497   H547    1.083   .     S
C497   C504    1.383   .     A
C498   C512    1.401   .     A
C498   H548    1.083   .     S
C499   C511    1.401   .     A
C499   H534    1.083   .     S
C500   H535    1.083   .     S
C500   C511    1.401   .     A
C501   C512    1.401   .     A
C501   H536    1.083   .     S
C502   H537    1.083   .     S
C502   C515    1.401   .     A
C503   C508    1.451   .     S
C503   O575    1.296   .     A
C503   O572    1.296   .     A
C504   H538    1.083   .     S
C504   C513    1.401   .     A
C505   C513    1.401   .     A
C505   H539    1.083   .     S
C506   C515    1.401   .     A
C506   H540    1.083   .     S
C507   C514    1.451   .     S
C511   C527    1.451   .     S
C512   C526    1.451   .     S
C513   C525    1.451   .     S
C514   O574    1.296   .     A
C514   O573    1.296   .     A
C515   C524    1.451   .     S
C516   N556    1.158   .     T
C516   C528    1.444   .     S
C517   N557    1.158   .     T
C518   N558    1.158   .     T
C519   N559    1.158   .     T
C520   N560    1.158   .     T
C521   N550    1.158   .     T
C522   N551    1.158   .     T
C523   N552    1.158   .     T
C524   O576    1.296   .     A
C524   O564    1.296   .     A
C525   O562    1.296   .     A
C525   O563    1.296   .     A
C526   O565    1.296   .     A
C526   O568    1.296   .     A
C527   O566    1.296   .     A
C527   O567    1.296   .     A
C528   N553    1.372   .     A
Cu529  O561    1.964   .     S
Cu529  Cu530   2.695   .     S
Cu529  N549    2.026   .     S
Cu529  O573    1.964   .     S
Cu530  N553    2.026   .     S
Cu530  O574    1.964   .     S
Cu530  O571    1.964   .     S
Cu531  O566    1.964   .     S
Cu531  Cu532   2.695   .     S
Cu531  O563    1.964   .     S
Cu531  N554    2.026   .     S
Cu531  O760    1.964   1_545 S
Cu531  O768    1.964   1_545 S
Cu532  N555    2.026   .     S
Cu532  O562    1.964   .     S
Cu532  O567    1.964   .     S
Cu532  O756    1.964   1_545 S
Cu532  O757    1.964   1_545 S
N554   C680    1.372   1_545 A
N555   C677    1.372   1_545 S
O564   Cu724   1.964   .     S
O565   Cu724   1.964   .     S
O568   Cu723   1.964   .     S
O569   Cu434   1.964   1_655 S
O570   Cu433   1.964   1_655 S
O572   Cu434   1.964   1_655 S
O575   Cu433   1.964   1_655 S
O576   Cu723   1.964   .     S
C577   O657    1.296   .     A
C577   C606    1.451   .     S
C577   O667    1.296   .     A
C578   N645    1.372   .     A
C578   C613    1.444   .     S
C578   C963    1.426   .     S
C579   C614    1.444   .     S
C579   N649    1.372   .     A
C580   N645    1.372   .     A
C580   C615    1.444   .     S
C580   C1008   1.426   .     S
C581   C616    1.444   .     S
C581   N459    1.372   1_565 S
C582   C617    1.444   .     S
C582   C967    1.426   .     S
C582   N650    1.372   .     S
C583   C618    1.444   .     S
C583   N651    1.372   .     A
C584   N458    1.372   1_565 A
C584   C619    1.444   .     S
C584   C965    1.426   .     S
C585   C596    1.383   .     A
C585   H629    1.083   .     S
C585   C604    1.401   .     A
C586   C603    1.401   .     A
C586   C597    1.383   .     A
C586   H637    1.083   .     S
C587   C594    1.383   .     A
C587   H638    1.083   .     S
C587   C603    1.401   .     A
C588   C605    1.451   .     S
C588   O666    1.296   .     A
C588   O665    1.296   .     A
C589   C604    1.401   .     A
C589   C595    1.383   .     A
C589   H639    1.083   .     S
C590   C606    1.401   .     A
C590   H640    1.083   .     S
C590   C601    1.383   .     A
C591   H641    1.083   .     S
C591   C605    1.401   .     A
C591   C602    1.383   .     A
C592   C605    1.401   .     A
C592   C598    1.383   .     A
C592   H642    1.083   .     S
C593   C606    1.401   .     A
C593   H643    1.083   .     S
C593   C600    1.383   .     A
C594   C608    1.401   .     A
C594   H644    1.083   .     S
C595   C607    1.401   .     A
C595   H630    1.083   .     S
C596   H631    1.083   .     S
C596   C607    1.401   .     A
C597   C608    1.401   .     A
C597   H632    1.083   .     S
C598   H633    1.083   .     S
C598   C611    1.401   .     A
C599   C604    1.451   .     S
C599   O671    1.296   .     A
C599   O668    1.296   .     A
C600   H634    1.083   .     S
C600   C609    1.401   .     A
C601   C609    1.401   .     A
C601   H635    1.083   .     S
C602   C611    1.401   .     A
C602   H636    1.083   .     S
C603   C610    1.451   .     S
C607   C623    1.451   .     S
C608   C622    1.451   .     S
C609   C621    1.451   .     S
C610   O670    1.296   .     A
C610   O669    1.296   .     A
C611   C620    1.451   .     S
C612   N652    1.158   .     T
C612   C624    1.444   .     S
C613   N653    1.158   .     T
C614   N654    1.158   .     T
C615   N655    1.158   .     T
C616   N656    1.158   .     T
C617   N646    1.158   .     T
C618   N647    1.158   .     T
C619   N648    1.158   .     T
C620   O672    1.296   .     A
C620   O660    1.296   .     A
C621   O658    1.296   .     A
C621   O659    1.296   .     A
C622   O661    1.296   .     A
C622   O664    1.296   .     A
C623   O662    1.296   .     A
C623   O663    1.296   .     A
C624   N649    1.372   .     A
Cu625  O657    1.964   .     S
Cu625  Cu626   2.695   .     S
Cu625  N645    2.026   .     S
Cu625  O669    1.964   .     S
Cu625  O762    1.964   1_455 S
Cu625  O767    1.964   1_455 S
Cu626  N649    2.026   .     S
Cu626  O670    1.964   .     S
Cu626  O667    1.964   .     S
Cu626  O761    1.964   1_455 S
Cu626  O764    1.964   1_455 S
Cu627  O662    1.964   .     S
Cu627  Cu628   2.695   .     S
Cu627  O659    1.964   .     S
Cu627  N650    2.026   .     S
Cu628  N651    2.026   .     S
Cu628  O658    1.964   .     S
Cu628  O663    1.964   .     S
O660   Cu436   1.964   1_565 S
O661   Cu436   1.964   1_565 S
O664   Cu435   1.964   1_565 S
O665   Cu722   1.964   .     S
O666   Cu721   1.964   .     S
O668   Cu722   1.964   .     S
O671   Cu721   1.964   .     S
O672   Cu435   1.964   1_565 S
C673   O753    1.296   .     A
C673   C702    1.451   .     S
C673   O763    1.296   .     A
C674   N741    1.372   .     A
C674   C709    1.444   .     S
C674   C1059   1.426   .     S
C675   C710    1.444   .     S
C675   N745    1.372   .     A
C676   N741    1.372   .     A
C676   C711    1.444   .     S
C676   C1104   1.426   .     S
C677   C712    1.444   .     S
C677   N555    1.372   1_565 S
C678   C713    1.444   .     S
C678   C1063   1.426   .     S
C678   N746    1.372   .     S
C679   C714    1.444   .     S
C679   N747    1.372   .     A
C680   N554    1.372   1_565 A
C680   C715    1.444   .     S
C680   C1061   1.426   .     S
C681   C692    1.383   .     A
C681   H725    1.083   .     S
C681   C700    1.401   .     A
C682   C699    1.401   .     A
C682   C693    1.383   .     A
C682   H733    1.083   .     S
C683   C690    1.383   .     A
C683   H734    1.083   .     S
C683   C699    1.401   .     A
C684   C701    1.451   .     S
C684   O762    1.296   .     A
C684   O761    1.296   .     A
C685   C700    1.401   .     A
C685   C691    1.383   .     A
C685   H735    1.083   .     S
C686   C702    1.401   .     A
C686   H736    1.083   .     S
C686   C697    1.383   .     A
C687   H737    1.083   .     S
C687   C701    1.401   .     A
C687   C698    1.383   .     A
C688   C701    1.401   .     A
C688   C694    1.383   .     A
C688   H738    1.083   .     S
C689   C702    1.401   .     A
C689   H739    1.083   .     S
C689   C696    1.383   .     A
C690   C704    1.401   .     A
C690   H740    1.083   .     S
C691   C703    1.401   .     A
C691   H726    1.083   .     S
C692   H727    1.083   .     S
C692   C703    1.401   .     A
C693   C704    1.401   .     A
C693   H728    1.083   .     S
C694   H729    1.083   .     S
C694   C707    1.401   .     A
C695   C700    1.451   .     S
C695   O767    1.296   .     A
C695   O764    1.296   .     A
C696   H730    1.083   .     S
C696   C705    1.401   .     A
C697   C705    1.401   .     A
C697   H731    1.083   .     S
C698   C707    1.401   .     A
C698   H732    1.083   .     S
C699   C706    1.451   .     S
C703   C719    1.451   .     S
C704   C718    1.451   .     S
C705   C717    1.451   .     S
C706   O766    1.296   .     A
C706   O765    1.296   .     A
C707   C716    1.451   .     S
C708   N748    1.158   .     T
C708   C720    1.444   .     S
C709   N749    1.158   .     T
C710   N750    1.158   .     T
C711   N751    1.158   .     T
C712   N752    1.158   .     T
C713   N742    1.158   .     T
C714   N743    1.158   .     T
C715   N744    1.158   .     T
C716   O768    1.296   .     A
C716   O756    1.296   .     A
C717   O754    1.296   .     A
C717   O755    1.296   .     A
C718   O757    1.296   .     A
C718   O760    1.296   .     A
C719   O758    1.296   .     A
C719   O759    1.296   .     A
C720   N745    1.372   .     A
Cu721  O753    1.964   .     S
Cu721  Cu722   2.695   .     S
Cu721  N741    2.026   .     S
Cu721  O765    1.964   .     S
Cu722  N745    2.026   .     S
Cu722  O766    1.964   .     S
Cu722  O763    1.964   .     S
Cu723  O758    1.964   .     S
Cu723  Cu724   2.695   .     S
Cu723  O755    1.964   .     S
Cu723  N746    2.026   .     S
Cu724  N747    2.026   .     S
Cu724  O754    1.964   .     S
Cu724  O759    1.964   .     S
O756   Cu532   1.964   1_565 S
O757   Cu532   1.964   1_565 S
O760   Cu531   1.964   1_565 S
O761   Cu626   1.964   1_655 S
O762   Cu625   1.964   1_655 S
O764   Cu626   1.964   1_655 S
O767   Cu625   1.964   1_655 S
O768   Cu531   1.964   1_565 S
C769   O849    1.296   .     A
C769   C798    1.451   .     S
C769   O859    1.296   .     A
C770   N837    1.372   .     A
C770   C805    1.444   .     S
C770   C3      1.426   1_556 S
C771   C806    1.444   .     S
C771   N841    1.372   .     A
C772   N837    1.372   .     A
C772   C807    1.444   .     S
C772   C48     1.426   1_556 S
C773   C808    1.444   .     S
C773   N1035   1.372   .     S
C774   C809    1.444   .     S
C774   C7      1.426   1_556 S
C774   N842    1.372   .     S
C775   C810    1.444   .     S
C775   N843    1.372   .     A
C776   N1034   1.372   .     A
C776   C811    1.444   .     S
C776   C5      1.426   1_556 S
C777   C788    1.383   .     A
C777   H821    1.083   .     S
C777   C796    1.401   .     A
C778   C795    1.401   .     A
C778   C789    1.383   .     A
C778   H829    1.083   .     S
C779   C786    1.383   .     A
C779   H830    1.083   .     S
C779   C795    1.401   .     A
C780   C797    1.451   .     S
C780   O858    1.296   .     A
C780   O857    1.296   .     A
C781   C796    1.401   .     A
C781   C787    1.383   .     A
C781   H831    1.083   .     S
C782   C798    1.401   .     A
C782   H832    1.083   .     S
C782   C793    1.383   .     A
C783   H833    1.083   .     S
C783   C797    1.401   .     A
C783   C794    1.383   .     A
C784   C797    1.401   .     A
C784   C790    1.383   .     A
C784   H834    1.083   .     S
C785   C798    1.401   .     A
C785   H835    1.083   .     S
C785   C792    1.383   .     A
C786   C800    1.401   .     A
C786   H836    1.083   .     S
C787   C799    1.401   .     A
C787   H822    1.083   .     S
C788   H823    1.083   .     S
C788   C799    1.401   .     A
C789   C800    1.401   .     A
C789   H824    1.083   .     S
C790   H825    1.083   .     S
C790   C803    1.401   .     A
C791   C796    1.451   .     S
C791   O863    1.296   .     A
C791   O860    1.296   .     A
C792   H826    1.083   .     S
C792   C801    1.401   .     A
C793   C801    1.401   .     A
C793   H827    1.083   .     S
C794   C803    1.401   .     A
C794   H828    1.083   .     S
C795   C802    1.451   .     S
C799   C815    1.451   .     S
C800   C814    1.451   .     S
C801   C813    1.451   .     S
C802   O862    1.296   .     A
C802   O861    1.296   .     A
C803   C812    1.451   .     S
C804   N844    1.158   .     T
C804   C816    1.444   .     S
C805   N845    1.158   .     T
C806   N846    1.158   .     T
C807   N847    1.158   .     T
C808   N848    1.158   .     T
C809   N838    1.158   .     T
C810   N839    1.158   .     T
C811   N840    1.158   .     T
C812   O864    1.296   .     A
C812   O852    1.296   .     A
C813   O850    1.296   .     A
C813   O851    1.296   .     A
C814   O853    1.296   .     A
C814   O856    1.296   .     A
C815   O854    1.296   .     A
C815   O855    1.296   .     A
C816   N841    1.372   .     A
Cu817  O849    1.964   .     S
Cu817  Cu818   2.695   .     S
Cu817  N837    2.026   .     S
Cu817  O861    1.964   .     S
Cu817  O954    1.964   1_455 S
Cu817  O959    1.964   1_455 S
Cu818  N841    2.026   .     S
Cu818  O862    1.964   .     S
Cu818  O859    1.964   .     S
Cu818  O953    1.964   1_455 S
Cu818  O956    1.964   1_455 S
Cu819  O854    1.964   .     S
Cu819  Cu820   2.695   .     S
Cu819  O851    1.964   .     S
Cu819  N842    2.026   .     S
Cu819  O1048   1.964   1_545 S
Cu819  O1056   1.964   1_545 S
Cu820  N843    2.026   .     S
Cu820  O850    1.964   .     S
Cu820  O855    1.964   .     S
Cu820  O1044   1.964   1_545 S
Cu820  O1045   1.964   1_545 S
N842   C968    1.372   1_545 A
N843   C965    1.372   1_545 S
O852   Cu1012  1.964   .     S
O853   Cu1012  1.964   .     S
O856   Cu1011  1.964   .     S
O857   Cu914   1.964   .     S
O858   Cu913   1.964   .     S
O860   Cu914   1.964   .     S
O863   Cu913   1.964   .     S
O864   Cu1011  1.964   .     S
C865   O945    1.296   .     A
C865   C894    1.451   .     S
C865   O955    1.296   .     A
C866   N933    1.372   .     A
C866   C901    1.444   .     S
C866   C99     1.426   1_556 S
C867   C902    1.444   .     S
C867   N937    1.372   .     A
C868   N933    1.372   .     A
C868   C903    1.444   .     S
C868   C144    1.426   1_556 S
C869   C904    1.444   .     S
C869   N1131   1.372   .     S
C870   C905    1.444   .     S
C870   C103    1.426   1_556 S
C870   N938    1.372   .     S
C871   C906    1.444   .     S
C871   N939    1.372   .     A
C872   N1130   1.372   .     A
C872   C907    1.444   .     S
C872   C101    1.426   1_556 S
C873   C884    1.383   .     A
C873   H917    1.083   .     S
C873   C892    1.401   .     A
C874   C891    1.401   .     A
C874   C885    1.383   .     A
C874   H925    1.083   .     S
C875   C882    1.383   .     A
C875   H926    1.083   .     S
C875   C891    1.401   .     A
C876   C893    1.451   .     S
C876   O954    1.296   .     A
C876   O953    1.296   .     A
C877   C892    1.401   .     A
C877   C883    1.383   .     A
C877   H927    1.083   .     S
C878   C894    1.401   .     A
C878   H928    1.083   .     S
C878   C889    1.383   .     A
C879   H929    1.083   .     S
C879   C893    1.401   .     A
C879   C890    1.383   .     A
C880   C893    1.401   .     A
C880   C886    1.383   .     A
C880   H930    1.083   .     S
C881   C894    1.401   .     A
C881   H931    1.083   .     S
C881   C888    1.383   .     A
C882   C896    1.401   .     A
C882   H932    1.083   .     S
C883   C895    1.401   .     A
C883   H918    1.083   .     S
C884   H919    1.083   .     S
C884   C895    1.401   .     A
C885   C896    1.401   .     A
C885   H920    1.083   .     S
C886   H921    1.083   .     S
C886   C899    1.401   .     A
C887   C892    1.451   .     S
C887   O959    1.296   .     A
C887   O956    1.296   .     A
C888   H922    1.083   .     S
C888   C897    1.401   .     A
C889   C897    1.401   .     A
C889   H923    1.083   .     S
C890   C899    1.401   .     A
C890   H924    1.083   .     S
C891   C898    1.451   .     S
C895   C911    1.451   .     S
C896   C910    1.451   .     S
C897   C909    1.451   .     S
C898   O958    1.296   .     A
C898   O957    1.296   .     A
C899   C908    1.451   .     S
C900   N940    1.158   .     T
C900   C912    1.444   .     S
C901   N941    1.158   .     T
C902   N942    1.158   .     T
C903   N943    1.158   .     T
C904   N944    1.158   .     T
C905   N934    1.158   .     T
C906   N935    1.158   .     T
C907   N936    1.158   .     T
C908   O960    1.296   .     A
C908   O948    1.296   .     A
C909   O946    1.296   .     A
C909   O947    1.296   .     A
C910   O949    1.296   .     A
C910   O952    1.296   .     A
C911   O950    1.296   .     A
C911   O951    1.296   .     A
C912   N937    1.372   .     A
Cu913  O945    1.964   .     S
Cu913  Cu914   2.695   .     S
Cu913  N933    2.026   .     S
Cu913  O957    1.964   .     S
Cu914  N937    2.026   .     S
Cu914  O958    1.964   .     S
Cu914  O955    1.964   .     S
Cu915  O950    1.964   .     S
Cu915  Cu916   2.695   .     S
Cu915  O947    1.964   .     S
Cu915  N938    2.026   .     S
Cu915  O1144   1.964   1_545 S
Cu915  O1152   1.964   1_545 S
Cu916  N939    2.026   .     S
Cu916  O946    1.964   .     S
Cu916  O951    1.964   .     S
Cu916  O1140   1.964   1_545 S
Cu916  O1141   1.964   1_545 S
N938   C1064   1.372   1_545 A
N939   C1061   1.372   1_545 S
O948   Cu1108  1.964   .     S
O949   Cu1108  1.964   .     S
O952   Cu1107  1.964   .     S
O953   Cu818   1.964   1_655 S
O954   Cu817   1.964   1_655 S
O956   Cu818   1.964   1_655 S
O959   Cu817   1.964   1_655 S
O960   Cu1107  1.964   .     S
C961   O1041   1.296   .     A
C961   C990    1.451   .     S
C961   O1051   1.296   .     A
C962   N1029   1.372   .     A
C962   C997    1.444   .     S
C962   C195    1.426   1_556 S
C963   C998    1.444   .     S
C963   N1033   1.372   .     A
C964   N1029   1.372   .     A
C964   C999    1.444   .     S
C964   C240    1.426   1_556 S
C965   C1000   1.444   .     S
C965   N843    1.372   1_565 S
C966   C1001   1.444   .     S
C966   C199    1.426   1_556 S
C966   N1034   1.372   .     S
C967   C1002   1.444   .     S
C967   N1035   1.372   .     A
C968   N842    1.372   1_565 A
C968   C1003   1.444   .     S
C968   C197    1.426   1_556 S
C969   C980    1.383   .     A
C969   H1013   1.083   .     S
C969   C988    1.401   .     A
C970   C987    1.401   .     A
C970   C981    1.383   .     A
C970   H1021   1.083   .     S
C971   C978    1.383   .     A
C971   H1022   1.083   .     S
C971   C987    1.401   .     A
C972   C989    1.451   .     S
C972   O1050   1.296   .     A
C972   O1049   1.296   .     A
C973   C988    1.401   .     A
C973   C979    1.383   .     A
C973   H1023   1.083   .     S
C974   C990    1.401   .     A
C974   H1024   1.083   .     S
C974   C985    1.383   .     A
C975   H1025   1.083   .     S
C975   C989    1.401   .     A
C975   C986    1.383   .     A
C976   C989    1.401   .     A
C976   C982    1.383   .     A
C976   H1026   1.083   .     S
C977   C990    1.401   .     A
C977   H1027   1.083   .     S
C977   C984    1.383   .     A
C978   C992    1.401   .     A
C978   H1028   1.083   .     S
C979   C991    1.401   .     A
C979   H1014   1.083   .     S
C980   H1015   1.083   .     S
C980   C991    1.401   .     A
C981   C992    1.401   .     A
C981   H1016   1.083   .     S
C982   H1017   1.083   .     S
C982   C995    1.401   .     A
C983   C988    1.451   .     S
C983   O1055   1.296   .     A
C983   O1052   1.296   .     A
C984   H1018   1.083   .     S
C984   C993    1.401   .     A
C985   C993    1.401   .     A
C985   H1019   1.083   .     S
C986   C995    1.401   .     A
C986   H1020   1.083   .     S
C987   C994    1.451   .     S
C991   C1007   1.451   .     S
C992   C1006   1.451   .     S
C993   C1005   1.451   .     S
C994   O1054   1.296   .     A
C994   O1053   1.296   .     A
C995   C1004   1.451   .     S
C996   N1036   1.158   .     T
C996   C1008   1.444   .     S
C997   N1037   1.158   .     T
C998   N1038   1.158   .     T
C999   N1039   1.158   .     T
C1000  N1040   1.158   .     T
C1001  N1030   1.158   .     T
C1002  N1031   1.158   .     T
C1003  N1032   1.158   .     T
C1004  O1056   1.296   .     A
C1004  O1044   1.296   .     A
C1005  O1042   1.296   .     A
C1005  O1043   1.296   .     A
C1006  O1045   1.296   .     A
C1006  O1048   1.296   .     A
C1007  O1046   1.296   .     A
C1007  O1047   1.296   .     A
C1008  N1033   1.372   .     A
Cu1009 O1041   1.964   .     S
Cu1009 Cu1010  2.695   .     S
Cu1009 N1029   2.026   .     S
Cu1009 O1053   1.964   .     S
Cu1009 O1146   1.964   1_455 S
Cu1009 O1151   1.964   1_455 S
Cu1010 N1033   2.026   .     S
Cu1010 O1054   1.964   .     S
Cu1010 O1051   1.964   .     S
Cu1010 O1145   1.964   1_455 S
Cu1010 O1148   1.964   1_455 S
Cu1011 O1046   1.964   .     S
Cu1011 Cu1012  2.695   .     S
Cu1011 O1043   1.964   .     S
Cu1011 N1034   2.026   .     S
Cu1012 N1035   2.026   .     S
Cu1012 O1042   1.964   .     S
Cu1012 O1047   1.964   .     S
O1044  Cu820   1.964   1_565 S
O1045  Cu820   1.964   1_565 S
O1048  Cu819   1.964   1_565 S
O1049  Cu1106  1.964   .     S
O1050  Cu1105  1.964   .     S
O1052  Cu1106  1.964   .     S
O1055  Cu1105  1.964   .     S
O1056  Cu819   1.964   1_565 S
C1057  O1137   1.296   .     A
C1057  C1086   1.451   .     S
C1057  O1147   1.296   .     A
C1058  N1125   1.372   .     A
C1058  C1093   1.444   .     S
C1058  C291    1.426   1_556 S
C1059  C1094   1.444   .     S
C1059  N1129   1.372   .     A
C1060  N1125   1.372   .     A
C1060  C1095   1.444   .     S
C1060  C336    1.426   1_556 S
C1061  C1096   1.444   .     S
C1061  N939    1.372   1_565 S
C1062  C1097   1.444   .     S
C1062  C295    1.426   1_556 S
C1062  N1130   1.372   .     S
C1063  C1098   1.444   .     S
C1063  N1131   1.372   .     A
C1064  N938    1.372   1_565 A
C1064  C1099   1.444   .     S
C1064  C293    1.426   1_556 S
C1065  C1076   1.383   .     A
C1065  H1109   1.083   .     S
C1065  C1084   1.401   .     A
C1066  C1083   1.401   .     A
C1066  C1077   1.383   .     A
C1066  H1117   1.083   .     S
C1067  C1074   1.383   .     A
C1067  H1118   1.083   .     S
C1067  C1083   1.401   .     A
C1068  C1085   1.451   .     S
C1068  O1146   1.296   .     A
C1068  O1145   1.296   .     A
C1069  C1084   1.401   .     A
C1069  C1075   1.383   .     A
C1069  H1119   1.083   .     S
C1070  C1086   1.401   .     A
C1070  H1120   1.083   .     S
C1070  C1081   1.383   .     A
C1071  H1121   1.083   .     S
C1071  C1085   1.401   .     A
C1071  C1082   1.383   .     A
C1072  C1085   1.401   .     A
C1072  C1078   1.383   .     A
C1072  H1122   1.083   .     S
C1073  C1086   1.401   .     A
C1073  H1123   1.083   .     S
C1073  C1080   1.383   .     A
C1074  C1088   1.401   .     A
C1074  H1124   1.083   .     S
C1075  C1087   1.401   .     A
C1075  H1110   1.083   .     S
C1076  H1111   1.083   .     S
C1076  C1087   1.401   .     A
C1077  C1088   1.401   .     A
C1077  H1112   1.083   .     S
C1078  H1113   1.083   .     S
C1078  C1091   1.401   .     A
C1079  C1084   1.451   .     S
C1079  O1151   1.296   .     A
C1079  O1148   1.296   .     A
C1080  H1114   1.083   .     S
C1080  C1089   1.401   .     A
C1081  C1089   1.401   .     A
C1081  H1115   1.083   .     S
C1082  C1091   1.401   .     A
C1082  H1116   1.083   .     S
C1083  C1090   1.451   .     S
C1087  C1103   1.451   .     S
C1088  C1102   1.451   .     S
C1089  C1101   1.451   .     S
C1090  O1150   1.296   .     A
C1090  O1149   1.296   .     A
C1091  C1100   1.451   .     S
C1092  N1132   1.158   .     T
C1092  C1104   1.444   .     S
C1093  N1133   1.158   .     T
C1094  N1134   1.158   .     T
C1095  N1135   1.158   .     T
C1096  N1136   1.158   .     T
C1097  N1126   1.158   .     T
C1098  N1127   1.158   .     T
C1099  N1128   1.158   .     T
C1100  O1152   1.296   .     A
C1100  O1140   1.296   .     A
C1101  O1138   1.296   .     A
C1101  O1139   1.296   .     A
C1102  O1141   1.296   .     A
C1102  O1144   1.296   .     A
C1103  O1142   1.296   .     A
C1103  O1143   1.296   .     A
C1104  N1129   1.372   .     A
Cu1105 O1137   1.964   .     S
Cu1105 Cu1106  2.695   .     S
Cu1105 N1125   2.026   .     S
Cu1105 O1149   1.964   .     S
Cu1106 N1129   2.026   .     S
Cu1106 O1150   1.964   .     S
Cu1106 O1147   1.964   .     S
Cu1107 O1142   1.964   .     S
Cu1107 Cu1108  2.695   .     S
Cu1107 O1139   1.964   .     S
Cu1107 N1130   2.026   .     S
Cu1108 N1131   2.026   .     S
Cu1108 O1138   1.964   .     S
Cu1108 O1143   1.964   .     S
O1140  Cu916   1.964   1_565 S
O1141  Cu916   1.964   1_565 S
O1144  Cu915   1.964   1_565 S
O1145  Cu1010  1.964   1_655 S
O1146  Cu1009  1.964   1_655 S
O1148  Cu1010  1.964   1_655 S
O1151  Cu1009  1.964   1_655 S
O1152  Cu915   1.964   1_565 S
