data_str_m2_o2_o10_pcu_sym.96
_audit_creation_date              2020-01-03
_audit_creation_method            'Materials Studio'
_symmetry_space_group_name_H-M    'P1'
_symmetry_Int_Tables_number       1
_symmetry_cell_setting            triclinic
loop_
_symmetry_equiv_pos_as_xyz
  x,y,z
_cell_length_a                    26.1952
_cell_length_b                    30.1655
_cell_length_c                    27.7398
_cell_angle_alpha                 89.8388
_cell_angle_beta                  97.9411
_cell_angle_gamma                 90.1681
loop_
_atom_site_label
_atom_site_type_symbol
_atom_site_fract_x
_atom_site_fract_y
_atom_site_fract_z
_atom_site_U_iso_or_equiv
_atom_site_adp_type
_atom_site_occupancy
C1     C     0.16691   0.16492   0.25011   0.00000  Uiso   1.00
C2     C     0.19042   0.28426   0.44904   0.00000  Uiso   1.00
C3     C     0.16667   0.24997   0.02735   0.00000  Uiso   1.00
C4     C     0.16666   0.24997   0.47266   0.00000  Uiso   1.00
C5     C     0.06790   0.24999   0.23755   0.00000  Uiso   1.00
C6     C     0.26544   0.25002   0.26245   0.00000  Uiso   1.00
C7     C     0.01263   0.25003   0.23068   0.00000  Uiso   1.00
C8     C     0.32070   0.25001   0.26931   0.00000  Uiso   1.00
C9     C     0.19848   0.04822   0.29140   0.00000  Uiso   1.00
C10    C     0.20085   0.45179   0.21894   0.00000  Uiso   1.00
C11    C     0.19505   0.09442   0.29096   0.00000  Uiso   1.00
C12    C     0.16695   0.33505   0.24996   0.00000  Uiso   1.00
C13    C     0.19739   0.40557   0.21830   0.00000  Uiso   1.00
C14    C     0.16865   0.11664   0.25064   0.00000  Uiso   1.00
C15    C     0.16871   0.38330   0.24993   0.00000  Uiso   1.00
C16    C     0.14463   0.09261   0.21075   0.00000  Uiso   1.00
C17    C     0.14243   0.40720   0.28187   0.00000  Uiso   1.00
C18    C     0.14619   0.04661   0.21151   0.00000  Uiso   1.00
C19    C     0.14395   0.45321   0.28153   0.00000  Uiso   1.00
C20    C     0.17323   0.02421   0.25135   0.00000  Uiso   1.00
C21    C     0.17325   0.47572   0.25058   0.00000  Uiso   1.00
C22    C     0.20616   0.27095   0.05905   0.00000  Uiso   1.00
C23    C     0.14289   0.21570   0.44304   0.00000  Uiso   1.00
C24    C     0.20521   0.27087   0.10965   0.00000  Uiso   1.00
C25    C     0.14301   0.21652   0.39233   0.00000  Uiso   1.00
C26    C     0.12812   0.22914   0.09974   0.00000  Uiso   1.00
C27    C     0.19031   0.28345   0.39831   0.00000  Uiso   1.00
C28    C     0.12718   0.22901   0.04889   0.00000  Uiso   1.00
Cu29   Cu    0.16667   0.24999   0.29822   0.00000  Uiso   1.00
Cu30   Cu    0.16667   0.25000   0.20179   0.00000  Uiso   1.00
H31    H     0.32597   0.25007   0.19361   0.00000  Uiso   1.00
H32    H     0.12478   0.18792   0.45872   0.00000  Uiso   1.00
H33    H     0.23567   0.28748   0.13317   0.00000  Uiso   1.00
H34    H     0.12420   0.19006   0.37034   0.00000  Uiso   1.00
H35    H     0.09766   0.21257   0.11545   0.00000  Uiso   1.00
H36    H     0.20914   0.30992   0.38110   0.00000  Uiso   1.00
H37    H     0.09516   0.21301   0.02680   0.00000  Uiso   1.00
H38    H     0.20852   0.31204   0.46929   0.00000  Uiso   1.00
H39    H     0.21759   0.48383   0.40345   0.00000  Uiso   1.00
H40    H     0.22735   0.01623   0.11416   0.00000  Uiso   1.00
H41    H     0.00736   0.24996   0.30637   0.00000  Uiso   1.00
H42    H     0.21395   0.11327   0.32155   0.00000  Uiso   1.00
H43    H     0.21804   0.38674   0.19401   0.00000  Uiso   1.00
H44    H     0.12386   0.10941   0.17949   0.00000  Uiso   1.00
H45    H     0.11994   0.39030   0.30632   0.00000  Uiso   1.00
H46    H     0.12626   0.02833   0.18096   0.00000  Uiso   1.00
H47    H     0.12226   0.47142   0.30547   0.00000  Uiso   1.00
H48    H     0.23818   0.28694   0.04521   0.00000  Uiso   1.00
N49    N     0.16667   0.25001   0.12934   0.00000  Uiso   1.00
N50    N     0.16667   0.24999   0.37066   0.00000  Uiso   1.00
O51    O     0.16667   0.18573   0.29072   0.00000  Uiso   1.00
O52    O     0.27126   0.05449   0.36977   0.00000  Uiso   1.00
O53    O     0.19522   0.00104   0.37845   0.00000  Uiso   1.00
O54    O     0.27035   0.01546   0.20804   0.00000  Uiso   1.00
O55    O     0.27802   0.44576   0.16447   0.00000  Uiso   1.00
O56    O     0.20349   0.49906   0.13184   0.00000  Uiso   1.00
O57    O     0.16666   0.31427   0.20928   0.00000  Uiso   1.00
O58    O     0.16667   0.18573   0.20928   0.00000  Uiso   1.00
O59    O     0.16666   0.31427   0.29072   0.00000  Uiso   1.00
O60    O     0.09161   0.24999   0.28132   0.00000  Uiso   1.00
O61    O     0.24172   0.25001   0.21868   0.00000  Uiso   1.00
O62    O     0.09161   0.25000   0.19989   0.00000  Uiso   1.00
O63    O     0.24172   0.25000   0.30012   0.00000  Uiso   1.00
O64    O     0.26636   0.48473   0.32427   0.00000  Uiso   1.00
S65    S     0.23536   0.02179   0.34169   0.00000  Uiso   1.00
S66    S     0.24072   0.47835   0.18091   0.00000  Uiso   1.00
C67    C     0.50025   0.16492   0.25011   0.00000  Uiso   1.00
C68    C     0.52376   0.28426   0.44904   0.00000  Uiso   1.00
C69    C     0.50000   0.24997   0.02735   0.00000  Uiso   1.00
C70    C     0.49999   0.24997   0.47266   0.00000  Uiso   1.00
C71    C     0.40123   0.24999   0.23755   0.00000  Uiso   1.00
C72    C     0.59877   0.25002   0.26245   0.00000  Uiso   1.00
C73    C     0.34596   0.25003   0.23068   0.00000  Uiso   1.00
C74    C     0.65404   0.25001   0.26931   0.00000  Uiso   1.00
C75    C     0.53182   0.04822   0.29140   0.00000  Uiso   1.00
C76    C     0.53418   0.45179   0.21894   0.00000  Uiso   1.00
C77    C     0.52838   0.09442   0.29096   0.00000  Uiso   1.00
C78    C     0.50028   0.33505   0.24996   0.00000  Uiso   1.00
C79    C     0.53072   0.40557   0.21830   0.00000  Uiso   1.00
C80    C     0.50198   0.11664   0.25064   0.00000  Uiso   1.00
C81    C     0.50204   0.38330   0.24993   0.00000  Uiso   1.00
C82    C     0.47796   0.09261   0.21075   0.00000  Uiso   1.00
C83    C     0.47577   0.40720   0.28187   0.00000  Uiso   1.00
C84    C     0.47953   0.04661   0.21151   0.00000  Uiso   1.00
C85    C     0.47729   0.45321   0.28153   0.00000  Uiso   1.00
C86    C     0.50657   0.02421   0.25135   0.00000  Uiso   1.00
C87    C     0.50658   0.47572   0.25058   0.00000  Uiso   1.00
C88    C     0.53949   0.27095   0.05905   0.00000  Uiso   1.00
C89    C     0.47623   0.21570   0.44304   0.00000  Uiso   1.00
C90    C     0.53854   0.27087   0.10965   0.00000  Uiso   1.00
C91    C     0.47635   0.21652   0.39233   0.00000  Uiso   1.00
C92    C     0.46146   0.22914   0.09974   0.00000  Uiso   1.00
C93    C     0.52365   0.28345   0.39831   0.00000  Uiso   1.00
C94    C     0.46052   0.22901   0.04889   0.00000  Uiso   1.00
Cu95   Cu    0.50000   0.24999   0.29822   0.00000  Uiso   1.00
Cu96   Cu    0.50000   0.25000   0.20179   0.00000  Uiso   1.00
H97    H     0.65931   0.25007   0.19361   0.00000  Uiso   1.00
H98    H     0.45812   0.18792   0.45872   0.00000  Uiso   1.00
H99    H     0.56901   0.28748   0.13317   0.00000  Uiso   1.00
H100   H     0.45753   0.19006   0.37034   0.00000  Uiso   1.00
H101   H     0.43099   0.21257   0.11545   0.00000  Uiso   1.00
H102   H     0.54247   0.30992   0.38110   0.00000  Uiso   1.00
H103   H     0.42849   0.21301   0.02680   0.00000  Uiso   1.00
H104   H     0.54186   0.31204   0.46929   0.00000  Uiso   1.00
H105   H     0.55093   0.48383   0.40345   0.00000  Uiso   1.00
H106   H     0.56069   0.01623   0.11416   0.00000  Uiso   1.00
H107   H     0.34069   0.24996   0.30637   0.00000  Uiso   1.00
H108   H     0.54728   0.11327   0.32155   0.00000  Uiso   1.00
H109   H     0.55137   0.38674   0.19401   0.00000  Uiso   1.00
H110   H     0.45719   0.10941   0.17949   0.00000  Uiso   1.00
H111   H     0.45327   0.39030   0.30632   0.00000  Uiso   1.00
H112   H     0.45959   0.02833   0.18096   0.00000  Uiso   1.00
H113   H     0.45559   0.47142   0.30547   0.00000  Uiso   1.00
H114   H     0.57152   0.28694   0.04521   0.00000  Uiso   1.00
N115   N     0.50000   0.25001   0.12934   0.00000  Uiso   1.00
N116   N     0.50000   0.24999   0.37066   0.00000  Uiso   1.00
O117   O     0.50000   0.18573   0.29072   0.00000  Uiso   1.00
O118   O     0.60459   0.05449   0.36977   0.00000  Uiso   1.00
O119   O     0.52855   0.00104   0.37845   0.00000  Uiso   1.00
O120   O     0.60368   0.01546   0.20804   0.00000  Uiso   1.00
O121   O     0.61135   0.44576   0.16447   0.00000  Uiso   1.00
O122   O     0.53683   0.49906   0.13184   0.00000  Uiso   1.00
O123   O     0.50000   0.31427   0.20928   0.00000  Uiso   1.00
O124   O     0.50000   0.18573   0.20928   0.00000  Uiso   1.00
O125   O     0.50000   0.31427   0.29072   0.00000  Uiso   1.00
O126   O     0.42495   0.24999   0.28132   0.00000  Uiso   1.00
O127   O     0.57505   0.25001   0.21868   0.00000  Uiso   1.00
O128   O     0.42495   0.25000   0.19989   0.00000  Uiso   1.00
O129   O     0.57505   0.25000   0.30012   0.00000  Uiso   1.00
O130   O     0.59969   0.48473   0.32427   0.00000  Uiso   1.00
S131   S     0.56869   0.02179   0.34169   0.00000  Uiso   1.00
S132   S     0.57406   0.47835   0.18091   0.00000  Uiso   1.00
C133   C     0.83358   0.16492   0.25011   0.00000  Uiso   1.00
C134   C     0.85709   0.28426   0.44904   0.00000  Uiso   1.00
C135   C     0.83334   0.24997   0.02735   0.00000  Uiso   1.00
C136   C     0.83333   0.24997   0.47266   0.00000  Uiso   1.00
C137   C     0.73456   0.24999   0.23755   0.00000  Uiso   1.00
C138   C     0.93210   0.25002   0.26245   0.00000  Uiso   1.00
C139   C     0.67929   0.25003   0.23068   0.00000  Uiso   1.00
C140   C     0.98737   0.25001   0.26931   0.00000  Uiso   1.00
C141   C     0.86515   0.04822   0.29140   0.00000  Uiso   1.00
C142   C     0.86752   0.45179   0.21894   0.00000  Uiso   1.00
C143   C     0.86171   0.09442   0.29096   0.00000  Uiso   1.00
C144   C     0.83361   0.33505   0.24996   0.00000  Uiso   1.00
C145   C     0.86405   0.40557   0.21830   0.00000  Uiso   1.00
C146   C     0.83531   0.11664   0.25064   0.00000  Uiso   1.00
C147   C     0.83538   0.38330   0.24993   0.00000  Uiso   1.00
C148   C     0.81130   0.09261   0.21075   0.00000  Uiso   1.00
C149   C     0.80910   0.40720   0.28187   0.00000  Uiso   1.00
C150   C     0.81286   0.04661   0.21151   0.00000  Uiso   1.00
C151   C     0.81062   0.45321   0.28153   0.00000  Uiso   1.00
C152   C     0.83990   0.02421   0.25135   0.00000  Uiso   1.00
C153   C     0.83992   0.47572   0.25058   0.00000  Uiso   1.00
C154   C     0.87283   0.27095   0.05905   0.00000  Uiso   1.00
C155   C     0.80956   0.21570   0.44304   0.00000  Uiso   1.00
C156   C     0.87188   0.27087   0.10965   0.00000  Uiso   1.00
C157   C     0.80968   0.21652   0.39233   0.00000  Uiso   1.00
C158   C     0.79479   0.22914   0.09974   0.00000  Uiso   1.00
C159   C     0.85698   0.28345   0.39831   0.00000  Uiso   1.00
C160   C     0.79385   0.22901   0.04889   0.00000  Uiso   1.00
Cu161  Cu    0.83333   0.24999   0.29822   0.00000  Uiso   1.00
Cu162  Cu    0.83333   0.25000   0.20179   0.00000  Uiso   1.00
H163   H     0.99264   0.25007   0.19361   0.00000  Uiso   1.00
H164   H     0.79145   0.18792   0.45872   0.00000  Uiso   1.00
H165   H     0.90234   0.28748   0.13317   0.00000  Uiso   1.00
H166   H     0.79087   0.19006   0.37034   0.00000  Uiso   1.00
H167   H     0.76432   0.21257   0.11545   0.00000  Uiso   1.00
H168   H     0.87580   0.30992   0.38110   0.00000  Uiso   1.00
H169   H     0.76183   0.21301   0.02680   0.00000  Uiso   1.00
H170   H     0.87519   0.31204   0.46929   0.00000  Uiso   1.00
H171   H     0.88426   0.48383   0.40345   0.00000  Uiso   1.00
H172   H     0.89402   0.01623   0.11416   0.00000  Uiso   1.00
H173   H     0.67402   0.24996   0.30637   0.00000  Uiso   1.00
H174   H     0.88061   0.11327   0.32155   0.00000  Uiso   1.00
H175   H     0.88470   0.38674   0.19401   0.00000  Uiso   1.00
H176   H     0.79052   0.10941   0.17949   0.00000  Uiso   1.00
H177   H     0.78660   0.39030   0.30632   0.00000  Uiso   1.00
H178   H     0.79293   0.02833   0.18096   0.00000  Uiso   1.00
H179   H     0.78893   0.47142   0.30547   0.00000  Uiso   1.00
H180   H     0.90485   0.28694   0.04521   0.00000  Uiso   1.00
N181   N     0.83333   0.25001   0.12934   0.00000  Uiso   1.00
N182   N     0.83333   0.24999   0.37066   0.00000  Uiso   1.00
O183   O     0.83334   0.18573   0.29072   0.00000  Uiso   1.00
O184   O     0.93793   0.05449   0.36977   0.00000  Uiso   1.00
O185   O     0.86189   0.00104   0.37845   0.00000  Uiso   1.00
O186   O     0.93701   0.01546   0.20804   0.00000  Uiso   1.00
O187   O     0.94469   0.44576   0.16447   0.00000  Uiso   1.00
O188   O     0.87016   0.49906   0.13184   0.00000  Uiso   1.00
O189   O     0.83333   0.31427   0.20928   0.00000  Uiso   1.00
O190   O     0.83334   0.18573   0.20928   0.00000  Uiso   1.00
O191   O     0.83333   0.31427   0.29072   0.00000  Uiso   1.00
O192   O     0.75828   0.24999   0.28132   0.00000  Uiso   1.00
O193   O     0.90839   0.25001   0.21868   0.00000  Uiso   1.00
O194   O     0.75828   0.25000   0.19989   0.00000  Uiso   1.00
O195   O     0.90839   0.25000   0.30012   0.00000  Uiso   1.00
O196   O     0.93303   0.48473   0.32427   0.00000  Uiso   1.00
S197   S     0.90202   0.02179   0.34169   0.00000  Uiso   1.00
S198   S     0.90739   0.47835   0.18091   0.00000  Uiso   1.00
C199   C     0.16691   0.66492   0.25011   0.00000  Uiso   1.00
C200   C     0.19042   0.78426   0.44904   0.00000  Uiso   1.00
C201   C     0.16667   0.74997   0.02735   0.00000  Uiso   1.00
C202   C     0.16666   0.74997   0.47266   0.00000  Uiso   1.00
C203   C     0.06790   0.74999   0.23755   0.00000  Uiso   1.00
C204   C     0.26544   0.75002   0.26245   0.00000  Uiso   1.00
C205   C     0.01263   0.75003   0.23068   0.00000  Uiso   1.00
C206   C     0.32070   0.75001   0.26931   0.00000  Uiso   1.00
C207   C     0.19848   0.54822   0.29140   0.00000  Uiso   1.00
C208   C     0.20085   0.95179   0.21894   0.00000  Uiso   1.00
C209   C     0.19505   0.59442   0.29096   0.00000  Uiso   1.00
C210   C     0.16695   0.83505   0.24996   0.00000  Uiso   1.00
C211   C     0.19739   0.90557   0.21830   0.00000  Uiso   1.00
C212   C     0.16865   0.61664   0.25064   0.00000  Uiso   1.00
C213   C     0.16871   0.88330   0.24993   0.00000  Uiso   1.00
C214   C     0.14463   0.59261   0.21075   0.00000  Uiso   1.00
C215   C     0.14243   0.90720   0.28187   0.00000  Uiso   1.00
C216   C     0.14619   0.54661   0.21151   0.00000  Uiso   1.00
C217   C     0.14395   0.95321   0.28153   0.00000  Uiso   1.00
C218   C     0.17323   0.52421   0.25135   0.00000  Uiso   1.00
C219   C     0.17325   0.97572   0.25058   0.00000  Uiso   1.00
C220   C     0.20616   0.77095   0.05905   0.00000  Uiso   1.00
C221   C     0.14289   0.71570   0.44304   0.00000  Uiso   1.00
C222   C     0.20521   0.77087   0.10965   0.00000  Uiso   1.00
C223   C     0.14301   0.71652   0.39233   0.00000  Uiso   1.00
C224   C     0.12812   0.72914   0.09974   0.00000  Uiso   1.00
C225   C     0.19031   0.78345   0.39831   0.00000  Uiso   1.00
C226   C     0.12718   0.72901   0.04889   0.00000  Uiso   1.00
Cu227  Cu    0.16667   0.74999   0.29822   0.00000  Uiso   1.00
Cu228  Cu    0.16667   0.75000   0.20179   0.00000  Uiso   1.00
H229   H     0.32597   0.75007   0.19361   0.00000  Uiso   1.00
H230   H     0.12478   0.68792   0.45872   0.00000  Uiso   1.00
H231   H     0.23567   0.78748   0.13317   0.00000  Uiso   1.00
H232   H     0.12420   0.69006   0.37034   0.00000  Uiso   1.00
H233   H     0.09766   0.71257   0.11545   0.00000  Uiso   1.00
H234   H     0.20914   0.80992   0.38110   0.00000  Uiso   1.00
H235   H     0.09516   0.71301   0.02680   0.00000  Uiso   1.00
H236   H     0.20852   0.81204   0.46929   0.00000  Uiso   1.00
H237   H     0.21759   0.98383   0.40345   0.00000  Uiso   1.00
H238   H     0.22735   0.51623   0.11416   0.00000  Uiso   1.00
H239   H     0.00736   0.74996   0.30637   0.00000  Uiso   1.00
H240   H     0.21395   0.61327   0.32155   0.00000  Uiso   1.00
H241   H     0.21804   0.88674   0.19401   0.00000  Uiso   1.00
H242   H     0.12386   0.60941   0.17949   0.00000  Uiso   1.00
H243   H     0.11994   0.89030   0.30632   0.00000  Uiso   1.00
H244   H     0.12626   0.52833   0.18096   0.00000  Uiso   1.00
H245   H     0.12226   0.97142   0.30547   0.00000  Uiso   1.00
H246   H     0.23818   0.78694   0.04521   0.00000  Uiso   1.00
N247   N     0.16667   0.75001   0.12934   0.00000  Uiso   1.00
N248   N     0.16667   0.74999   0.37066   0.00000  Uiso   1.00
O249   O     0.16667   0.68573   0.29072   0.00000  Uiso   1.00
O250   O     0.27126   0.55449   0.36977   0.00000  Uiso   1.00
O251   O     0.19522   0.50104   0.37845   0.00000  Uiso   1.00
O252   O     0.27035   0.51546   0.20804   0.00000  Uiso   1.00
O253   O     0.27802   0.94576   0.16447   0.00000  Uiso   1.00
O254   O     0.20349   0.99906   0.13184   0.00000  Uiso   1.00
O255   O     0.16666   0.81427   0.20928   0.00000  Uiso   1.00
O256   O     0.16667   0.68573   0.20928   0.00000  Uiso   1.00
O257   O     0.16666   0.81427   0.29072   0.00000  Uiso   1.00
O258   O     0.09161   0.74999   0.28132   0.00000  Uiso   1.00
O259   O     0.24172   0.75001   0.21868   0.00000  Uiso   1.00
O260   O     0.09161   0.75000   0.19989   0.00000  Uiso   1.00
O261   O     0.24172   0.75000   0.30012   0.00000  Uiso   1.00
O262   O     0.26636   0.98473   0.32427   0.00000  Uiso   1.00
S263   S     0.23536   0.52179   0.34169   0.00000  Uiso   1.00
S264   S     0.24072   0.97835   0.18091   0.00000  Uiso   1.00
C265   C     0.50025   0.66492   0.25011   0.00000  Uiso   1.00
C266   C     0.52376   0.78426   0.44904   0.00000  Uiso   1.00
C267   C     0.50000   0.74997   0.02735   0.00000  Uiso   1.00
C268   C     0.49999   0.74997   0.47266   0.00000  Uiso   1.00
C269   C     0.40123   0.74999   0.23755   0.00000  Uiso   1.00
C270   C     0.59877   0.75002   0.26245   0.00000  Uiso   1.00
C271   C     0.34596   0.75003   0.23068   0.00000  Uiso   1.00
C272   C     0.65404   0.75001   0.26931   0.00000  Uiso   1.00
C273   C     0.53182   0.54822   0.29140   0.00000  Uiso   1.00
C274   C     0.53418   0.95179   0.21894   0.00000  Uiso   1.00
C275   C     0.52838   0.59442   0.29096   0.00000  Uiso   1.00
C276   C     0.50028   0.83505   0.24996   0.00000  Uiso   1.00
C277   C     0.53072   0.90557   0.21830   0.00000  Uiso   1.00
C278   C     0.50198   0.61664   0.25064   0.00000  Uiso   1.00
C279   C     0.50204   0.88330   0.24993   0.00000  Uiso   1.00
C280   C     0.47796   0.59261   0.21075   0.00000  Uiso   1.00
C281   C     0.47577   0.90720   0.28187   0.00000  Uiso   1.00
C282   C     0.47953   0.54661   0.21151   0.00000  Uiso   1.00
C283   C     0.47729   0.95321   0.28153   0.00000  Uiso   1.00
C284   C     0.50657   0.52421   0.25135   0.00000  Uiso   1.00
C285   C     0.50658   0.97572   0.25058   0.00000  Uiso   1.00
C286   C     0.53949   0.77095   0.05905   0.00000  Uiso   1.00
C287   C     0.47623   0.71570   0.44304   0.00000  Uiso   1.00
C288   C     0.53854   0.77087   0.10965   0.00000  Uiso   1.00
C289   C     0.47635   0.71652   0.39233   0.00000  Uiso   1.00
C290   C     0.46146   0.72914   0.09974   0.00000  Uiso   1.00
C291   C     0.52365   0.78345   0.39831   0.00000  Uiso   1.00
C292   C     0.46052   0.72901   0.04889   0.00000  Uiso   1.00
Cu293  Cu    0.50000   0.74999   0.29822   0.00000  Uiso   1.00
Cu294  Cu    0.50000   0.75000   0.20179   0.00000  Uiso   1.00
H295   H     0.65931   0.75007   0.19361   0.00000  Uiso   1.00
H296   H     0.45812   0.68792   0.45872   0.00000  Uiso   1.00
H297   H     0.56901   0.78748   0.13317   0.00000  Uiso   1.00
H298   H     0.45753   0.69006   0.37034   0.00000  Uiso   1.00
H299   H     0.43099   0.71257   0.11545   0.00000  Uiso   1.00
H300   H     0.54247   0.80992   0.38110   0.00000  Uiso   1.00
H301   H     0.42849   0.71301   0.02680   0.00000  Uiso   1.00
H302   H     0.54186   0.81204   0.46929   0.00000  Uiso   1.00
H303   H     0.55093   0.98383   0.40345   0.00000  Uiso   1.00
H304   H     0.56069   0.51623   0.11416   0.00000  Uiso   1.00
H305   H     0.34069   0.74996   0.30637   0.00000  Uiso   1.00
H306   H     0.54728   0.61327   0.32155   0.00000  Uiso   1.00
H307   H     0.55137   0.88674   0.19401   0.00000  Uiso   1.00
H308   H     0.45719   0.60941   0.17949   0.00000  Uiso   1.00
H309   H     0.45327   0.89030   0.30632   0.00000  Uiso   1.00
H310   H     0.45959   0.52833   0.18096   0.00000  Uiso   1.00
H311   H     0.45559   0.97142   0.30547   0.00000  Uiso   1.00
H312   H     0.57152   0.78694   0.04521   0.00000  Uiso   1.00
N313   N     0.50000   0.75001   0.12934   0.00000  Uiso   1.00
N314   N     0.50000   0.74999   0.37066   0.00000  Uiso   1.00
O315   O     0.50000   0.68573   0.29072   0.00000  Uiso   1.00
O316   O     0.60459   0.55449   0.36977   0.00000  Uiso   1.00
O317   O     0.52855   0.50104   0.37845   0.00000  Uiso   1.00
O318   O     0.60368   0.51546   0.20804   0.00000  Uiso   1.00
O319   O     0.61135   0.94576   0.16447   0.00000  Uiso   1.00
O320   O     0.53683   0.99906   0.13184   0.00000  Uiso   1.00
O321   O     0.50000   0.81427   0.20928   0.00000  Uiso   1.00
O322   O     0.50000   0.68573   0.20928   0.00000  Uiso   1.00
O323   O     0.50000   0.81427   0.29072   0.00000  Uiso   1.00
O324   O     0.42495   0.74999   0.28132   0.00000  Uiso   1.00
O325   O     0.57505   0.75001   0.21868   0.00000  Uiso   1.00
O326   O     0.42495   0.75000   0.19989   0.00000  Uiso   1.00
O327   O     0.57505   0.75000   0.30012   0.00000  Uiso   1.00
O328   O     0.59969   0.98473   0.32427   0.00000  Uiso   1.00
S329   S     0.56869   0.52179   0.34169   0.00000  Uiso   1.00
S330   S     0.57406   0.97835   0.18091   0.00000  Uiso   1.00
C331   C     0.83358   0.66492   0.25011   0.00000  Uiso   1.00
C332   C     0.85709   0.78426   0.44904   0.00000  Uiso   1.00
C333   C     0.83334   0.74997   0.02735   0.00000  Uiso   1.00
C334   C     0.83333   0.74997   0.47266   0.00000  Uiso   1.00
C335   C     0.73456   0.74999   0.23755   0.00000  Uiso   1.00
C336   C     0.93210   0.75002   0.26245   0.00000  Uiso   1.00
C337   C     0.67929   0.75003   0.23068   0.00000  Uiso   1.00
C338   C     0.98737   0.75001   0.26931   0.00000  Uiso   1.00
C339   C     0.86515   0.54822   0.29140   0.00000  Uiso   1.00
C340   C     0.86752   0.95179   0.21894   0.00000  Uiso   1.00
C341   C     0.86171   0.59442   0.29096   0.00000  Uiso   1.00
C342   C     0.83361   0.83505   0.24996   0.00000  Uiso   1.00
C343   C     0.86405   0.90557   0.21830   0.00000  Uiso   1.00
C344   C     0.83531   0.61664   0.25064   0.00000  Uiso   1.00
C345   C     0.83538   0.88330   0.24993   0.00000  Uiso   1.00
C346   C     0.81130   0.59261   0.21075   0.00000  Uiso   1.00
C347   C     0.80910   0.90720   0.28187   0.00000  Uiso   1.00
C348   C     0.81286   0.54661   0.21151   0.00000  Uiso   1.00
C349   C     0.81062   0.95321   0.28153   0.00000  Uiso   1.00
C350   C     0.83990   0.52421   0.25135   0.00000  Uiso   1.00
C351   C     0.83992   0.97572   0.25058   0.00000  Uiso   1.00
C352   C     0.87283   0.77095   0.05905   0.00000  Uiso   1.00
C353   C     0.80956   0.71570   0.44304   0.00000  Uiso   1.00
C354   C     0.87188   0.77087   0.10965   0.00000  Uiso   1.00
C355   C     0.80968   0.71652   0.39233   0.00000  Uiso   1.00
C356   C     0.79479   0.72914   0.09974   0.00000  Uiso   1.00
C357   C     0.85698   0.78345   0.39831   0.00000  Uiso   1.00
C358   C     0.79385   0.72901   0.04889   0.00000  Uiso   1.00
Cu359  Cu    0.83333   0.74999   0.29822   0.00000  Uiso   1.00
Cu360  Cu    0.83333   0.75000   0.20179   0.00000  Uiso   1.00
H361   H     0.99264   0.75007   0.19361   0.00000  Uiso   1.00
H362   H     0.79145   0.68792   0.45872   0.00000  Uiso   1.00
H363   H     0.90234   0.78748   0.13317   0.00000  Uiso   1.00
H364   H     0.79087   0.69006   0.37034   0.00000  Uiso   1.00
H365   H     0.76432   0.71257   0.11545   0.00000  Uiso   1.00
H366   H     0.87580   0.80992   0.38110   0.00000  Uiso   1.00
H367   H     0.76183   0.71301   0.02680   0.00000  Uiso   1.00
H368   H     0.87519   0.81204   0.46929   0.00000  Uiso   1.00
H369   H     0.88426   0.98383   0.40345   0.00000  Uiso   1.00
H370   H     0.89402   0.51623   0.11416   0.00000  Uiso   1.00
H371   H     0.67402   0.74996   0.30637   0.00000  Uiso   1.00
H372   H     0.88061   0.61327   0.32155   0.00000  Uiso   1.00
H373   H     0.88470   0.88674   0.19401   0.00000  Uiso   1.00
H374   H     0.79052   0.60941   0.17949   0.00000  Uiso   1.00
H375   H     0.78660   0.89030   0.30632   0.00000  Uiso   1.00
H376   H     0.79293   0.52833   0.18096   0.00000  Uiso   1.00
H377   H     0.78893   0.97142   0.30547   0.00000  Uiso   1.00
H378   H     0.90485   0.78694   0.04521   0.00000  Uiso   1.00
N379   N     0.83333   0.75001   0.12934   0.00000  Uiso   1.00
N380   N     0.83333   0.74999   0.37066   0.00000  Uiso   1.00
O381   O     0.83334   0.68573   0.29072   0.00000  Uiso   1.00
O382   O     0.93793   0.55449   0.36977   0.00000  Uiso   1.00
O383   O     0.86189   0.50104   0.37845   0.00000  Uiso   1.00
O384   O     0.93701   0.51546   0.20804   0.00000  Uiso   1.00
O385   O     0.94469   0.94576   0.16447   0.00000  Uiso   1.00
O386   O     0.87016   0.99906   0.13184   0.00000  Uiso   1.00
O387   O     0.83333   0.81427   0.20928   0.00000  Uiso   1.00
O388   O     0.83334   0.68573   0.20928   0.00000  Uiso   1.00
O389   O     0.83333   0.81427   0.29072   0.00000  Uiso   1.00
O390   O     0.75828   0.74999   0.28132   0.00000  Uiso   1.00
O391   O     0.90839   0.75001   0.21868   0.00000  Uiso   1.00
O392   O     0.75828   0.75000   0.19989   0.00000  Uiso   1.00
O393   O     0.90839   0.75000   0.30012   0.00000  Uiso   1.00
O394   O     0.93303   0.98473   0.32427   0.00000  Uiso   1.00
S395   S     0.90202   0.52179   0.34169   0.00000  Uiso   1.00
S396   S     0.90739   0.97835   0.18091   0.00000  Uiso   1.00
C397   C     0.16691   0.16492   0.75011   0.00000  Uiso   1.00
C398   C     0.19042   0.28426   0.94904   0.00000  Uiso   1.00
C399   C     0.16667   0.24997   0.52735   0.00000  Uiso   1.00
C400   C     0.16666   0.24997   0.97266   0.00000  Uiso   1.00
C401   C     0.06790   0.24999   0.73755   0.00000  Uiso   1.00
C402   C     0.26544   0.25002   0.76245   0.00000  Uiso   1.00
C403   C     0.01263   0.25003   0.73068   0.00000  Uiso   1.00
C404   C     0.32070   0.25001   0.76931   0.00000  Uiso   1.00
C405   C     0.19848   0.04822   0.79140   0.00000  Uiso   1.00
C406   C     0.20085   0.45179   0.71894   0.00000  Uiso   1.00
C407   C     0.19505   0.09442   0.79096   0.00000  Uiso   1.00
C408   C     0.16695   0.33505   0.74996   0.00000  Uiso   1.00
C409   C     0.19739   0.40557   0.71830   0.00000  Uiso   1.00
C410   C     0.16865   0.11664   0.75064   0.00000  Uiso   1.00
C411   C     0.16871   0.38330   0.74993   0.00000  Uiso   1.00
C412   C     0.14463   0.09261   0.71075   0.00000  Uiso   1.00
C413   C     0.14243   0.40720   0.78187   0.00000  Uiso   1.00
C414   C     0.14619   0.04661   0.71151   0.00000  Uiso   1.00
C415   C     0.14395   0.45321   0.78153   0.00000  Uiso   1.00
C416   C     0.17323   0.02421   0.75135   0.00000  Uiso   1.00
C417   C     0.17325   0.47572   0.75058   0.00000  Uiso   1.00
C418   C     0.20616   0.27095   0.55905   0.00000  Uiso   1.00
C419   C     0.14289   0.21570   0.94304   0.00000  Uiso   1.00
C420   C     0.20521   0.27087   0.60965   0.00000  Uiso   1.00
C421   C     0.14301   0.21652   0.89233   0.00000  Uiso   1.00
C422   C     0.12812   0.22914   0.59974   0.00000  Uiso   1.00
C423   C     0.19031   0.28345   0.89831   0.00000  Uiso   1.00
C424   C     0.12718   0.22901   0.54889   0.00000  Uiso   1.00
Cu425  Cu    0.16667   0.24999   0.79822   0.00000  Uiso   1.00
Cu426  Cu    0.16667   0.25000   0.70179   0.00000  Uiso   1.00
H427   H     0.32597   0.25007   0.69361   0.00000  Uiso   1.00
H428   H     0.12478   0.18792   0.95872   0.00000  Uiso   1.00
H429   H     0.23567   0.28748   0.63317   0.00000  Uiso   1.00
H430   H     0.12420   0.19006   0.87034   0.00000  Uiso   1.00
H431   H     0.09766   0.21257   0.61545   0.00000  Uiso   1.00
H432   H     0.20914   0.30992   0.88110   0.00000  Uiso   1.00
H433   H     0.09516   0.21301   0.52680   0.00000  Uiso   1.00
H434   H     0.20852   0.31204   0.96929   0.00000  Uiso   1.00
H435   H     0.21759   0.48383   0.90345   0.00000  Uiso   1.00
H436   H     0.22735   0.01623   0.61416   0.00000  Uiso   1.00
H437   H     0.00736   0.24996   0.80637   0.00000  Uiso   1.00
H438   H     0.21395   0.11327   0.82155   0.00000  Uiso   1.00
H439   H     0.21804   0.38674   0.69401   0.00000  Uiso   1.00
H440   H     0.12386   0.10941   0.67949   0.00000  Uiso   1.00
H441   H     0.11994   0.39030   0.80632   0.00000  Uiso   1.00
H442   H     0.12626   0.02833   0.68096   0.00000  Uiso   1.00
H443   H     0.12226   0.47142   0.80547   0.00000  Uiso   1.00
H444   H     0.23818   0.28694   0.54521   0.00000  Uiso   1.00
N445   N     0.16667   0.25001   0.62934   0.00000  Uiso   1.00
N446   N     0.16667   0.24999   0.87066   0.00000  Uiso   1.00
O447   O     0.16667   0.18573   0.79072   0.00000  Uiso   1.00
O448   O     0.27126   0.05449   0.86977   0.00000  Uiso   1.00
O449   O     0.19522   0.00104   0.87845   0.00000  Uiso   1.00
O450   O     0.27035   0.01546   0.70804   0.00000  Uiso   1.00
O451   O     0.27802   0.44576   0.66447   0.00000  Uiso   1.00
O452   O     0.20349   0.49906   0.63184   0.00000  Uiso   1.00
O453   O     0.16666   0.31427   0.70928   0.00000  Uiso   1.00
O454   O     0.16667   0.18573   0.70928   0.00000  Uiso   1.00
O455   O     0.16666   0.31427   0.79072   0.00000  Uiso   1.00
O456   O     0.09161   0.24999   0.78132   0.00000  Uiso   1.00
O457   O     0.24172   0.25001   0.71868   0.00000  Uiso   1.00
O458   O     0.09161   0.25000   0.69989   0.00000  Uiso   1.00
O459   O     0.24172   0.25000   0.80012   0.00000  Uiso   1.00
O460   O     0.26636   0.48473   0.82427   0.00000  Uiso   1.00
S461   S     0.23536   0.02179   0.84169   0.00000  Uiso   1.00
S462   S     0.24072   0.47835   0.68091   0.00000  Uiso   1.00
C463   C     0.50025   0.16492   0.75011   0.00000  Uiso   1.00
C464   C     0.52376   0.28426   0.94904   0.00000  Uiso   1.00
C465   C     0.50000   0.24997   0.52735   0.00000  Uiso   1.00
C466   C     0.49999   0.24997   0.97266   0.00000  Uiso   1.00
C467   C     0.40123   0.24999   0.73755   0.00000  Uiso   1.00
C468   C     0.59877   0.25002   0.76245   0.00000  Uiso   1.00
C469   C     0.34596   0.25003   0.73068   0.00000  Uiso   1.00
C470   C     0.65404   0.25001   0.76931   0.00000  Uiso   1.00
C471   C     0.53182   0.04822   0.79140   0.00000  Uiso   1.00
C472   C     0.53418   0.45179   0.71894   0.00000  Uiso   1.00
C473   C     0.52838   0.09442   0.79096   0.00000  Uiso   1.00
C474   C     0.50028   0.33505   0.74996   0.00000  Uiso   1.00
C475   C     0.53072   0.40557   0.71830   0.00000  Uiso   1.00
C476   C     0.50198   0.11664   0.75064   0.00000  Uiso   1.00
C477   C     0.50204   0.38330   0.74993   0.00000  Uiso   1.00
C478   C     0.47796   0.09261   0.71075   0.00000  Uiso   1.00
C479   C     0.47577   0.40720   0.78187   0.00000  Uiso   1.00
C480   C     0.47953   0.04661   0.71151   0.00000  Uiso   1.00
C481   C     0.47729   0.45321   0.78153   0.00000  Uiso   1.00
C482   C     0.50657   0.02421   0.75135   0.00000  Uiso   1.00
C483   C     0.50658   0.47572   0.75058   0.00000  Uiso   1.00
C484   C     0.53949   0.27095   0.55905   0.00000  Uiso   1.00
C485   C     0.47623   0.21570   0.94304   0.00000  Uiso   1.00
C486   C     0.53854   0.27087   0.60965   0.00000  Uiso   1.00
C487   C     0.47635   0.21652   0.89233   0.00000  Uiso   1.00
C488   C     0.46146   0.22914   0.59974   0.00000  Uiso   1.00
C489   C     0.52365   0.28345   0.89831   0.00000  Uiso   1.00
C490   C     0.46052   0.22901   0.54889   0.00000  Uiso   1.00
Cu491  Cu    0.50000   0.24999   0.79822   0.00000  Uiso   1.00
Cu492  Cu    0.50000   0.25000   0.70179   0.00000  Uiso   1.00
H493   H     0.65931   0.25007   0.69361   0.00000  Uiso   1.00
H494   H     0.45812   0.18792   0.95872   0.00000  Uiso   1.00
H495   H     0.56901   0.28748   0.63317   0.00000  Uiso   1.00
H496   H     0.45753   0.19006   0.87034   0.00000  Uiso   1.00
H497   H     0.43099   0.21257   0.61545   0.00000  Uiso   1.00
H498   H     0.54247   0.30992   0.88110   0.00000  Uiso   1.00
H499   H     0.42849   0.21301   0.52680   0.00000  Uiso   1.00
H500   H     0.54186   0.31204   0.96929   0.00000  Uiso   1.00
H501   H     0.55093   0.48383   0.90345   0.00000  Uiso   1.00
H502   H     0.56069   0.01623   0.61416   0.00000  Uiso   1.00
H503   H     0.34069   0.24996   0.80637   0.00000  Uiso   1.00
H504   H     0.54728   0.11327   0.82155   0.00000  Uiso   1.00
H505   H     0.55137   0.38674   0.69401   0.00000  Uiso   1.00
H506   H     0.45719   0.10941   0.67949   0.00000  Uiso   1.00
H507   H     0.45327   0.39030   0.80632   0.00000  Uiso   1.00
H508   H     0.45959   0.02833   0.68096   0.00000  Uiso   1.00
H509   H     0.45559   0.47142   0.80547   0.00000  Uiso   1.00
H510   H     0.57152   0.28694   0.54521   0.00000  Uiso   1.00
N511   N     0.50000   0.25001   0.62934   0.00000  Uiso   1.00
N512   N     0.50000   0.24999   0.87066   0.00000  Uiso   1.00
O513   O     0.50000   0.18573   0.79072   0.00000  Uiso   1.00
O514   O     0.60459   0.05449   0.86977   0.00000  Uiso   1.00
O515   O     0.52855   0.00104   0.87845   0.00000  Uiso   1.00
O516   O     0.60368   0.01546   0.70804   0.00000  Uiso   1.00
O517   O     0.61135   0.44576   0.66447   0.00000  Uiso   1.00
O518   O     0.53683   0.49906   0.63184   0.00000  Uiso   1.00
O519   O     0.50000   0.31427   0.70928   0.00000  Uiso   1.00
O520   O     0.50000   0.18573   0.70928   0.00000  Uiso   1.00
O521   O     0.50000   0.31427   0.79072   0.00000  Uiso   1.00
O522   O     0.42495   0.24999   0.78132   0.00000  Uiso   1.00
O523   O     0.57505   0.25001   0.71868   0.00000  Uiso   1.00
O524   O     0.42495   0.25000   0.69989   0.00000  Uiso   1.00
O525   O     0.57505   0.25000   0.80012   0.00000  Uiso   1.00
O526   O     0.59969   0.48473   0.82427   0.00000  Uiso   1.00
S527   S     0.56869   0.02179   0.84169   0.00000  Uiso   1.00
S528   S     0.57406   0.47835   0.68091   0.00000  Uiso   1.00
C529   C     0.83358   0.16492   0.75011   0.00000  Uiso   1.00
C530   C     0.85709   0.28426   0.94904   0.00000  Uiso   1.00
C531   C     0.83334   0.24997   0.52735   0.00000  Uiso   1.00
C532   C     0.83333   0.24997   0.97266   0.00000  Uiso   1.00
C533   C     0.73456   0.24999   0.73755   0.00000  Uiso   1.00
C534   C     0.93210   0.25002   0.76245   0.00000  Uiso   1.00
C535   C     0.67929   0.25003   0.73068   0.00000  Uiso   1.00
C536   C     0.98737   0.25001   0.76931   0.00000  Uiso   1.00
C537   C     0.86515   0.04822   0.79140   0.00000  Uiso   1.00
C538   C     0.86752   0.45179   0.71894   0.00000  Uiso   1.00
C539   C     0.86171   0.09442   0.79096   0.00000  Uiso   1.00
C540   C     0.83361   0.33505   0.74996   0.00000  Uiso   1.00
C541   C     0.86405   0.40557   0.71830   0.00000  Uiso   1.00
C542   C     0.83531   0.11664   0.75064   0.00000  Uiso   1.00
C543   C     0.83538   0.38330   0.74993   0.00000  Uiso   1.00
C544   C     0.81130   0.09261   0.71075   0.00000  Uiso   1.00
C545   C     0.80910   0.40720   0.78187   0.00000  Uiso   1.00
C546   C     0.81286   0.04661   0.71151   0.00000  Uiso   1.00
C547   C     0.81062   0.45321   0.78153   0.00000  Uiso   1.00
C548   C     0.83990   0.02421   0.75135   0.00000  Uiso   1.00
C549   C     0.83992   0.47572   0.75058   0.00000  Uiso   1.00
C550   C     0.87283   0.27095   0.55905   0.00000  Uiso   1.00
C551   C     0.80956   0.21570   0.94304   0.00000  Uiso   1.00
C552   C     0.87188   0.27087   0.60965   0.00000  Uiso   1.00
C553   C     0.80968   0.21652   0.89233   0.00000  Uiso   1.00
C554   C     0.79479   0.22914   0.59974   0.00000  Uiso   1.00
C555   C     0.85698   0.28345   0.89831   0.00000  Uiso   1.00
C556   C     0.79385   0.22901   0.54889   0.00000  Uiso   1.00
Cu557  Cu    0.83333   0.24999   0.79822   0.00000  Uiso   1.00
Cu558  Cu    0.83333   0.25000   0.70179   0.00000  Uiso   1.00
H559   H     0.99264   0.25007   0.69361   0.00000  Uiso   1.00
H560   H     0.79145   0.18792   0.95872   0.00000  Uiso   1.00
H561   H     0.90234   0.28748   0.63317   0.00000  Uiso   1.00
H562   H     0.79087   0.19006   0.87034   0.00000  Uiso   1.00
H563   H     0.76432   0.21257   0.61545   0.00000  Uiso   1.00
H564   H     0.87580   0.30992   0.88110   0.00000  Uiso   1.00
H565   H     0.76183   0.21301   0.52680   0.00000  Uiso   1.00
H566   H     0.87519   0.31204   0.96929   0.00000  Uiso   1.00
H567   H     0.88426   0.48383   0.90345   0.00000  Uiso   1.00
H568   H     0.89402   0.01623   0.61416   0.00000  Uiso   1.00
H569   H     0.67402   0.24996   0.80637   0.00000  Uiso   1.00
H570   H     0.88061   0.11327   0.82155   0.00000  Uiso   1.00
H571   H     0.88470   0.38674   0.69401   0.00000  Uiso   1.00
H572   H     0.79052   0.10941   0.67949   0.00000  Uiso   1.00
H573   H     0.78660   0.39030   0.80632   0.00000  Uiso   1.00
H574   H     0.79293   0.02833   0.68096   0.00000  Uiso   1.00
H575   H     0.78893   0.47142   0.80547   0.00000  Uiso   1.00
H576   H     0.90485   0.28694   0.54521   0.00000  Uiso   1.00
N577   N     0.83333   0.25001   0.62934   0.00000  Uiso   1.00
N578   N     0.83333   0.24999   0.87066   0.00000  Uiso   1.00
O579   O     0.83334   0.18573   0.79072   0.00000  Uiso   1.00
O580   O     0.93793   0.05449   0.86977   0.00000  Uiso   1.00
O581   O     0.86189   0.00104   0.87845   0.00000  Uiso   1.00
O582   O     0.93701   0.01546   0.70804   0.00000  Uiso   1.00
O583   O     0.94469   0.44576   0.66447   0.00000  Uiso   1.00
O584   O     0.87016   0.49906   0.63184   0.00000  Uiso   1.00
O585   O     0.83333   0.31427   0.70928   0.00000  Uiso   1.00
O586   O     0.83334   0.18573   0.70928   0.00000  Uiso   1.00
O587   O     0.83333   0.31427   0.79072   0.00000  Uiso   1.00
O588   O     0.75828   0.24999   0.78132   0.00000  Uiso   1.00
O589   O     0.90839   0.25001   0.71868   0.00000  Uiso   1.00
O590   O     0.75828   0.25000   0.69989   0.00000  Uiso   1.00
O591   O     0.90839   0.25000   0.80012   0.00000  Uiso   1.00
O592   O     0.93303   0.48473   0.82427   0.00000  Uiso   1.00
S593   S     0.90202   0.02179   0.84169   0.00000  Uiso   1.00
S594   S     0.90739   0.47835   0.68091   0.00000  Uiso   1.00
C595   C     0.16691   0.66492   0.75011   0.00000  Uiso   1.00
C596   C     0.19042   0.78426   0.94904   0.00000  Uiso   1.00
C597   C     0.16667   0.74997   0.52735   0.00000  Uiso   1.00
C598   C     0.16666   0.74997   0.97266   0.00000  Uiso   1.00
C599   C     0.06790   0.74999   0.73755   0.00000  Uiso   1.00
C600   C     0.26544   0.75002   0.76245   0.00000  Uiso   1.00
C601   C     0.01263   0.75003   0.73068   0.00000  Uiso   1.00
C602   C     0.32070   0.75001   0.76931   0.00000  Uiso   1.00
C603   C     0.19848   0.54822   0.79140   0.00000  Uiso   1.00
C604   C     0.20085   0.95179   0.71894   0.00000  Uiso   1.00
C605   C     0.19505   0.59442   0.79096   0.00000  Uiso   1.00
C606   C     0.16695   0.83505   0.74996   0.00000  Uiso   1.00
C607   C     0.19739   0.90557   0.71830   0.00000  Uiso   1.00
C608   C     0.16865   0.61664   0.75064   0.00000  Uiso   1.00
C609   C     0.16871   0.88330   0.74993   0.00000  Uiso   1.00
C610   C     0.14463   0.59261   0.71075   0.00000  Uiso   1.00
C611   C     0.14243   0.90720   0.78187   0.00000  Uiso   1.00
C612   C     0.14619   0.54661   0.71151   0.00000  Uiso   1.00
C613   C     0.14395   0.95321   0.78153   0.00000  Uiso   1.00
C614   C     0.17323   0.52421   0.75135   0.00000  Uiso   1.00
C615   C     0.17325   0.97572   0.75058   0.00000  Uiso   1.00
C616   C     0.20616   0.77095   0.55905   0.00000  Uiso   1.00
C617   C     0.14289   0.71570   0.94304   0.00000  Uiso   1.00
C618   C     0.20521   0.77087   0.60965   0.00000  Uiso   1.00
C619   C     0.14301   0.71652   0.89233   0.00000  Uiso   1.00
C620   C     0.12812   0.72914   0.59974   0.00000  Uiso   1.00
C621   C     0.19031   0.78345   0.89831   0.00000  Uiso   1.00
C622   C     0.12718   0.72901   0.54889   0.00000  Uiso   1.00
Cu623  Cu    0.16667   0.74999   0.79822   0.00000  Uiso   1.00
Cu624  Cu    0.16667   0.75000   0.70179   0.00000  Uiso   1.00
H625   H     0.32597   0.75007   0.69361   0.00000  Uiso   1.00
H626   H     0.12478   0.68792   0.95872   0.00000  Uiso   1.00
H627   H     0.23567   0.78748   0.63317   0.00000  Uiso   1.00
H628   H     0.12420   0.69006   0.87034   0.00000  Uiso   1.00
H629   H     0.09766   0.71257   0.61545   0.00000  Uiso   1.00
H630   H     0.20914   0.80992   0.88110   0.00000  Uiso   1.00
H631   H     0.09516   0.71301   0.52680   0.00000  Uiso   1.00
H632   H     0.20852   0.81204   0.96929   0.00000  Uiso   1.00
H633   H     0.21759   0.98383   0.90345   0.00000  Uiso   1.00
H634   H     0.22735   0.51623   0.61416   0.00000  Uiso   1.00
H635   H     0.00736   0.74996   0.80637   0.00000  Uiso   1.00
H636   H     0.21395   0.61327   0.82155   0.00000  Uiso   1.00
H637   H     0.21804   0.88674   0.69401   0.00000  Uiso   1.00
H638   H     0.12386   0.60941   0.67949   0.00000  Uiso   1.00
H639   H     0.11994   0.89030   0.80632   0.00000  Uiso   1.00
H640   H     0.12626   0.52833   0.68096   0.00000  Uiso   1.00
H641   H     0.12226   0.97142   0.80547   0.00000  Uiso   1.00
H642   H     0.23818   0.78694   0.54521   0.00000  Uiso   1.00
N643   N     0.16667   0.75001   0.62934   0.00000  Uiso   1.00
N644   N     0.16667   0.74999   0.87066   0.00000  Uiso   1.00
O645   O     0.16667   0.68573   0.79072   0.00000  Uiso   1.00
O646   O     0.27126   0.55449   0.86977   0.00000  Uiso   1.00
O647   O     0.19522   0.50104   0.87845   0.00000  Uiso   1.00
O648   O     0.27035   0.51546   0.70804   0.00000  Uiso   1.00
O649   O     0.27802   0.94576   0.66447   0.00000  Uiso   1.00
O650   O     0.20349   0.99906   0.63184   0.00000  Uiso   1.00
O651   O     0.16666   0.81427   0.70928   0.00000  Uiso   1.00
O652   O     0.16667   0.68573   0.70928   0.00000  Uiso   1.00
O653   O     0.16666   0.81427   0.79072   0.00000  Uiso   1.00
O654   O     0.09161   0.74999   0.78132   0.00000  Uiso   1.00
O655   O     0.24172   0.75001   0.71868   0.00000  Uiso   1.00
O656   O     0.09161   0.75000   0.69989   0.00000  Uiso   1.00
O657   O     0.24172   0.75000   0.80012   0.00000  Uiso   1.00
O658   O     0.26636   0.98473   0.82427   0.00000  Uiso   1.00
S659   S     0.23536   0.52179   0.84169   0.00000  Uiso   1.00
S660   S     0.24072   0.97835   0.68091   0.00000  Uiso   1.00
C661   C     0.50025   0.66492   0.75011   0.00000  Uiso   1.00
C662   C     0.52376   0.78426   0.94904   0.00000  Uiso   1.00
C663   C     0.50000   0.74997   0.52735   0.00000  Uiso   1.00
C664   C     0.49999   0.74997   0.97266   0.00000  Uiso   1.00
C665   C     0.40123   0.74999   0.73755   0.00000  Uiso   1.00
C666   C     0.59877   0.75002   0.76245   0.00000  Uiso   1.00
C667   C     0.34596   0.75003   0.73068   0.00000  Uiso   1.00
C668   C     0.65404   0.75001   0.76931   0.00000  Uiso   1.00
C669   C     0.53182   0.54822   0.79140   0.00000  Uiso   1.00
C670   C     0.53418   0.95179   0.71894   0.00000  Uiso   1.00
C671   C     0.52838   0.59442   0.79096   0.00000  Uiso   1.00
C672   C     0.50028   0.83505   0.74996   0.00000  Uiso   1.00
C673   C     0.53072   0.90557   0.71830   0.00000  Uiso   1.00
C674   C     0.50198   0.61664   0.75064   0.00000  Uiso   1.00
C675   C     0.50204   0.88330   0.74993   0.00000  Uiso   1.00
C676   C     0.47796   0.59261   0.71075   0.00000  Uiso   1.00
C677   C     0.47577   0.90720   0.78187   0.00000  Uiso   1.00
C678   C     0.47953   0.54661   0.71151   0.00000  Uiso   1.00
C679   C     0.47729   0.95321   0.78153   0.00000  Uiso   1.00
C680   C     0.50657   0.52421   0.75135   0.00000  Uiso   1.00
C681   C     0.50658   0.97572   0.75058   0.00000  Uiso   1.00
C682   C     0.53949   0.77095   0.55905   0.00000  Uiso   1.00
C683   C     0.47623   0.71570   0.94304   0.00000  Uiso   1.00
C684   C     0.53854   0.77087   0.60965   0.00000  Uiso   1.00
C685   C     0.47635   0.71652   0.89233   0.00000  Uiso   1.00
C686   C     0.46146   0.72914   0.59974   0.00000  Uiso   1.00
C687   C     0.52365   0.78345   0.89831   0.00000  Uiso   1.00
C688   C     0.46052   0.72901   0.54889   0.00000  Uiso   1.00
Cu689  Cu    0.50000   0.74999   0.79822   0.00000  Uiso   1.00
Cu690  Cu    0.50000   0.75000   0.70179   0.00000  Uiso   1.00
H691   H     0.65931   0.75007   0.69361   0.00000  Uiso   1.00
H692   H     0.45812   0.68792   0.95872   0.00000  Uiso   1.00
H693   H     0.56901   0.78748   0.63317   0.00000  Uiso   1.00
H694   H     0.45753   0.69006   0.87034   0.00000  Uiso   1.00
H695   H     0.43099   0.71257   0.61545   0.00000  Uiso   1.00
H696   H     0.54247   0.80992   0.88110   0.00000  Uiso   1.00
H697   H     0.42849   0.71301   0.52680   0.00000  Uiso   1.00
H698   H     0.54186   0.81204   0.96929   0.00000  Uiso   1.00
H699   H     0.55093   0.98383   0.90345   0.00000  Uiso   1.00
H700   H     0.56069   0.51623   0.61416   0.00000  Uiso   1.00
H701   H     0.34069   0.74996   0.80637   0.00000  Uiso   1.00
H702   H     0.54728   0.61327   0.82155   0.00000  Uiso   1.00
H703   H     0.55137   0.88674   0.69401   0.00000  Uiso   1.00
H704   H     0.45719   0.60941   0.67949   0.00000  Uiso   1.00
H705   H     0.45327   0.89030   0.80632   0.00000  Uiso   1.00
H706   H     0.45959   0.52833   0.68096   0.00000  Uiso   1.00
H707   H     0.45559   0.97142   0.80547   0.00000  Uiso   1.00
H708   H     0.57152   0.78694   0.54521   0.00000  Uiso   1.00
N709   N     0.50000   0.75001   0.62934   0.00000  Uiso   1.00
N710   N     0.50000   0.74999   0.87066   0.00000  Uiso   1.00
O711   O     0.50000   0.68573   0.79072   0.00000  Uiso   1.00
O712   O     0.60459   0.55449   0.86977   0.00000  Uiso   1.00
O713   O     0.52855   0.50104   0.87845   0.00000  Uiso   1.00
O714   O     0.60368   0.51546   0.70804   0.00000  Uiso   1.00
O715   O     0.61135   0.94576   0.66447   0.00000  Uiso   1.00
O716   O     0.53683   0.99906   0.63184   0.00000  Uiso   1.00
O717   O     0.50000   0.81427   0.70928   0.00000  Uiso   1.00
O718   O     0.50000   0.68573   0.70928   0.00000  Uiso   1.00
O719   O     0.50000   0.81427   0.79072   0.00000  Uiso   1.00
O720   O     0.42495   0.74999   0.78132   0.00000  Uiso   1.00
O721   O     0.57505   0.75001   0.71868   0.00000  Uiso   1.00
O722   O     0.42495   0.75000   0.69989   0.00000  Uiso   1.00
O723   O     0.57505   0.75000   0.80012   0.00000  Uiso   1.00
O724   O     0.59969   0.98473   0.82427   0.00000  Uiso   1.00
S725   S     0.56869   0.52179   0.84169   0.00000  Uiso   1.00
S726   S     0.57406   0.97835   0.68091   0.00000  Uiso   1.00
C727   C     0.83358   0.66492   0.75011   0.00000  Uiso   1.00
C728   C     0.85709   0.78426   0.94904   0.00000  Uiso   1.00
C729   C     0.83334   0.74997   0.52735   0.00000  Uiso   1.00
C730   C     0.83333   0.74997   0.97266   0.00000  Uiso   1.00
C731   C     0.73456   0.74999   0.73755   0.00000  Uiso   1.00
C732   C     0.93210   0.75002   0.76245   0.00000  Uiso   1.00
C733   C     0.67929   0.75003   0.73068   0.00000  Uiso   1.00
C734   C     0.98737   0.75001   0.76931   0.00000  Uiso   1.00
C735   C     0.86515   0.54822   0.79140   0.00000  Uiso   1.00
C736   C     0.86752   0.95179   0.71894   0.00000  Uiso   1.00
C737   C     0.86171   0.59442   0.79096   0.00000  Uiso   1.00
C738   C     0.83361   0.83505   0.74996   0.00000  Uiso   1.00
C739   C     0.86405   0.90557   0.71830   0.00000  Uiso   1.00
C740   C     0.83531   0.61664   0.75064   0.00000  Uiso   1.00
C741   C     0.83538   0.88330   0.74993   0.00000  Uiso   1.00
C742   C     0.81130   0.59261   0.71075   0.00000  Uiso   1.00
C743   C     0.80910   0.90720   0.78187   0.00000  Uiso   1.00
C744   C     0.81286   0.54661   0.71151   0.00000  Uiso   1.00
C745   C     0.81062   0.95321   0.78153   0.00000  Uiso   1.00
C746   C     0.83990   0.52421   0.75135   0.00000  Uiso   1.00
C747   C     0.83992   0.97572   0.75058   0.00000  Uiso   1.00
C748   C     0.87283   0.77095   0.55905   0.00000  Uiso   1.00
C749   C     0.80956   0.71570   0.94304   0.00000  Uiso   1.00
C750   C     0.87188   0.77087   0.60965   0.00000  Uiso   1.00
C751   C     0.80968   0.71652   0.89233   0.00000  Uiso   1.00
C752   C     0.79479   0.72914   0.59974   0.00000  Uiso   1.00
C753   C     0.85698   0.78345   0.89831   0.00000  Uiso   1.00
C754   C     0.79385   0.72901   0.54889   0.00000  Uiso   1.00
Cu755  Cu    0.83333   0.74999   0.79822   0.00000  Uiso   1.00
Cu756  Cu    0.83333   0.75000   0.70179   0.00000  Uiso   1.00
H757   H     0.99264   0.75007   0.69361   0.00000  Uiso   1.00
H758   H     0.79145   0.68792   0.95872   0.00000  Uiso   1.00
H759   H     0.90234   0.78748   0.63317   0.00000  Uiso   1.00
H760   H     0.79087   0.69006   0.87034   0.00000  Uiso   1.00
H761   H     0.76432   0.71257   0.61545   0.00000  Uiso   1.00
H762   H     0.87580   0.80992   0.88110   0.00000  Uiso   1.00
H763   H     0.76183   0.71301   0.52680   0.00000  Uiso   1.00
H764   H     0.87519   0.81204   0.96929   0.00000  Uiso   1.00
H765   H     0.88426   0.98383   0.90345   0.00000  Uiso   1.00
H766   H     0.89402   0.51623   0.61416   0.00000  Uiso   1.00
H767   H     0.67402   0.74996   0.80637   0.00000  Uiso   1.00
H768   H     0.88061   0.61327   0.82155   0.00000  Uiso   1.00
H769   H     0.88470   0.88674   0.69401   0.00000  Uiso   1.00
H770   H     0.79052   0.60941   0.67949   0.00000  Uiso   1.00
H771   H     0.78660   0.89030   0.80632   0.00000  Uiso   1.00
H772   H     0.79293   0.52833   0.68096   0.00000  Uiso   1.00
H773   H     0.78893   0.97142   0.80547   0.00000  Uiso   1.00
H774   H     0.90485   0.78694   0.54521   0.00000  Uiso   1.00
N775   N     0.83333   0.75001   0.62934   0.00000  Uiso   1.00
N776   N     0.83333   0.74999   0.87066   0.00000  Uiso   1.00
O777   O     0.83334   0.68573   0.79072   0.00000  Uiso   1.00
O778   O     0.93793   0.55449   0.86977   0.00000  Uiso   1.00
O779   O     0.86189   0.50104   0.87845   0.00000  Uiso   1.00
O780   O     0.93701   0.51546   0.70804   0.00000  Uiso   1.00
O781   O     0.94469   0.94576   0.66447   0.00000  Uiso   1.00
O782   O     0.87016   0.99906   0.63184   0.00000  Uiso   1.00
O783   O     0.83333   0.81427   0.70928   0.00000  Uiso   1.00
O784   O     0.83334   0.68573   0.70928   0.00000  Uiso   1.00
O785   O     0.83333   0.81427   0.79072   0.00000  Uiso   1.00
O786   O     0.75828   0.74999   0.78132   0.00000  Uiso   1.00
O787   O     0.90839   0.75001   0.71868   0.00000  Uiso   1.00
O788   O     0.75828   0.75000   0.69989   0.00000  Uiso   1.00
O789   O     0.90839   0.75000   0.80012   0.00000  Uiso   1.00
O790   O     0.93303   0.98473   0.82427   0.00000  Uiso   1.00
S791   S     0.90202   0.52179   0.84169   0.00000  Uiso   1.00
S792   S     0.90739   0.97835   0.68091   0.00000  Uiso   1.00
loop_
_geom_bond_atom_site_label_1
_geom_bond_atom_site_label_2
_geom_bond_distance
_geom_bond_site_symmetry_2
_ccdc_geom_bond_type
C1     O58     1.293   .     A
C1     O51     1.292   .     A
C1     C14     1.457   .     S
C2     C4      1.411   .     A
C2     C27     1.407   .     A
C2     H38     1.081   .     S
C3     C28     1.411   .     A
C3     C22     1.411   .     A
C3     C400    1.517   1_554 S
C4     C23     1.411   .     A
C4     C399    1.517   .     S
C5     C7      1.434   .     S
C5     O62     1.287   .     A
C5     O60     1.285   .     A
C6     O63     1.287   .     A
C6     O61     1.285   .     A
C6     C8      1.434   .     S
C7     C140    1.335   1_455 S
C7     H163    1.087   1_455 S
C8     C73     1.335   .     S
C8     H107    1.087   .     S
C9     C20     1.413   .     A
C9     C11     1.397   .     A
C9     S65     1.772   .     S
C10    S66     1.772   .     S
C10    C21     1.413   .     A
C10    C13     1.397   .     A
C11    C14     1.401   .     A
C11    H42     1.083   .     S
C12    O57     1.291   .     A
C12    C15     1.456   .     S
C12    O59     1.292   .     A
C13    C15     1.401   .     A
C13    H43     1.083   .     S
C14    C16     1.398   .     A
C15    C17     1.398   .     A
C16    C18     1.388   .     A
C16    H44     1.083   .     S
C17    C19     1.388   .     A
C17    H45     1.083   .     S
C18    C20     1.401   .     A
C18    H46     1.083   .     S
C19    H47     1.083   .     S
C19    C21     1.401   .     A
C20    C219    1.463   1_545 S
C21    C218    1.463   .     S
C22    H48     1.081   .     S
C22    C24     1.407   .     A
C23    H32     1.081   .     S
C23    C25     1.407   .     A
C24    N49     1.364   .     A
C24    H33     1.081   .     S
C25    H34     1.081   .     S
C25    N50     1.364   .     A
C26    C28     1.407   .     A
C26    N49     1.364   .     A
C26    H35     1.081   .     S
C27    H36     1.081   .     S
C27    N50     1.364   .     A
C28    H37     1.081   .     S
Cu29   O63     1.959   .     S
Cu29   O60     1.957   .     S
Cu29   Cu30    2.675   .     S
Cu29   N50     2.009   .     S
Cu29   O51     1.950   .     S
Cu29   O59     1.949   .     S
Cu30   O58     1.949   .     S
Cu30   N49     2.009   .     S
Cu30   O62     1.959   .     S
Cu30   O61     1.957   .     S
Cu30   O57     1.950   .     S
H31    C73     1.087   .     S
H39    O251    0.991   .     S
H40    O254    0.991   1_545 S
H41    C140    1.087   1_455 S
O52    S65     1.503   .     D
O53    S65     1.681   .     S
O53    H237    0.991   1_545 S
O54    S264    1.503   1_545 S
O55    S66     1.503   .     D
O56    S66     1.681   .     S
O56    H238    0.991   .     S
O64    S263    1.503   .     S
S65    O262    1.503   1_545 S
S66    O252    1.503   .     S
C67    O124    1.293   .     A
C67    O117    1.292   .     A
C67    C80     1.457   .     S
C68    C70     1.411   .     A
C68    C93     1.407   .     A
C68    H104    1.081   .     S
C69    C94     1.411   .     A
C69    C88     1.411   .     A
C69    C466    1.517   1_554 S
C70    C89     1.411   .     A
C70    C465    1.517   .     S
C71    C73     1.434   .     S
C71    O128    1.287   .     A
C71    O126    1.285   .     A
C72    O129    1.287   .     A
C72    O127    1.285   .     A
C72    C74     1.434   .     S
C74    C139    1.335   .     S
C74    H173    1.087   .     S
C75    C86     1.413   .     A
C75    C77     1.397   .     A
C75    S131    1.772   .     S
C76    S132    1.772   .     S
C76    C87     1.413   .     A
C76    C79     1.397   .     A
C77    C80     1.401   .     A
C77    H108    1.083   .     S
C78    O123    1.291   .     A
C78    C81     1.456   .     S
C78    O125    1.292   .     A
C79    C81     1.401   .     A
C79    H109    1.083   .     S
C80    C82     1.398   .     A
C81    C83     1.398   .     A
C82    C84     1.388   .     A
C82    H110    1.083   .     S
C83    C85     1.388   .     A
C83    H111    1.083   .     S
C84    C86     1.401   .     A
C84    H112    1.083   .     S
C85    H113    1.083   .     S
C85    C87     1.401   .     A
C86    C285    1.463   1_545 S
C87    C284    1.463   .     S
C88    H114    1.081   .     S
C88    C90     1.407   .     A
C89    H98     1.081   .     S
C89    C91     1.407   .     A
C90    N115    1.364   .     A
C90    H99     1.081   .     S
C91    H100    1.081   .     S
C91    N116    1.364   .     A
C92    C94     1.407   .     A
C92    N115    1.364   .     A
C92    H101    1.081   .     S
C93    H102    1.081   .     S
C93    N116    1.364   .     A
C94    H103    1.081   .     S
Cu95   O129    1.959   .     S
Cu95   O126    1.957   .     S
Cu95   Cu96    2.675   .     S
Cu95   N116    2.009   .     S
Cu95   O117    1.950   .     S
Cu95   O125    1.949   .     S
Cu96   O124    1.949   .     S
Cu96   N115    2.009   .     S
Cu96   O128    1.959   .     S
Cu96   O127    1.957   .     S
Cu96   O123    1.950   .     S
H97    C139    1.087   .     S
H105   O317    0.991   .     S
H106   O320    0.991   1_545 S
O118   S131    1.503   .     D
O119   S131    1.681   .     S
O119   H303    0.991   1_545 S
O120   S330    1.503   1_545 S
O121   S132    1.503   .     D
O122   S132    1.681   .     S
O122   H304    0.991   .     S
O130   S329    1.503   .     S
S131   O328    1.503   1_545 S
S132   O318    1.503   .     S
C133   O190    1.293   .     A
C133   O183    1.292   .     A
C133   C146    1.457   .     S
C134   C136    1.411   .     A
C134   C159    1.407   .     A
C134   H170    1.081   .     S
C135   C160    1.411   .     A
C135   C154    1.411   .     A
C135   C532    1.517   1_554 S
C136   C155    1.411   .     A
C136   C531    1.517   .     S
C137   C139    1.434   .     S
C137   O194    1.287   .     A
C137   O192    1.285   .     A
C138   O195    1.287   .     A
C138   O193    1.285   .     A
C138   C140    1.434   .     S
C140   C7      1.335   1_655 S
C140   H41     1.087   1_655 S
C141   C152    1.413   .     A
C141   C143    1.397   .     A
C141   S197    1.772   .     S
C142   S198    1.772   .     S
C142   C153    1.413   .     A
C142   C145    1.397   .     A
C143   C146    1.401   .     A
C143   H174    1.083   .     S
C144   O189    1.291   .     A
C144   C147    1.456   .     S
C144   O191    1.292   .     A
C145   C147    1.401   .     A
C145   H175    1.083   .     S
C146   C148    1.398   .     A
C147   C149    1.398   .     A
C148   C150    1.388   .     A
C148   H176    1.083   .     S
C149   C151    1.388   .     A
C149   H177    1.083   .     S
C150   C152    1.401   .     A
C150   H178    1.083   .     S
C151   H179    1.083   .     S
C151   C153    1.401   .     A
C152   C351    1.463   1_545 S
C153   C350    1.463   .     S
C154   H180    1.081   .     S
C154   C156    1.407   .     A
C155   H164    1.081   .     S
C155   C157    1.407   .     A
C156   N181    1.364   .     A
C156   H165    1.081   .     S
C157   H166    1.081   .     S
C157   N182    1.364   .     A
C158   C160    1.407   .     A
C158   N181    1.364   .     A
C158   H167    1.081   .     S
C159   H168    1.081   .     S
C159   N182    1.364   .     A
C160   H169    1.081   .     S
Cu161  O195    1.959   .     S
Cu161  O192    1.957   .     S
Cu161  Cu162   2.675   .     S
Cu161  N182    2.009   .     S
Cu161  O183    1.950   .     S
Cu161  O191    1.949   .     S
Cu162  O190    1.949   .     S
Cu162  N181    2.009   .     S
Cu162  O194    1.959   .     S
Cu162  O193    1.957   .     S
Cu162  O189    1.950   .     S
H163   C7      1.087   1_655 S
H171   O383    0.991   .     S
H172   O386    0.991   1_545 S
O184   S197    1.503   .     D
O185   S197    1.681   .     S
O185   H369    0.991   1_545 S
O186   S396    1.503   1_545 S
O187   S198    1.503   .     D
O188   S198    1.681   .     S
O188   H370    0.991   .     S
O196   S395    1.503   .     S
S197   O394    1.503   1_545 S
S198   O384    1.503   .     S
C199   O256    1.293   .     A
C199   O249    1.292   .     A
C199   C212    1.457   .     S
C200   C202    1.411   .     A
C200   C225    1.407   .     A
C200   H236    1.081   .     S
C201   C226    1.411   .     A
C201   C220    1.411   .     A
C201   C598    1.517   1_554 S
C202   C221    1.411   .     A
C202   C597    1.517   .     S
C203   C205    1.434   .     S
C203   O260    1.287   .     A
C203   O258    1.285   .     A
C204   O261    1.287   .     A
C204   O259    1.285   .     A
C204   C206    1.434   .     S
C205   C338    1.335   1_455 S
C205   H361    1.087   1_455 S
C206   C271    1.335   .     S
C206   H305    1.087   .     S
C207   C218    1.413   .     A
C207   C209    1.397   .     A
C207   S263    1.772   .     S
C208   S264    1.772   .     S
C208   C219    1.413   .     A
C208   C211    1.397   .     A
C209   C212    1.401   .     A
C209   H240    1.083   .     S
C210   O255    1.291   .     A
C210   C213    1.456   .     S
C210   O257    1.292   .     A
C211   C213    1.401   .     A
C211   H241    1.083   .     S
C212   C214    1.398   .     A
C213   C215    1.398   .     A
C214   C216    1.388   .     A
C214   H242    1.083   .     S
C215   C217    1.388   .     A
C215   H243    1.083   .     S
C216   C218    1.401   .     A
C216   H244    1.083   .     S
C217   H245    1.083   .     S
C217   C219    1.401   .     A
C219   C20     1.463   1_565 S
C220   H246    1.081   .     S
C220   C222    1.407   .     A
C221   H230    1.081   .     S
C221   C223    1.407   .     A
C222   N247    1.364   .     A
C222   H231    1.081   .     S
C223   H232    1.081   .     S
C223   N248    1.364   .     A
C224   C226    1.407   .     A
C224   N247    1.364   .     A
C224   H233    1.081   .     S
C225   H234    1.081   .     S
C225   N248    1.364   .     A
C226   H235    1.081   .     S
Cu227  O261    1.959   .     S
Cu227  O258    1.957   .     S
Cu227  Cu228   2.675   .     S
Cu227  N248    2.009   .     S
Cu227  O249    1.950   .     S
Cu227  O257    1.949   .     S
Cu228  O256    1.949   .     S
Cu228  N247    2.009   .     S
Cu228  O260    1.959   .     S
Cu228  O259    1.957   .     S
Cu228  O255    1.950   .     S
H229   C271    1.087   .     S
H237   O53     0.991   1_565 S
H239   C338    1.087   1_455 S
O250   S263    1.503   .     D
O251   S263    1.681   .     S
O253   S264    1.503   .     D
O254   S264    1.681   .     S
O254   H40     0.991   1_565 S
O262   S65     1.503   1_565 S
S264   O54     1.503   1_565 S
C265   O322    1.293   .     A
C265   O315    1.292   .     A
C265   C278    1.457   .     S
C266   C268    1.411   .     A
C266   C291    1.407   .     A
C266   H302    1.081   .     S
C267   C292    1.411   .     A
C267   C286    1.411   .     A
C267   C664    1.517   1_554 S
C268   C287    1.411   .     A
C268   C663    1.517   .     S
C269   C271    1.434   .     S
C269   O326    1.287   .     A
C269   O324    1.285   .     A
C270   O327    1.287   .     A
C270   O325    1.285   .     A
C270   C272    1.434   .     S
C272   C337    1.335   .     S
C272   H371    1.087   .     S
C273   C284    1.413   .     A
C273   C275    1.397   .     A
C273   S329    1.772   .     S
C274   S330    1.772   .     S
C274   C285    1.413   .     A
C274   C277    1.397   .     A
C275   C278    1.401   .     A
C275   H306    1.083   .     S
C276   O321    1.291   .     A
C276   C279    1.456   .     S
C276   O323    1.292   .     A
C277   C279    1.401   .     A
C277   H307    1.083   .     S
C278   C280    1.398   .     A
C279   C281    1.398   .     A
C280   C282    1.388   .     A
C280   H308    1.083   .     S
C281   C283    1.388   .     A
C281   H309    1.083   .     S
C282   C284    1.401   .     A
C282   H310    1.083   .     S
C283   H311    1.083   .     S
C283   C285    1.401   .     A
C285   C86     1.463   1_565 S
C286   H312    1.081   .     S
C286   C288    1.407   .     A
C287   H296    1.081   .     S
C287   C289    1.407   .     A
C288   N313    1.364   .     A
C288   H297    1.081   .     S
C289   H298    1.081   .     S
C289   N314    1.364   .     A
C290   C292    1.407   .     A
C290   N313    1.364   .     A
C290   H299    1.081   .     S
C291   H300    1.081   .     S
C291   N314    1.364   .     A
C292   H301    1.081   .     S
Cu293  O327    1.959   .     S
Cu293  O324    1.957   .     S
Cu293  Cu294   2.675   .     S
Cu293  N314    2.009   .     S
Cu293  O315    1.950   .     S
Cu293  O323    1.949   .     S
Cu294  O322    1.949   .     S
Cu294  N313    2.009   .     S
Cu294  O326    1.959   .     S
Cu294  O325    1.957   .     S
Cu294  O321    1.950   .     S
H295   C337    1.087   .     S
H303   O119    0.991   1_565 S
O316   S329    1.503   .     D
O317   S329    1.681   .     S
O319   S330    1.503   .     D
O320   S330    1.681   .     S
O320   H106    0.991   1_565 S
O328   S131    1.503   1_565 S
S330   O120    1.503   1_565 S
C331   O388    1.293   .     A
C331   O381    1.292   .     A
C331   C344    1.457   .     S
C332   C334    1.411   .     A
C332   C357    1.407   .     A
C332   H368    1.081   .     S
C333   C358    1.411   .     A
C333   C352    1.411   .     A
C333   C730    1.517   1_554 S
C334   C353    1.411   .     A
C334   C729    1.517   .     S
C335   C337    1.434   .     S
C335   O392    1.287   .     A
C335   O390    1.285   .     A
C336   O393    1.287   .     A
C336   O391    1.285   .     A
C336   C338    1.434   .     S
C338   C205    1.335   1_655 S
C338   H239    1.087   1_655 S
C339   C350    1.413   .     A
C339   C341    1.397   .     A
C339   S395    1.772   .     S
C340   S396    1.772   .     S
C340   C351    1.413   .     A
C340   C343    1.397   .     A
C341   C344    1.401   .     A
C341   H372    1.083   .     S
C342   O387    1.291   .     A
C342   C345    1.456   .     S
C342   O389    1.292   .     A
C343   C345    1.401   .     A
C343   H373    1.083   .     S
C344   C346    1.398   .     A
C345   C347    1.398   .     A
C346   C348    1.388   .     A
C346   H374    1.083   .     S
C347   C349    1.388   .     A
C347   H375    1.083   .     S
C348   C350    1.401   .     A
C348   H376    1.083   .     S
C349   H377    1.083   .     S
C349   C351    1.401   .     A
C351   C152    1.463   1_565 S
C352   H378    1.081   .     S
C352   C354    1.407   .     A
C353   H362    1.081   .     S
C353   C355    1.407   .     A
C354   N379    1.364   .     A
C354   H363    1.081   .     S
C355   H364    1.081   .     S
C355   N380    1.364   .     A
C356   C358    1.407   .     A
C356   N379    1.364   .     A
C356   H365    1.081   .     S
C357   H366    1.081   .     S
C357   N380    1.364   .     A
C358   H367    1.081   .     S
Cu359  O393    1.959   .     S
Cu359  O390    1.957   .     S
Cu359  Cu360   2.675   .     S
Cu359  N380    2.009   .     S
Cu359  O381    1.950   .     S
Cu359  O389    1.949   .     S
Cu360  O388    1.949   .     S
Cu360  N379    2.009   .     S
Cu360  O392    1.959   .     S
Cu360  O391    1.957   .     S
Cu360  O387    1.950   .     S
H361   C205    1.087   1_655 S
H369   O185    0.991   1_565 S
O382   S395    1.503   .     D
O383   S395    1.681   .     S
O385   S396    1.503   .     D
O386   S396    1.681   .     S
O386   H172    0.991   1_565 S
O394   S197    1.503   1_565 S
S396   O186    1.503   1_565 S
C397   O454    1.293   .     A
C397   O447    1.292   .     A
C397   C410    1.457   .     S
C398   C400    1.411   .     A
C398   C423    1.407   .     A
C398   H434    1.081   .     S
C399   C424    1.411   .     A
C399   C418    1.411   .     A
C400   C419    1.411   .     A
C400   C3      1.517   1_556 S
C401   C403    1.434   .     S
C401   O458    1.287   .     A
C401   O456    1.285   .     A
C402   O459    1.287   .     A
C402   O457    1.285   .     A
C402   C404    1.434   .     S
C403   C536    1.335   1_455 S
C403   H559    1.087   1_455 S
C404   C469    1.335   .     S
C404   H503    1.087   .     S
C405   C416    1.413   .     A
C405   C407    1.397   .     A
C405   S461    1.772   .     S
C406   S462    1.772   .     S
C406   C417    1.413   .     A
C406   C409    1.397   .     A
C407   C410    1.401   .     A
C407   H438    1.083   .     S
C408   O453    1.291   .     A
C408   C411    1.456   .     S
C408   O455    1.292   .     A
C409   C411    1.401   .     A
C409   H439    1.083   .     S
C410   C412    1.398   .     A
C411   C413    1.398   .     A
C412   C414    1.388   .     A
C412   H440    1.083   .     S
C413   C415    1.388   .     A
C413   H441    1.083   .     S
C414   C416    1.401   .     A
C414   H442    1.083   .     S
C415   H443    1.083   .     S
C415   C417    1.401   .     A
C416   C615    1.463   1_545 S
C417   C614    1.463   .     S
C418   H444    1.081   .     S
C418   C420    1.407   .     A
C419   H428    1.081   .     S
C419   C421    1.407   .     A
C420   N445    1.364   .     A
C420   H429    1.081   .     S
C421   H430    1.081   .     S
C421   N446    1.364   .     A
C422   C424    1.407   .     A
C422   N445    1.364   .     A
C422   H431    1.081   .     S
C423   H432    1.081   .     S
C423   N446    1.364   .     A
C424   H433    1.081   .     S
Cu425  O459    1.959   .     S
Cu425  O456    1.957   .     S
Cu425  Cu426   2.675   .     S
Cu425  N446    2.009   .     S
Cu425  O447    1.950   .     S
Cu425  O455    1.949   .     S
Cu426  O454    1.949   .     S
Cu426  N445    2.009   .     S
Cu426  O458    1.959   .     S
Cu426  O457    1.957   .     S
Cu426  O453    1.950   .     S
H427   C469    1.087   .     S
H435   O647    0.991   .     S
H436   O650    0.991   1_545 S
H437   C536    1.087   1_455 S
O448   S461    1.503   .     D
O449   S461    1.681   .     S
O449   H633    0.991   1_545 S
O450   S660    1.503   1_545 S
O451   S462    1.503   .     D
O452   S462    1.681   .     S
O452   H634    0.991   .     S
O460   S659    1.503   .     S
S461   O658    1.503   1_545 S
S462   O648    1.503   .     S
C463   O520    1.293   .     A
C463   O513    1.292   .     A
C463   C476    1.457   .     S
C464   C466    1.411   .     A
C464   C489    1.407   .     A
C464   H500    1.081   .     S
C465   C490    1.411   .     A
C465   C484    1.411   .     A
C466   C485    1.411   .     A
C466   C69     1.517   1_556 S
C467   C469    1.434   .     S
C467   O524    1.287   .     A
C467   O522    1.285   .     A
C468   O525    1.287   .     A
C468   O523    1.285   .     A
C468   C470    1.434   .     S
C470   C535    1.335   .     S
C470   H569    1.087   .     S
C471   C482    1.413   .     A
C471   C473    1.397   .     A
C471   S527    1.772   .     S
C472   S528    1.772   .     S
C472   C483    1.413   .     A
C472   C475    1.397   .     A
C473   C476    1.401   .     A
C473   H504    1.083   .     S
C474   O519    1.291   .     A
C474   C477    1.456   .     S
C474   O521    1.292   .     A
C475   C477    1.401   .     A
C475   H505    1.083   .     S
C476   C478    1.398   .     A
C477   C479    1.398   .     A
C478   C480    1.388   .     A
C478   H506    1.083   .     S
C479   C481    1.388   .     A
C479   H507    1.083   .     S
C480   C482    1.401   .     A
C480   H508    1.083   .     S
C481   H509    1.083   .     S
C481   C483    1.401   .     A
C482   C681    1.463   1_545 S
C483   C680    1.463   .     S
C484   H510    1.081   .     S
C484   C486    1.407   .     A
C485   H494    1.081   .     S
C485   C487    1.407   .     A
C486   N511    1.364   .     A
C486   H495    1.081   .     S
C487   H496    1.081   .     S
C487   N512    1.364   .     A
C488   C490    1.407   .     A
C488   N511    1.364   .     A
C488   H497    1.081   .     S
C489   H498    1.081   .     S
C489   N512    1.364   .     A
C490   H499    1.081   .     S
Cu491  O525    1.959   .     S
Cu491  O522    1.957   .     S
Cu491  Cu492   2.675   .     S
Cu491  N512    2.009   .     S
Cu491  O513    1.950   .     S
Cu491  O521    1.949   .     S
Cu492  O520    1.949   .     S
Cu492  N511    2.009   .     S
Cu492  O524    1.959   .     S
Cu492  O523    1.957   .     S
Cu492  O519    1.950   .     S
H493   C535    1.087   .     S
H501   O713    0.991   .     S
H502   O716    0.991   1_545 S
O514   S527    1.503   .     D
O515   S527    1.681   .     S
O515   H699    0.991   1_545 S
O516   S726    1.503   1_545 S
O517   S528    1.503   .     D
O518   S528    1.681   .     S
O518   H700    0.991   .     S
O526   S725    1.503   .     S
S527   O724    1.503   1_545 S
S528   O714    1.503   .     S
C529   O586    1.293   .     A
C529   O579    1.292   .     A
C529   C542    1.457   .     S
C530   C532    1.411   .     A
C530   C555    1.407   .     A
C530   H566    1.081   .     S
C531   C556    1.411   .     A
C531   C550    1.411   .     A
C532   C551    1.411   .     A
C532   C135    1.517   1_556 S
C533   C535    1.434   .     S
C533   O590    1.287   .     A
C533   O588    1.285   .     A
C534   O591    1.287   .     A
C534   O589    1.285   .     A
C534   C536    1.434   .     S
C536   C403    1.335   1_655 S
C536   H437    1.087   1_655 S
C537   C548    1.413   .     A
C537   C539    1.397   .     A
C537   S593    1.772   .     S
C538   S594    1.772   .     S
C538   C549    1.413   .     A
C538   C541    1.397   .     A
C539   C542    1.401   .     A
C539   H570    1.083   .     S
C540   O585    1.291   .     A
C540   C543    1.456   .     S
C540   O587    1.292   .     A
C541   C543    1.401   .     A
C541   H571    1.083   .     S
C542   C544    1.398   .     A
C543   C545    1.398   .     A
C544   C546    1.388   .     A
C544   H572    1.083   .     S
C545   C547    1.388   .     A
C545   H573    1.083   .     S
C546   C548    1.401   .     A
C546   H574    1.083   .     S
C547   H575    1.083   .     S
C547   C549    1.401   .     A
C548   C747    1.463   1_545 S
C549   C746    1.463   .     S
C550   H576    1.081   .     S
C550   C552    1.407   .     A
C551   H560    1.081   .     S
C551   C553    1.407   .     A
C552   N577    1.364   .     A
C552   H561    1.081   .     S
C553   H562    1.081   .     S
C553   N578    1.364   .     A
C554   C556    1.407   .     A
C554   N577    1.364   .     A
C554   H563    1.081   .     S
C555   H564    1.081   .     S
C555   N578    1.364   .     A
C556   H565    1.081   .     S
Cu557  O591    1.959   .     S
Cu557  O588    1.957   .     S
Cu557  Cu558   2.675   .     S
Cu557  N578    2.009   .     S
Cu557  O579    1.950   .     S
Cu557  O587    1.949   .     S
Cu558  O586    1.949   .     S
Cu558  N577    2.009   .     S
Cu558  O590    1.959   .     S
Cu558  O589    1.957   .     S
Cu558  O585    1.950   .     S
H559   C403    1.087   1_655 S
H567   O779    0.991   .     S
H568   O782    0.991   1_545 S
O580   S593    1.503   .     D
O581   S593    1.681   .     S
O581   H765    0.991   1_545 S
O582   S792    1.503   1_545 S
O583   S594    1.503   .     D
O584   S594    1.681   .     S
O584   H766    0.991   .     S
O592   S791    1.503   .     S
S593   O790    1.503   1_545 S
S594   O780    1.503   .     S
C595   O652    1.293   .     A
C595   O645    1.292   .     A
C595   C608    1.457   .     S
C596   C598    1.411   .     A
C596   C621    1.407   .     A
C596   H632    1.081   .     S
C597   C622    1.411   .     A
C597   C616    1.411   .     A
C598   C617    1.411   .     A
C598   C201    1.517   1_556 S
C599   C601    1.434   .     S
C599   O656    1.287   .     A
C599   O654    1.285   .     A
C600   O657    1.287   .     A
C600   O655    1.285   .     A
C600   C602    1.434   .     S
C601   C734    1.335   1_455 S
C601   H757    1.087   1_455 S
C602   C667    1.335   .     S
C602   H701    1.087   .     S
C603   C614    1.413   .     A
C603   C605    1.397   .     A
C603   S659    1.772   .     S
C604   S660    1.772   .     S
C604   C615    1.413   .     A
C604   C607    1.397   .     A
C605   C608    1.401   .     A
C605   H636    1.083   .     S
C606   O651    1.291   .     A
C606   C609    1.456   .     S
C606   O653    1.292   .     A
C607   C609    1.401   .     A
C607   H637    1.083   .     S
C608   C610    1.398   .     A
C609   C611    1.398   .     A
C610   C612    1.388   .     A
C610   H638    1.083   .     S
C611   C613    1.388   .     A
C611   H639    1.083   .     S
C612   C614    1.401   .     A
C612   H640    1.083   .     S
C613   H641    1.083   .     S
C613   C615    1.401   .     A
C615   C416    1.463   1_565 S
C616   H642    1.081   .     S
C616   C618    1.407   .     A
C617   H626    1.081   .     S
C617   C619    1.407   .     A
C618   N643    1.364   .     A
C618   H627    1.081   .     S
C619   H628    1.081   .     S
C619   N644    1.364   .     A
C620   C622    1.407   .     A
C620   N643    1.364   .     A
C620   H629    1.081   .     S
C621   H630    1.081   .     S
C621   N644    1.364   .     A
C622   H631    1.081   .     S
Cu623  O657    1.959   .     S
Cu623  O654    1.957   .     S
Cu623  Cu624   2.675   .     S
Cu623  N644    2.009   .     S
Cu623  O645    1.950   .     S
Cu623  O653    1.949   .     S
Cu624  O652    1.949   .     S
Cu624  N643    2.009   .     S
Cu624  O656    1.959   .     S
Cu624  O655    1.957   .     S
Cu624  O651    1.950   .     S
H625   C667    1.087   .     S
H633   O449    0.991   1_565 S
H635   C734    1.087   1_455 S
O646   S659    1.503   .     D
O647   S659    1.681   .     S
O649   S660    1.503   .     D
O650   S660    1.681   .     S
O650   H436    0.991   1_565 S
O658   S461    1.503   1_565 S
S660   O450    1.503   1_565 S
C661   O718    1.293   .     A
C661   O711    1.292   .     A
C661   C674    1.457   .     S
C662   C664    1.411   .     A
C662   C687    1.407   .     A
C662   H698    1.081   .     S
C663   C688    1.411   .     A
C663   C682    1.411   .     A
C664   C683    1.411   .     A
C664   C267    1.517   1_556 S
C665   C667    1.434   .     S
C665   O722    1.287   .     A
C665   O720    1.285   .     A
C666   O723    1.287   .     A
C666   O721    1.285   .     A
C666   C668    1.434   .     S
C668   C733    1.335   .     S
C668   H767    1.087   .     S
C669   C680    1.413   .     A
C669   C671    1.397   .     A
C669   S725    1.772   .     S
C670   S726    1.772   .     S
C670   C681    1.413   .     A
C670   C673    1.397   .     A
C671   C674    1.401   .     A
C671   H702    1.083   .     S
C672   O717    1.291   .     A
C672   C675    1.456   .     S
C672   O719    1.292   .     A
C673   C675    1.401   .     A
C673   H703    1.083   .     S
C674   C676    1.398   .     A
C675   C677    1.398   .     A
C676   C678    1.388   .     A
C676   H704    1.083   .     S
C677   C679    1.388   .     A
C677   H705    1.083   .     S
C678   C680    1.401   .     A
C678   H706    1.083   .     S
C679   H707    1.083   .     S
C679   C681    1.401   .     A
C681   C482    1.463   1_565 S
C682   H708    1.081   .     S
C682   C684    1.407   .     A
C683   H692    1.081   .     S
C683   C685    1.407   .     A
C684   N709    1.364   .     A
C684   H693    1.081   .     S
C685   H694    1.081   .     S
C685   N710    1.364   .     A
C686   C688    1.407   .     A
C686   N709    1.364   .     A
C686   H695    1.081   .     S
C687   H696    1.081   .     S
C687   N710    1.364   .     A
C688   H697    1.081   .     S
Cu689  O723    1.959   .     S
Cu689  O720    1.957   .     S
Cu689  Cu690   2.675   .     S
Cu689  N710    2.009   .     S
Cu689  O711    1.950   .     S
Cu689  O719    1.949   .     S
Cu690  O718    1.949   .     S
Cu690  N709    2.009   .     S
Cu690  O722    1.959   .     S
Cu690  O721    1.957   .     S
Cu690  O717    1.950   .     S
H691   C733    1.087   .     S
H699   O515    0.991   1_565 S
O712   S725    1.503   .     D
O713   S725    1.681   .     S
O715   S726    1.503   .     D
O716   S726    1.681   .     S
O716   H502    0.991   1_565 S
O724   S527    1.503   1_565 S
S726   O516    1.503   1_565 S
C727   O784    1.293   .     A
C727   O777    1.292   .     A
C727   C740    1.457   .     S
C728   C730    1.411   .     A
C728   C753    1.407   .     A
C728   H764    1.081   .     S
C729   C754    1.411   .     A
C729   C748    1.411   .     A
C730   C749    1.411   .     A
C730   C333    1.517   1_556 S
C731   C733    1.434   .     S
C731   O788    1.287   .     A
C731   O786    1.285   .     A
C732   O789    1.287   .     A
C732   O787    1.285   .     A
C732   C734    1.434   .     S
C734   C601    1.335   1_655 S
C734   H635    1.087   1_655 S
C735   C746    1.413   .     A
C735   C737    1.397   .     A
C735   S791    1.772   .     S
C736   S792    1.772   .     S
C736   C747    1.413   .     A
C736   C739    1.397   .     A
C737   C740    1.401   .     A
C737   H768    1.083   .     S
C738   O783    1.291   .     A
C738   C741    1.456   .     S
C738   O785    1.292   .     A
C739   C741    1.401   .     A
C739   H769    1.083   .     S
C740   C742    1.398   .     A
C741   C743    1.398   .     A
C742   C744    1.388   .     A
C742   H770    1.083   .     S
C743   C745    1.388   .     A
C743   H771    1.083   .     S
C744   C746    1.401   .     A
C744   H772    1.083   .     S
C745   H773    1.083   .     S
C745   C747    1.401   .     A
C747   C548    1.463   1_565 S
C748   H774    1.081   .     S
C748   C750    1.407   .     A
C749   H758    1.081   .     S
C749   C751    1.407   .     A
C750   N775    1.364   .     A
C750   H759    1.081   .     S
C751   H760    1.081   .     S
C751   N776    1.364   .     A
C752   C754    1.407   .     A
C752   N775    1.364   .     A
C752   H761    1.081   .     S
C753   H762    1.081   .     S
C753   N776    1.364   .     A
C754   H763    1.081   .     S
Cu755  O789    1.959   .     S
Cu755  O786    1.957   .     S
Cu755  Cu756   2.675   .     S
Cu755  N776    2.009   .     S
Cu755  O777    1.950   .     S
Cu755  O785    1.949   .     S
Cu756  O784    1.949   .     S
Cu756  N775    2.009   .     S
Cu756  O788    1.959   .     S
Cu756  O787    1.957   .     S
Cu756  O783    1.950   .     S
H757   C601    1.087   1_655 S
H765   O581    0.991   1_565 S
O778   S791    1.503   .     D
O779   S791    1.681   .     S
O781   S792    1.503   .     D
O782   S792    1.681   .     S
O782   H568    0.991   1_565 S
O790   S593    1.503   1_565 S
S792   O582    1.503   1_565 S
