data_str_m2_o1_o16_pcu_sym.140
_audit_creation_date              2020-01-03
_audit_creation_method            'Materials Studio'
_symmetry_space_group_name_H-M    'P1'
_symmetry_Int_Tables_number       1
_symmetry_cell_setting            triclinic
loop_
_symmetry_equiv_pos_as_xyz
  x,y,z
_cell_length_a                    28.5774
_cell_length_b                    32.4235
_cell_length_c                    26.8773
_cell_angle_alpha                 90.4679
_cell_angle_beta                  72.5957
_cell_angle_gamma                 90.2623
loop_
_atom_site_label
_atom_site_type_symbol
_atom_site_fract_x
_atom_site_fract_y
_atom_site_fract_z
_atom_site_U_iso_or_equiv
_atom_site_adp_type
_atom_site_occupancy
C1     C     0.16743   0.24592   0.24782   0.00000  Uiso   1.00
C2     C     0.14486   0.15798   0.48961   0.00000  Uiso   1.00
C3     C     0.15749   0.14961   0.43543   0.00000  Uiso   1.00
C4     C     0.18139   0.15365   0.01539   0.00000  Uiso   1.00
C5     C     0.22825   0.13708   0.48822   0.00000  Uiso   1.00
C6     C     0.23762   0.12391   0.43621   0.00000  Uiso   1.00
C7     C     0.20212   0.12930   0.41097   0.00000  Uiso   1.00
C8     C     0.17291   0.16626   0.06735   0.00000  Uiso   1.00
C9     C     0.25395   0.14459   0.06640   0.00000  Uiso   1.00
C10    C     0.12467   0.16132   0.40737   0.00000  Uiso   1.00
C11    C     0.21182   0.31274   0.22004   0.00000  Uiso   1.00
C12    C     0.14051   0.16419   0.35001   0.00000  Uiso   1.00
C13    C     0.21075   0.02235   0.22318   0.00000  Uiso   1.00
C14    C     0.16707   0.04293   0.24817   0.00000  Uiso   1.00
C15    C     0.12389   0.02101   0.27053   0.00000  Uiso   1.00
C16    C     0.12464   0.31173   0.26945   0.00000  Uiso   1.00
C17    C     0.16834   0.29064   0.24511   0.00000  Uiso   1.00
C18    C     0.29950   0.19212   0.28280   0.00000  Uiso   1.00
C19    C     0.01575   0.19209   0.28282   0.00000  Uiso   1.00
C20    C     0.03343   0.14096   0.21727   0.00000  Uiso   1.00
C21    C     0.31723   0.14117   0.21736   0.00000  Uiso   1.00
C22    C     0.16664   0.08743   0.24977   0.00000  Uiso   1.00
C23    C     0.19288   0.16595   0.14998   0.00000  Uiso   1.00
C24    C     0.26429   0.13340   0.01415   0.00000  Uiso   1.00
C25    C     0.20780   0.16023   0.09338   0.00000  Uiso   1.00
C26    C     0.07693   0.17391   0.43474   0.00000  Uiso   1.00
C27    C     0.06247   0.17713   0.48865   0.00000  Uiso   1.00
C28    C     0.09598   0.17004   0.01592   0.00000  Uiso   1.00
Cu29   Cu    0.11978   0.16666   0.25000   0.00000  Uiso   1.00
Cu30   Cu    0.21355   0.16667   0.25000   0.00000  Uiso   1.00
H31    H     0.28148   0.13973   0.08605   0.00000  Uiso   1.00
H32    H     0.24353   0.03999   0.20439   0.00000  Uiso   1.00
H33    H     0.08989   0.03681   0.28984   0.00000  Uiso   1.00
H34    H     0.09110   0.29519   0.28852   0.00000  Uiso   1.00
H35    H     0.27358   0.21254   0.30908   0.00000  Uiso   1.00
H36    H     0.02717   0.21246   0.30911   0.00000  Uiso   1.00
H37    H     0.30522   0.12085   0.19138   0.00000  Uiso   1.00
H38    H     0.30027   0.12099   0.49463   0.00000  Uiso   1.00
H39    H     0.13914   0.18095   0.08887   0.00000  Uiso   1.00
H40    H     0.05084   0.18209   0.41438   0.00000  Uiso   1.00
H41    H     0.08198   0.17329   0.05767   0.00000  Uiso   1.00
H42    H     0.02538   0.18645   0.00940   0.00000  Uiso   1.00
H43    H     0.20962   0.11628   0.37224   0.00000  Uiso   1.00
N44    N     0.04931   0.16666   0.24999   0.00000  Uiso   1.00
N45    N     0.28402   0.16669   0.25000   0.00000  Uiso   1.00
O46    O     0.12708   0.22678   0.25001   0.00000  Uiso   1.00
O47    O     0.20627   0.22679   0.25001   0.00000  Uiso   1.00
O48    O     0.10775   0.16665   0.32549   0.00000  Uiso   1.00
O49    O     0.18694   0.16666   0.32549   0.00000  Uiso   1.00
O50    O     0.12706   0.10654   0.25000   0.00000  Uiso   1.00
O51    O     0.20625   0.10655   0.25000   0.00000  Uiso   1.00
O52    O     0.14640   0.16667   0.17451   0.00000  Uiso   1.00
O53    O     0.22559   0.16668   0.17451   0.00000  Uiso   1.00
C54    C     0.06650   0.11288   0.18224   0.00000  Uiso   1.00
N55    N     0.09283   0.09019   0.15392   0.00000  Uiso   1.00
C56    C     0.28368   0.10521   0.40713   0.00000  Uiso   1.00
N57    N     0.32054   0.09034   0.38379   0.00000  Uiso   1.00
C58    C     0.25745   0.29222   0.18796   0.00000  Uiso   1.00
H59    H     0.25647   0.26119   0.17299   0.00000  Uiso   1.00
O60    O     0.29685   0.31018   0.17687   0.00000  Uiso   1.00
C61    C     0.50076   0.24592   0.24782   0.00000  Uiso   1.00
C62    C     0.47819   0.15798   0.48961   0.00000  Uiso   1.00
C63    C     0.49082   0.14961   0.43543   0.00000  Uiso   1.00
C64    C     0.51472   0.15365   0.01539   0.00000  Uiso   1.00
C65    C     0.56158   0.13708   0.48822   0.00000  Uiso   1.00
C66    C     0.57095   0.12391   0.43621   0.00000  Uiso   1.00
C67    C     0.53546   0.12930   0.41097   0.00000  Uiso   1.00
C68    C     0.50624   0.16626   0.06735   0.00000  Uiso   1.00
C69    C     0.58729   0.14459   0.06640   0.00000  Uiso   1.00
C70    C     0.45800   0.16132   0.40737   0.00000  Uiso   1.00
C71    C     0.54515   0.31274   0.22004   0.00000  Uiso   1.00
C72    C     0.47384   0.16419   0.35001   0.00000  Uiso   1.00
C73    C     0.54408   0.02235   0.22318   0.00000  Uiso   1.00
C74    C     0.50041   0.04293   0.24817   0.00000  Uiso   1.00
C75    C     0.45722   0.02101   0.27053   0.00000  Uiso   1.00
C76    C     0.45797   0.31173   0.26945   0.00000  Uiso   1.00
C77    C     0.50168   0.29064   0.24511   0.00000  Uiso   1.00
C78    C     0.63283   0.19212   0.28280   0.00000  Uiso   1.00
C79    C     0.34909   0.19209   0.28282   0.00000  Uiso   1.00
C80    C     0.36676   0.14096   0.21727   0.00000  Uiso   1.00
C81    C     0.65056   0.14117   0.21736   0.00000  Uiso   1.00
C82    C     0.49998   0.08743   0.24977   0.00000  Uiso   1.00
C83    C     0.52621   0.16595   0.14998   0.00000  Uiso   1.00
C84    C     0.59762   0.13340   0.01415   0.00000  Uiso   1.00
C85    C     0.54113   0.16023   0.09338   0.00000  Uiso   1.00
C86    C     0.41027   0.17391   0.43474   0.00000  Uiso   1.00
C87    C     0.39580   0.17713   0.48865   0.00000  Uiso   1.00
C88    C     0.42931   0.17004   0.01592   0.00000  Uiso   1.00
Cu89   Cu    0.45311   0.16666   0.25000   0.00000  Uiso   1.00
Cu90   Cu    0.54689   0.16667   0.25000   0.00000  Uiso   1.00
H91    H     0.61481   0.13973   0.08605   0.00000  Uiso   1.00
H92    H     0.57686   0.03999   0.20439   0.00000  Uiso   1.00
H93    H     0.42323   0.03681   0.28984   0.00000  Uiso   1.00
H94    H     0.42443   0.29519   0.28852   0.00000  Uiso   1.00
H95    H     0.60691   0.21254   0.30908   0.00000  Uiso   1.00
H96    H     0.36051   0.21246   0.30911   0.00000  Uiso   1.00
H97    H     0.63856   0.12085   0.19138   0.00000  Uiso   1.00
H98    H     0.63360   0.12099   0.49463   0.00000  Uiso   1.00
H99    H     0.47248   0.18095   0.08887   0.00000  Uiso   1.00
H100   H     0.38417   0.18209   0.41438   0.00000  Uiso   1.00
H101   H     0.41531   0.17329   0.05767   0.00000  Uiso   1.00
H102   H     0.35872   0.18645   0.00940   0.00000  Uiso   1.00
H103   H     0.54295   0.11628   0.37224   0.00000  Uiso   1.00
N104   N     0.38265   0.16666   0.24999   0.00000  Uiso   1.00
N105   N     0.61735   0.16669   0.25000   0.00000  Uiso   1.00
O106   O     0.46042   0.22678   0.25001   0.00000  Uiso   1.00
O107   O     0.53961   0.22679   0.25001   0.00000  Uiso   1.00
O108   O     0.44108   0.16665   0.32549   0.00000  Uiso   1.00
O109   O     0.52027   0.16666   0.32549   0.00000  Uiso   1.00
O110   O     0.46039   0.10654   0.25000   0.00000  Uiso   1.00
O111   O     0.53958   0.10655   0.25000   0.00000  Uiso   1.00
O112   O     0.47973   0.16667   0.17451   0.00000  Uiso   1.00
O113   O     0.55892   0.16668   0.17451   0.00000  Uiso   1.00
C114   C     0.39984   0.11288   0.18224   0.00000  Uiso   1.00
N115   N     0.42616   0.09019   0.15392   0.00000  Uiso   1.00
C116   C     0.61701   0.10521   0.40713   0.00000  Uiso   1.00
N117   N     0.65387   0.09034   0.38379   0.00000  Uiso   1.00
C118   C     0.59078   0.29222   0.18796   0.00000  Uiso   1.00
H119   H     0.58981   0.26119   0.17299   0.00000  Uiso   1.00
O120   O     0.63019   0.31018   0.17687   0.00000  Uiso   1.00
C121   C     0.83409   0.24592   0.24782   0.00000  Uiso   1.00
C122   C     0.81152   0.15798   0.48961   0.00000  Uiso   1.00
C123   C     0.82415   0.14961   0.43543   0.00000  Uiso   1.00
C124   C     0.84806   0.15365   0.01539   0.00000  Uiso   1.00
C125   C     0.89491   0.13708   0.48822   0.00000  Uiso   1.00
C126   C     0.90428   0.12391   0.43621   0.00000  Uiso   1.00
C127   C     0.86879   0.12930   0.41097   0.00000  Uiso   1.00
C128   C     0.83958   0.16626   0.06735   0.00000  Uiso   1.00
C129   C     0.92062   0.14459   0.06640   0.00000  Uiso   1.00
C130   C     0.79134   0.16132   0.40737   0.00000  Uiso   1.00
C131   C     0.87848   0.31274   0.22004   0.00000  Uiso   1.00
C132   C     0.80718   0.16419   0.35001   0.00000  Uiso   1.00
C133   C     0.87742   0.02235   0.22318   0.00000  Uiso   1.00
C134   C     0.83374   0.04293   0.24817   0.00000  Uiso   1.00
C135   C     0.79056   0.02101   0.27053   0.00000  Uiso   1.00
C136   C     0.79130   0.31173   0.26945   0.00000  Uiso   1.00
C137   C     0.83501   0.29064   0.24511   0.00000  Uiso   1.00
C138   C     0.96617   0.19212   0.28280   0.00000  Uiso   1.00
C139   C     0.68242   0.19209   0.28282   0.00000  Uiso   1.00
C140   C     0.70010   0.14096   0.21727   0.00000  Uiso   1.00
C141   C     0.98389   0.14117   0.21736   0.00000  Uiso   1.00
C142   C     0.83331   0.08743   0.24977   0.00000  Uiso   1.00
C143   C     0.85954   0.16595   0.14998   0.00000  Uiso   1.00
C144   C     0.93095   0.13340   0.01415   0.00000  Uiso   1.00
C145   C     0.87447   0.16023   0.09338   0.00000  Uiso   1.00
C146   C     0.74360   0.17391   0.43474   0.00000  Uiso   1.00
C147   C     0.72914   0.17713   0.48865   0.00000  Uiso   1.00
C148   C     0.76265   0.17004   0.01592   0.00000  Uiso   1.00
Cu149  Cu    0.78645   0.16666   0.25000   0.00000  Uiso   1.00
Cu150  Cu    0.88022   0.16667   0.25000   0.00000  Uiso   1.00
H151   H     0.94815   0.13973   0.08605   0.00000  Uiso   1.00
H152   H     0.91019   0.03999   0.20439   0.00000  Uiso   1.00
H153   H     0.75656   0.03681   0.28984   0.00000  Uiso   1.00
H154   H     0.75776   0.29519   0.28852   0.00000  Uiso   1.00
H155   H     0.94024   0.21254   0.30908   0.00000  Uiso   1.00
H156   H     0.69384   0.21246   0.30911   0.00000  Uiso   1.00
H157   H     0.97189   0.12085   0.19138   0.00000  Uiso   1.00
H158   H     0.96693   0.12099   0.49463   0.00000  Uiso   1.00
H159   H     0.80581   0.18095   0.08887   0.00000  Uiso   1.00
H160   H     0.71751   0.18209   0.41438   0.00000  Uiso   1.00
H161   H     0.74865   0.17329   0.05767   0.00000  Uiso   1.00
H162   H     0.69205   0.18645   0.00940   0.00000  Uiso   1.00
H163   H     0.87628   0.11628   0.37224   0.00000  Uiso   1.00
N164   N     0.71598   0.16666   0.24999   0.00000  Uiso   1.00
N165   N     0.95069   0.16669   0.25000   0.00000  Uiso   1.00
O166   O     0.79375   0.22678   0.25001   0.00000  Uiso   1.00
O167   O     0.87294   0.22679   0.25001   0.00000  Uiso   1.00
O168   O     0.77441   0.16665   0.32549   0.00000  Uiso   1.00
O169   O     0.85360   0.16666   0.32549   0.00000  Uiso   1.00
O170   O     0.79373   0.10654   0.25000   0.00000  Uiso   1.00
O171   O     0.87292   0.10655   0.25000   0.00000  Uiso   1.00
O172   O     0.81306   0.16667   0.17451   0.00000  Uiso   1.00
O173   O     0.89225   0.16668   0.17451   0.00000  Uiso   1.00
C174   C     0.73317   0.11288   0.18224   0.00000  Uiso   1.00
N175   N     0.75949   0.09019   0.15392   0.00000  Uiso   1.00
C176   C     0.95035   0.10521   0.40713   0.00000  Uiso   1.00
N177   N     0.98720   0.09034   0.38379   0.00000  Uiso   1.00
C178   C     0.92412   0.29222   0.18796   0.00000  Uiso   1.00
H179   H     0.92314   0.26119   0.17299   0.00000  Uiso   1.00
O180   O     0.96352   0.31018   0.17687   0.00000  Uiso   1.00
C181   C     0.16743   0.57925   0.24782   0.00000  Uiso   1.00
C182   C     0.14486   0.49131   0.48961   0.00000  Uiso   1.00
C183   C     0.15749   0.48294   0.43543   0.00000  Uiso   1.00
C184   C     0.18139   0.48698   0.01539   0.00000  Uiso   1.00
C185   C     0.22825   0.47041   0.48822   0.00000  Uiso   1.00
C186   C     0.23762   0.45725   0.43621   0.00000  Uiso   1.00
C187   C     0.20212   0.46263   0.41097   0.00000  Uiso   1.00
C188   C     0.17291   0.49959   0.06735   0.00000  Uiso   1.00
C189   C     0.25395   0.47792   0.06640   0.00000  Uiso   1.00
C190   C     0.12467   0.49465   0.40737   0.00000  Uiso   1.00
C191   C     0.21182   0.64607   0.22004   0.00000  Uiso   1.00
C192   C     0.14051   0.49753   0.35001   0.00000  Uiso   1.00
C193   C     0.21075   0.35569   0.22318   0.00000  Uiso   1.00
C194   C     0.16707   0.37626   0.24817   0.00000  Uiso   1.00
C195   C     0.12389   0.35434   0.27053   0.00000  Uiso   1.00
C196   C     0.12464   0.64506   0.26945   0.00000  Uiso   1.00
C197   C     0.16834   0.62397   0.24511   0.00000  Uiso   1.00
C198   C     0.29950   0.52546   0.28280   0.00000  Uiso   1.00
C199   C     0.01575   0.52543   0.28282   0.00000  Uiso   1.00
C200   C     0.03343   0.47429   0.21727   0.00000  Uiso   1.00
C201   C     0.31723   0.47451   0.21736   0.00000  Uiso   1.00
C202   C     0.16664   0.42077   0.24977   0.00000  Uiso   1.00
C203   C     0.19288   0.49929   0.14998   0.00000  Uiso   1.00
C204   C     0.26429   0.46674   0.01415   0.00000  Uiso   1.00
C205   C     0.20780   0.49356   0.09338   0.00000  Uiso   1.00
C206   C     0.07693   0.50725   0.43474   0.00000  Uiso   1.00
C207   C     0.06247   0.51046   0.48865   0.00000  Uiso   1.00
C208   C     0.09598   0.50337   0.01592   0.00000  Uiso   1.00
Cu209  Cu    0.11978   0.49999   0.25000   0.00000  Uiso   1.00
Cu210  Cu    0.21355   0.50001   0.25000   0.00000  Uiso   1.00
H211   H     0.28148   0.47307   0.08605   0.00000  Uiso   1.00
H212   H     0.24353   0.37332   0.20439   0.00000  Uiso   1.00
H213   H     0.08989   0.37015   0.28984   0.00000  Uiso   1.00
H214   H     0.09110   0.62853   0.28852   0.00000  Uiso   1.00
H215   H     0.27358   0.54587   0.30908   0.00000  Uiso   1.00
H216   H     0.02717   0.54579   0.30911   0.00000  Uiso   1.00
H217   H     0.30522   0.45418   0.19138   0.00000  Uiso   1.00
H218   H     0.30027   0.45433   0.49463   0.00000  Uiso   1.00
H219   H     0.13914   0.51428   0.08887   0.00000  Uiso   1.00
H220   H     0.05084   0.51542   0.41438   0.00000  Uiso   1.00
H221   H     0.08198   0.50663   0.05767   0.00000  Uiso   1.00
H222   H     0.02538   0.51979   0.00940   0.00000  Uiso   1.00
H223   H     0.20962   0.44961   0.37224   0.00000  Uiso   1.00
N224   N     0.04931   0.49999   0.24999   0.00000  Uiso   1.00
N225   N     0.28402   0.50002   0.25000   0.00000  Uiso   1.00
O226   O     0.12708   0.56011   0.25001   0.00000  Uiso   1.00
O227   O     0.20627   0.56012   0.25001   0.00000  Uiso   1.00
O228   O     0.10775   0.49998   0.32549   0.00000  Uiso   1.00
O229   O     0.18694   0.49999   0.32549   0.00000  Uiso   1.00
O230   O     0.12706   0.43988   0.25000   0.00000  Uiso   1.00
O231   O     0.20625   0.43989   0.25000   0.00000  Uiso   1.00
O232   O     0.14640   0.50001   0.17451   0.00000  Uiso   1.00
O233   O     0.22559   0.50002   0.17451   0.00000  Uiso   1.00
C234   C     0.06650   0.44622   0.18224   0.00000  Uiso   1.00
N235   N     0.09283   0.42352   0.15392   0.00000  Uiso   1.00
C236   C     0.28368   0.43854   0.40713   0.00000  Uiso   1.00
N237   N     0.32054   0.42368   0.38379   0.00000  Uiso   1.00
C238   C     0.25745   0.62555   0.18796   0.00000  Uiso   1.00
H239   H     0.25647   0.59452   0.17299   0.00000  Uiso   1.00
O240   O     0.29685   0.64351   0.17687   0.00000  Uiso   1.00
C241   C     0.50076   0.57925   0.24782   0.00000  Uiso   1.00
C242   C     0.47819   0.49131   0.48961   0.00000  Uiso   1.00
C243   C     0.49082   0.48294   0.43543   0.00000  Uiso   1.00
C244   C     0.51472   0.48698   0.01539   0.00000  Uiso   1.00
C245   C     0.56158   0.47041   0.48822   0.00000  Uiso   1.00
C246   C     0.57095   0.45725   0.43621   0.00000  Uiso   1.00
C247   C     0.53546   0.46263   0.41097   0.00000  Uiso   1.00
C248   C     0.50624   0.49959   0.06735   0.00000  Uiso   1.00
C249   C     0.58729   0.47792   0.06640   0.00000  Uiso   1.00
C250   C     0.45800   0.49465   0.40737   0.00000  Uiso   1.00
C251   C     0.54515   0.64607   0.22004   0.00000  Uiso   1.00
C252   C     0.47384   0.49753   0.35001   0.00000  Uiso   1.00
C253   C     0.54408   0.35569   0.22318   0.00000  Uiso   1.00
C254   C     0.50041   0.37626   0.24817   0.00000  Uiso   1.00
C255   C     0.45722   0.35434   0.27053   0.00000  Uiso   1.00
C256   C     0.45797   0.64506   0.26945   0.00000  Uiso   1.00
C257   C     0.50168   0.62397   0.24511   0.00000  Uiso   1.00
C258   C     0.63283   0.52546   0.28280   0.00000  Uiso   1.00
C259   C     0.34909   0.52543   0.28282   0.00000  Uiso   1.00
C260   C     0.36676   0.47429   0.21727   0.00000  Uiso   1.00
C261   C     0.65056   0.47451   0.21736   0.00000  Uiso   1.00
C262   C     0.49998   0.42077   0.24977   0.00000  Uiso   1.00
C263   C     0.52621   0.49929   0.14998   0.00000  Uiso   1.00
C264   C     0.59762   0.46674   0.01415   0.00000  Uiso   1.00
C265   C     0.54113   0.49356   0.09338   0.00000  Uiso   1.00
C266   C     0.41027   0.50725   0.43474   0.00000  Uiso   1.00
C267   C     0.39580   0.51046   0.48865   0.00000  Uiso   1.00
C268   C     0.42931   0.50337   0.01592   0.00000  Uiso   1.00
Cu269  Cu    0.45311   0.49999   0.25000   0.00000  Uiso   1.00
Cu270  Cu    0.54689   0.50001   0.25000   0.00000  Uiso   1.00
H271   H     0.61481   0.47307   0.08605   0.00000  Uiso   1.00
H272   H     0.57686   0.37332   0.20439   0.00000  Uiso   1.00
H273   H     0.42323   0.37015   0.28984   0.00000  Uiso   1.00
H274   H     0.42443   0.62853   0.28852   0.00000  Uiso   1.00
H275   H     0.60691   0.54587   0.30908   0.00000  Uiso   1.00
H276   H     0.36051   0.54579   0.30911   0.00000  Uiso   1.00
H277   H     0.63856   0.45418   0.19138   0.00000  Uiso   1.00
H278   H     0.63360   0.45433   0.49463   0.00000  Uiso   1.00
H279   H     0.47248   0.51428   0.08887   0.00000  Uiso   1.00
H280   H     0.38417   0.51542   0.41438   0.00000  Uiso   1.00
H281   H     0.41531   0.50663   0.05767   0.00000  Uiso   1.00
H282   H     0.35872   0.51979   0.00940   0.00000  Uiso   1.00
H283   H     0.54295   0.44961   0.37224   0.00000  Uiso   1.00
N284   N     0.38265   0.49999   0.24999   0.00000  Uiso   1.00
N285   N     0.61735   0.50002   0.25000   0.00000  Uiso   1.00
O286   O     0.46042   0.56011   0.25001   0.00000  Uiso   1.00
O287   O     0.53961   0.56012   0.25001   0.00000  Uiso   1.00
O288   O     0.44108   0.49998   0.32549   0.00000  Uiso   1.00
O289   O     0.52027   0.49999   0.32549   0.00000  Uiso   1.00
O290   O     0.46039   0.43988   0.25000   0.00000  Uiso   1.00
O291   O     0.53958   0.43989   0.25000   0.00000  Uiso   1.00
O292   O     0.47973   0.50001   0.17451   0.00000  Uiso   1.00
O293   O     0.55892   0.50002   0.17451   0.00000  Uiso   1.00
C294   C     0.39984   0.44622   0.18224   0.00000  Uiso   1.00
N295   N     0.42616   0.42352   0.15392   0.00000  Uiso   1.00
C296   C     0.61701   0.43854   0.40713   0.00000  Uiso   1.00
N297   N     0.65387   0.42368   0.38379   0.00000  Uiso   1.00
C298   C     0.59078   0.62555   0.18796   0.00000  Uiso   1.00
H299   H     0.58981   0.59452   0.17299   0.00000  Uiso   1.00
O300   O     0.63019   0.64351   0.17687   0.00000  Uiso   1.00
C301   C     0.83409   0.57925   0.24782   0.00000  Uiso   1.00
C302   C     0.81152   0.49131   0.48961   0.00000  Uiso   1.00
C303   C     0.82415   0.48294   0.43543   0.00000  Uiso   1.00
C304   C     0.84806   0.48698   0.01539   0.00000  Uiso   1.00
C305   C     0.89491   0.47041   0.48822   0.00000  Uiso   1.00
C306   C     0.90428   0.45725   0.43621   0.00000  Uiso   1.00
C307   C     0.86879   0.46263   0.41097   0.00000  Uiso   1.00
C308   C     0.83958   0.49959   0.06735   0.00000  Uiso   1.00
C309   C     0.92062   0.47792   0.06640   0.00000  Uiso   1.00
C310   C     0.79134   0.49465   0.40737   0.00000  Uiso   1.00
C311   C     0.87848   0.64607   0.22004   0.00000  Uiso   1.00
C312   C     0.80718   0.49753   0.35001   0.00000  Uiso   1.00
C313   C     0.87742   0.35569   0.22318   0.00000  Uiso   1.00
C314   C     0.83374   0.37626   0.24817   0.00000  Uiso   1.00
C315   C     0.79056   0.35434   0.27053   0.00000  Uiso   1.00
C316   C     0.79130   0.64506   0.26945   0.00000  Uiso   1.00
C317   C     0.83501   0.62397   0.24511   0.00000  Uiso   1.00
C318   C     0.96617   0.52546   0.28280   0.00000  Uiso   1.00
C319   C     0.68242   0.52543   0.28282   0.00000  Uiso   1.00
C320   C     0.70010   0.47429   0.21727   0.00000  Uiso   1.00
C321   C     0.98389   0.47451   0.21736   0.00000  Uiso   1.00
C322   C     0.83331   0.42077   0.24977   0.00000  Uiso   1.00
C323   C     0.85954   0.49929   0.14998   0.00000  Uiso   1.00
C324   C     0.93095   0.46674   0.01415   0.00000  Uiso   1.00
C325   C     0.87447   0.49356   0.09338   0.00000  Uiso   1.00
C326   C     0.74360   0.50725   0.43474   0.00000  Uiso   1.00
C327   C     0.72914   0.51046   0.48865   0.00000  Uiso   1.00
C328   C     0.76265   0.50337   0.01592   0.00000  Uiso   1.00
Cu329  Cu    0.78645   0.49999   0.25000   0.00000  Uiso   1.00
Cu330  Cu    0.88022   0.50001   0.25000   0.00000  Uiso   1.00
H331   H     0.94815   0.47307   0.08605   0.00000  Uiso   1.00
H332   H     0.91019   0.37332   0.20439   0.00000  Uiso   1.00
H333   H     0.75656   0.37015   0.28984   0.00000  Uiso   1.00
H334   H     0.75776   0.62853   0.28852   0.00000  Uiso   1.00
H335   H     0.94024   0.54587   0.30908   0.00000  Uiso   1.00
H336   H     0.69384   0.54579   0.30911   0.00000  Uiso   1.00
H337   H     0.97189   0.45418   0.19138   0.00000  Uiso   1.00
H338   H     0.96693   0.45433   0.49463   0.00000  Uiso   1.00
H339   H     0.80581   0.51428   0.08887   0.00000  Uiso   1.00
H340   H     0.71751   0.51542   0.41438   0.00000  Uiso   1.00
H341   H     0.74865   0.50663   0.05767   0.00000  Uiso   1.00
H342   H     0.69205   0.51979   0.00940   0.00000  Uiso   1.00
H343   H     0.87628   0.44961   0.37224   0.00000  Uiso   1.00
N344   N     0.71598   0.49999   0.24999   0.00000  Uiso   1.00
N345   N     0.95069   0.50002   0.25000   0.00000  Uiso   1.00
O346   O     0.79375   0.56011   0.25001   0.00000  Uiso   1.00
O347   O     0.87294   0.56012   0.25001   0.00000  Uiso   1.00
O348   O     0.77441   0.49998   0.32549   0.00000  Uiso   1.00
O349   O     0.85360   0.49999   0.32549   0.00000  Uiso   1.00
O350   O     0.79373   0.43988   0.25000   0.00000  Uiso   1.00
O351   O     0.87292   0.43989   0.25000   0.00000  Uiso   1.00
O352   O     0.81306   0.50001   0.17451   0.00000  Uiso   1.00
O353   O     0.89225   0.50002   0.17451   0.00000  Uiso   1.00
C354   C     0.73317   0.44622   0.18224   0.00000  Uiso   1.00
N355   N     0.75949   0.42352   0.15392   0.00000  Uiso   1.00
C356   C     0.95035   0.43854   0.40713   0.00000  Uiso   1.00
N357   N     0.98720   0.42368   0.38379   0.00000  Uiso   1.00
C358   C     0.92412   0.62555   0.18796   0.00000  Uiso   1.00
H359   H     0.92314   0.59452   0.17299   0.00000  Uiso   1.00
O360   O     0.96352   0.64351   0.17687   0.00000  Uiso   1.00
C361   C     0.16743   0.91258   0.24782   0.00000  Uiso   1.00
C362   C     0.14486   0.82464   0.48961   0.00000  Uiso   1.00
C363   C     0.15749   0.81628   0.43543   0.00000  Uiso   1.00
C364   C     0.18139   0.82031   0.01539   0.00000  Uiso   1.00
C365   C     0.22825   0.80375   0.48822   0.00000  Uiso   1.00
C366   C     0.23762   0.79058   0.43621   0.00000  Uiso   1.00
C367   C     0.20212   0.79597   0.41097   0.00000  Uiso   1.00
C368   C     0.17291   0.83292   0.06735   0.00000  Uiso   1.00
C369   C     0.25395   0.81125   0.06640   0.00000  Uiso   1.00
C370   C     0.12467   0.82798   0.40737   0.00000  Uiso   1.00
C371   C     0.21182   0.97941   0.22004   0.00000  Uiso   1.00
C372   C     0.14051   0.83086   0.35001   0.00000  Uiso   1.00
C373   C     0.21075   0.68902   0.22318   0.00000  Uiso   1.00
C374   C     0.16707   0.70959   0.24817   0.00000  Uiso   1.00
C375   C     0.12389   0.68767   0.27053   0.00000  Uiso   1.00
C376   C     0.12464   0.97839   0.26945   0.00000  Uiso   1.00
C377   C     0.16834   0.95731   0.24511   0.00000  Uiso   1.00
C378   C     0.29950   0.85879   0.28280   0.00000  Uiso   1.00
C379   C     0.01575   0.85876   0.28282   0.00000  Uiso   1.00
C380   C     0.03343   0.80763   0.21727   0.00000  Uiso   1.00
C381   C     0.31723   0.80784   0.21736   0.00000  Uiso   1.00
C382   C     0.16664   0.75410   0.24977   0.00000  Uiso   1.00
C383   C     0.19288   0.83262   0.14998   0.00000  Uiso   1.00
C384   C     0.26429   0.80007   0.01415   0.00000  Uiso   1.00
C385   C     0.20780   0.82690   0.09338   0.00000  Uiso   1.00
C386   C     0.07693   0.84058   0.43474   0.00000  Uiso   1.00
C387   C     0.06247   0.84380   0.48865   0.00000  Uiso   1.00
C388   C     0.09598   0.83671   0.01592   0.00000  Uiso   1.00
Cu389  Cu    0.11978   0.83333   0.25000   0.00000  Uiso   1.00
Cu390  Cu    0.21355   0.83334   0.25000   0.00000  Uiso   1.00
H391   H     0.28148   0.80640   0.08605   0.00000  Uiso   1.00
H392   H     0.24353   0.70665   0.20439   0.00000  Uiso   1.00
H393   H     0.08989   0.70348   0.28984   0.00000  Uiso   1.00
H394   H     0.09110   0.96186   0.28852   0.00000  Uiso   1.00
H395   H     0.27358   0.87921   0.30908   0.00000  Uiso   1.00
H396   H     0.02717   0.87913   0.30911   0.00000  Uiso   1.00
H397   H     0.30522   0.78751   0.19138   0.00000  Uiso   1.00
H398   H     0.30027   0.78766   0.49463   0.00000  Uiso   1.00
H399   H     0.13914   0.84761   0.08887   0.00000  Uiso   1.00
H400   H     0.05084   0.84876   0.41438   0.00000  Uiso   1.00
H401   H     0.08198   0.83996   0.05767   0.00000  Uiso   1.00
H402   H     0.02538   0.85312   0.00940   0.00000  Uiso   1.00
H403   H     0.20962   0.78294   0.37224   0.00000  Uiso   1.00
N404   N     0.04931   0.83332   0.24999   0.00000  Uiso   1.00
N405   N     0.28402   0.83335   0.25000   0.00000  Uiso   1.00
O406   O     0.12708   0.89345   0.25001   0.00000  Uiso   1.00
O407   O     0.20627   0.89346   0.25001   0.00000  Uiso   1.00
O408   O     0.10775   0.83332   0.32549   0.00000  Uiso   1.00
O409   O     0.18694   0.83333   0.32549   0.00000  Uiso   1.00
O410   O     0.12706   0.77321   0.25000   0.00000  Uiso   1.00
O411   O     0.20625   0.77322   0.25000   0.00000  Uiso   1.00
O412   O     0.14640   0.83334   0.17451   0.00000  Uiso   1.00
O413   O     0.22559   0.83335   0.17451   0.00000  Uiso   1.00
C414   C     0.06650   0.77955   0.18224   0.00000  Uiso   1.00
N415   N     0.09283   0.75686   0.15392   0.00000  Uiso   1.00
C416   C     0.28368   0.77188   0.40713   0.00000  Uiso   1.00
N417   N     0.32054   0.75701   0.38379   0.00000  Uiso   1.00
C418   C     0.25745   0.95889   0.18796   0.00000  Uiso   1.00
H419   H     0.25647   0.92785   0.17299   0.00000  Uiso   1.00
O420   O     0.29685   0.97685   0.17687   0.00000  Uiso   1.00
C421   C     0.50076   0.91258   0.24782   0.00000  Uiso   1.00
C422   C     0.47819   0.82464   0.48961   0.00000  Uiso   1.00
C423   C     0.49082   0.81628   0.43543   0.00000  Uiso   1.00
C424   C     0.51472   0.82031   0.01539   0.00000  Uiso   1.00
C425   C     0.56158   0.80375   0.48822   0.00000  Uiso   1.00
C426   C     0.57095   0.79058   0.43621   0.00000  Uiso   1.00
C427   C     0.53546   0.79597   0.41097   0.00000  Uiso   1.00
C428   C     0.50624   0.83292   0.06735   0.00000  Uiso   1.00
C429   C     0.58729   0.81125   0.06640   0.00000  Uiso   1.00
C430   C     0.45800   0.82798   0.40737   0.00000  Uiso   1.00
C431   C     0.54515   0.97941   0.22004   0.00000  Uiso   1.00
C432   C     0.47384   0.83086   0.35001   0.00000  Uiso   1.00
C433   C     0.54408   0.68902   0.22318   0.00000  Uiso   1.00
C434   C     0.50041   0.70959   0.24817   0.00000  Uiso   1.00
C435   C     0.45722   0.68767   0.27053   0.00000  Uiso   1.00
C436   C     0.45797   0.97839   0.26945   0.00000  Uiso   1.00
C437   C     0.50168   0.95731   0.24511   0.00000  Uiso   1.00
C438   C     0.63283   0.85879   0.28280   0.00000  Uiso   1.00
C439   C     0.34909   0.85876   0.28282   0.00000  Uiso   1.00
C440   C     0.36676   0.80763   0.21727   0.00000  Uiso   1.00
C441   C     0.65056   0.80784   0.21736   0.00000  Uiso   1.00
C442   C     0.49998   0.75410   0.24977   0.00000  Uiso   1.00
C443   C     0.52621   0.83262   0.14998   0.00000  Uiso   1.00
C444   C     0.59762   0.80007   0.01415   0.00000  Uiso   1.00
C445   C     0.54113   0.82690   0.09338   0.00000  Uiso   1.00
C446   C     0.41027   0.84058   0.43474   0.00000  Uiso   1.00
C447   C     0.39580   0.84380   0.48865   0.00000  Uiso   1.00
C448   C     0.42931   0.83671   0.01592   0.00000  Uiso   1.00
Cu449  Cu    0.45311   0.83333   0.25000   0.00000  Uiso   1.00
Cu450  Cu    0.54689   0.83334   0.25000   0.00000  Uiso   1.00
H451   H     0.61481   0.80640   0.08605   0.00000  Uiso   1.00
H452   H     0.57686   0.70665   0.20439   0.00000  Uiso   1.00
H453   H     0.42323   0.70348   0.28984   0.00000  Uiso   1.00
H454   H     0.42443   0.96186   0.28852   0.00000  Uiso   1.00
H455   H     0.60691   0.87921   0.30908   0.00000  Uiso   1.00
H456   H     0.36051   0.87913   0.30911   0.00000  Uiso   1.00
H457   H     0.63856   0.78751   0.19138   0.00000  Uiso   1.00
H458   H     0.63360   0.78766   0.49463   0.00000  Uiso   1.00
H459   H     0.47248   0.84761   0.08887   0.00000  Uiso   1.00
H460   H     0.38417   0.84876   0.41438   0.00000  Uiso   1.00
H461   H     0.41531   0.83996   0.05767   0.00000  Uiso   1.00
H462   H     0.35872   0.85312   0.00940   0.00000  Uiso   1.00
H463   H     0.54295   0.78294   0.37224   0.00000  Uiso   1.00
N464   N     0.38265   0.83332   0.24999   0.00000  Uiso   1.00
N465   N     0.61735   0.83335   0.25000   0.00000  Uiso   1.00
O466   O     0.46042   0.89345   0.25001   0.00000  Uiso   1.00
O467   O     0.53961   0.89346   0.25001   0.00000  Uiso   1.00
O468   O     0.44108   0.83332   0.32549   0.00000  Uiso   1.00
O469   O     0.52027   0.83333   0.32549   0.00000  Uiso   1.00
O470   O     0.46039   0.77321   0.25000   0.00000  Uiso   1.00
O471   O     0.53958   0.77322   0.25000   0.00000  Uiso   1.00
O472   O     0.47973   0.83334   0.17451   0.00000  Uiso   1.00
O473   O     0.55892   0.83335   0.17451   0.00000  Uiso   1.00
C474   C     0.39984   0.77955   0.18224   0.00000  Uiso   1.00
N475   N     0.42616   0.75686   0.15392   0.00000  Uiso   1.00
C476   C     0.61701   0.77188   0.40713   0.00000  Uiso   1.00
N477   N     0.65387   0.75701   0.38379   0.00000  Uiso   1.00
C478   C     0.59078   0.95889   0.18796   0.00000  Uiso   1.00
H479   H     0.58981   0.92785   0.17299   0.00000  Uiso   1.00
O480   O     0.63019   0.97685   0.17687   0.00000  Uiso   1.00
C481   C     0.83409   0.91258   0.24782   0.00000  Uiso   1.00
C482   C     0.81152   0.82464   0.48961   0.00000  Uiso   1.00
C483   C     0.82415   0.81628   0.43543   0.00000  Uiso   1.00
C484   C     0.84806   0.82031   0.01539   0.00000  Uiso   1.00
C485   C     0.89491   0.80375   0.48822   0.00000  Uiso   1.00
C486   C     0.90428   0.79058   0.43621   0.00000  Uiso   1.00
C487   C     0.86879   0.79597   0.41097   0.00000  Uiso   1.00
C488   C     0.83958   0.83292   0.06735   0.00000  Uiso   1.00
C489   C     0.92062   0.81125   0.06640   0.00000  Uiso   1.00
C490   C     0.79134   0.82798   0.40737   0.00000  Uiso   1.00
C491   C     0.87848   0.97941   0.22004   0.00000  Uiso   1.00
C492   C     0.80718   0.83086   0.35001   0.00000  Uiso   1.00
C493   C     0.87742   0.68902   0.22318   0.00000  Uiso   1.00
C494   C     0.83374   0.70959   0.24817   0.00000  Uiso   1.00
C495   C     0.79056   0.68767   0.27053   0.00000  Uiso   1.00
C496   C     0.79130   0.97839   0.26945   0.00000  Uiso   1.00
C497   C     0.83501   0.95731   0.24511   0.00000  Uiso   1.00
C498   C     0.96617   0.85879   0.28280   0.00000  Uiso   1.00
C499   C     0.68242   0.85876   0.28282   0.00000  Uiso   1.00
C500   C     0.70010   0.80763   0.21727   0.00000  Uiso   1.00
C501   C     0.98389   0.80784   0.21736   0.00000  Uiso   1.00
C502   C     0.83331   0.75410   0.24977   0.00000  Uiso   1.00
C503   C     0.85954   0.83262   0.14998   0.00000  Uiso   1.00
C504   C     0.93095   0.80007   0.01415   0.00000  Uiso   1.00
C505   C     0.87447   0.82690   0.09338   0.00000  Uiso   1.00
C506   C     0.74360   0.84058   0.43474   0.00000  Uiso   1.00
C507   C     0.72914   0.84380   0.48865   0.00000  Uiso   1.00
C508   C     0.76265   0.83671   0.01592   0.00000  Uiso   1.00
Cu509  Cu    0.78645   0.83333   0.25000   0.00000  Uiso   1.00
Cu510  Cu    0.88022   0.83334   0.25000   0.00000  Uiso   1.00
H511   H     0.94815   0.80640   0.08605   0.00000  Uiso   1.00
H512   H     0.91019   0.70665   0.20439   0.00000  Uiso   1.00
H513   H     0.75656   0.70348   0.28984   0.00000  Uiso   1.00
H514   H     0.75776   0.96186   0.28852   0.00000  Uiso   1.00
H515   H     0.94024   0.87921   0.30908   0.00000  Uiso   1.00
H516   H     0.69384   0.87913   0.30911   0.00000  Uiso   1.00
H517   H     0.97189   0.78751   0.19138   0.00000  Uiso   1.00
H518   H     0.96693   0.78766   0.49463   0.00000  Uiso   1.00
H519   H     0.80581   0.84761   0.08887   0.00000  Uiso   1.00
H520   H     0.71751   0.84876   0.41438   0.00000  Uiso   1.00
H521   H     0.74865   0.83996   0.05767   0.00000  Uiso   1.00
H522   H     0.69205   0.85312   0.00940   0.00000  Uiso   1.00
H523   H     0.87628   0.78294   0.37224   0.00000  Uiso   1.00
N524   N     0.71598   0.83332   0.24999   0.00000  Uiso   1.00
N525   N     0.95069   0.83335   0.25000   0.00000  Uiso   1.00
O526   O     0.79375   0.89345   0.25001   0.00000  Uiso   1.00
O527   O     0.87294   0.89346   0.25001   0.00000  Uiso   1.00
O528   O     0.77441   0.83332   0.32549   0.00000  Uiso   1.00
O529   O     0.85360   0.83333   0.32549   0.00000  Uiso   1.00
O530   O     0.79373   0.77321   0.25000   0.00000  Uiso   1.00
O531   O     0.87292   0.77322   0.25000   0.00000  Uiso   1.00
O532   O     0.81306   0.83334   0.17451   0.00000  Uiso   1.00
O533   O     0.89225   0.83335   0.17451   0.00000  Uiso   1.00
C534   C     0.73317   0.77955   0.18224   0.00000  Uiso   1.00
N535   N     0.75949   0.75686   0.15392   0.00000  Uiso   1.00
C536   C     0.95035   0.77188   0.40713   0.00000  Uiso   1.00
N537   N     0.98720   0.75701   0.38379   0.00000  Uiso   1.00
C538   C     0.92412   0.95889   0.18796   0.00000  Uiso   1.00
H539   H     0.92314   0.92785   0.17299   0.00000  Uiso   1.00
O540   O     0.96352   0.97685   0.17687   0.00000  Uiso   1.00
C541   C     0.16743   0.24592   0.74782   0.00000  Uiso   1.00
C542   C     0.14486   0.15798   0.98961   0.00000  Uiso   1.00
C543   C     0.15749   0.14961   0.93543   0.00000  Uiso   1.00
C544   C     0.18139   0.15365   0.51539   0.00000  Uiso   1.00
C545   C     0.22825   0.13708   0.98822   0.00000  Uiso   1.00
C546   C     0.23762   0.12391   0.93621   0.00000  Uiso   1.00
C547   C     0.20212   0.12930   0.91097   0.00000  Uiso   1.00
C548   C     0.17291   0.16626   0.56735   0.00000  Uiso   1.00
C549   C     0.25395   0.14459   0.56640   0.00000  Uiso   1.00
C550   C     0.12467   0.16132   0.90737   0.00000  Uiso   1.00
C551   C     0.21182   0.31274   0.72004   0.00000  Uiso   1.00
C552   C     0.14051   0.16419   0.85001   0.00000  Uiso   1.00
C553   C     0.21075   0.02235   0.72318   0.00000  Uiso   1.00
C554   C     0.16707   0.04293   0.74817   0.00000  Uiso   1.00
C555   C     0.12389   0.02101   0.77053   0.00000  Uiso   1.00
C556   C     0.12464   0.31173   0.76945   0.00000  Uiso   1.00
C557   C     0.16834   0.29064   0.74511   0.00000  Uiso   1.00
C558   C     0.29950   0.19212   0.78280   0.00000  Uiso   1.00
C559   C     0.01575   0.19209   0.78282   0.00000  Uiso   1.00
C560   C     0.03343   0.14096   0.71727   0.00000  Uiso   1.00
C561   C     0.31723   0.14117   0.71736   0.00000  Uiso   1.00
C562   C     0.16664   0.08743   0.74977   0.00000  Uiso   1.00
C563   C     0.19288   0.16595   0.64998   0.00000  Uiso   1.00
C564   C     0.26429   0.13340   0.51415   0.00000  Uiso   1.00
C565   C     0.20780   0.16023   0.59338   0.00000  Uiso   1.00
C566   C     0.07693   0.17391   0.93474   0.00000  Uiso   1.00
C567   C     0.06247   0.17713   0.98865   0.00000  Uiso   1.00
C568   C     0.09598   0.17004   0.51592   0.00000  Uiso   1.00
Cu569  Cu    0.11978   0.16666   0.75000   0.00000  Uiso   1.00
Cu570  Cu    0.21355   0.16667   0.75000   0.00000  Uiso   1.00
H571   H     0.28148   0.13973   0.58605   0.00000  Uiso   1.00
H572   H     0.24353   0.03999   0.70439   0.00000  Uiso   1.00
H573   H     0.08989   0.03681   0.78984   0.00000  Uiso   1.00
H574   H     0.09110   0.29519   0.78852   0.00000  Uiso   1.00
H575   H     0.27358   0.21254   0.80908   0.00000  Uiso   1.00
H576   H     0.02717   0.21246   0.80911   0.00000  Uiso   1.00
H577   H     0.30522   0.12085   0.69138   0.00000  Uiso   1.00
H578   H     0.30027   0.12099   0.99463   0.00000  Uiso   1.00
H579   H     0.13914   0.18095   0.58887   0.00000  Uiso   1.00
H580   H     0.05084   0.18209   0.91438   0.00000  Uiso   1.00
H581   H     0.08198   0.17329   0.55767   0.00000  Uiso   1.00
H582   H     0.02538   0.18645   0.50940   0.00000  Uiso   1.00
H583   H     0.20962   0.11628   0.87224   0.00000  Uiso   1.00
N584   N     0.04931   0.16666   0.74999   0.00000  Uiso   1.00
N585   N     0.28402   0.16669   0.75000   0.00000  Uiso   1.00
O586   O     0.12708   0.22678   0.75001   0.00000  Uiso   1.00
O587   O     0.20627   0.22679   0.75001   0.00000  Uiso   1.00
O588   O     0.10775   0.16665   0.82549   0.00000  Uiso   1.00
O589   O     0.18694   0.16666   0.82549   0.00000  Uiso   1.00
O590   O     0.12706   0.10654   0.75000   0.00000  Uiso   1.00
O591   O     0.20625   0.10655   0.75000   0.00000  Uiso   1.00
O592   O     0.14640   0.16667   0.67451   0.00000  Uiso   1.00
O593   O     0.22559   0.16668   0.67451   0.00000  Uiso   1.00
C594   C     0.06650   0.11288   0.68224   0.00000  Uiso   1.00
N595   N     0.09283   0.09019   0.65392   0.00000  Uiso   1.00
C596   C     0.28368   0.10521   0.90713   0.00000  Uiso   1.00
N597   N     0.32054   0.09034   0.88379   0.00000  Uiso   1.00
C598   C     0.25745   0.29222   0.68796   0.00000  Uiso   1.00
H599   H     0.25647   0.26119   0.67299   0.00000  Uiso   1.00
O600   O     0.29685   0.31018   0.67687   0.00000  Uiso   1.00
C601   C     0.50076   0.24592   0.74782   0.00000  Uiso   1.00
C602   C     0.47819   0.15798   0.98961   0.00000  Uiso   1.00
C603   C     0.49082   0.14961   0.93543   0.00000  Uiso   1.00
C604   C     0.51472   0.15365   0.51539   0.00000  Uiso   1.00
C605   C     0.56158   0.13708   0.98822   0.00000  Uiso   1.00
C606   C     0.57095   0.12391   0.93621   0.00000  Uiso   1.00
C607   C     0.53546   0.12930   0.91097   0.00000  Uiso   1.00
C608   C     0.50624   0.16626   0.56735   0.00000  Uiso   1.00
C609   C     0.58729   0.14459   0.56640   0.00000  Uiso   1.00
C610   C     0.45800   0.16132   0.90737   0.00000  Uiso   1.00
C611   C     0.54515   0.31274   0.72004   0.00000  Uiso   1.00
C612   C     0.47384   0.16419   0.85001   0.00000  Uiso   1.00
C613   C     0.54408   0.02235   0.72318   0.00000  Uiso   1.00
C614   C     0.50041   0.04293   0.74817   0.00000  Uiso   1.00
C615   C     0.45722   0.02101   0.77053   0.00000  Uiso   1.00
C616   C     0.45797   0.31173   0.76945   0.00000  Uiso   1.00
C617   C     0.50168   0.29064   0.74511   0.00000  Uiso   1.00
C618   C     0.63283   0.19212   0.78280   0.00000  Uiso   1.00
C619   C     0.34909   0.19209   0.78282   0.00000  Uiso   1.00
C620   C     0.36676   0.14096   0.71727   0.00000  Uiso   1.00
C621   C     0.65056   0.14117   0.71736   0.00000  Uiso   1.00
C622   C     0.49998   0.08743   0.74977   0.00000  Uiso   1.00
C623   C     0.52621   0.16595   0.64998   0.00000  Uiso   1.00
C624   C     0.59762   0.13340   0.51415   0.00000  Uiso   1.00
C625   C     0.54113   0.16023   0.59338   0.00000  Uiso   1.00
C626   C     0.41027   0.17391   0.93474   0.00000  Uiso   1.00
C627   C     0.39580   0.17713   0.98865   0.00000  Uiso   1.00
C628   C     0.42931   0.17004   0.51592   0.00000  Uiso   1.00
Cu629  Cu    0.45311   0.16666   0.75000   0.00000  Uiso   1.00
Cu630  Cu    0.54689   0.16667   0.75000   0.00000  Uiso   1.00
H631   H     0.61481   0.13973   0.58605   0.00000  Uiso   1.00
H632   H     0.57686   0.03999   0.70439   0.00000  Uiso   1.00
H633   H     0.42323   0.03681   0.78984   0.00000  Uiso   1.00
H634   H     0.42443   0.29519   0.78852   0.00000  Uiso   1.00
H635   H     0.60691   0.21254   0.80908   0.00000  Uiso   1.00
H636   H     0.36051   0.21246   0.80911   0.00000  Uiso   1.00
H637   H     0.63856   0.12085   0.69138   0.00000  Uiso   1.00
H638   H     0.63360   0.12099   0.99463   0.00000  Uiso   1.00
H639   H     0.47248   0.18095   0.58887   0.00000  Uiso   1.00
H640   H     0.38417   0.18209   0.91438   0.00000  Uiso   1.00
H641   H     0.41531   0.17329   0.55767   0.00000  Uiso   1.00
H642   H     0.35872   0.18645   0.50940   0.00000  Uiso   1.00
H643   H     0.54295   0.11628   0.87224   0.00000  Uiso   1.00
N644   N     0.38265   0.16666   0.74999   0.00000  Uiso   1.00
N645   N     0.61735   0.16669   0.75000   0.00000  Uiso   1.00
O646   O     0.46042   0.22678   0.75001   0.00000  Uiso   1.00
O647   O     0.53961   0.22679   0.75001   0.00000  Uiso   1.00
O648   O     0.44108   0.16665   0.82549   0.00000  Uiso   1.00
O649   O     0.52027   0.16666   0.82549   0.00000  Uiso   1.00
O650   O     0.46039   0.10654   0.75000   0.00000  Uiso   1.00
O651   O     0.53958   0.10655   0.75000   0.00000  Uiso   1.00
O652   O     0.47973   0.16667   0.67451   0.00000  Uiso   1.00
O653   O     0.55892   0.16668   0.67451   0.00000  Uiso   1.00
C654   C     0.39984   0.11288   0.68224   0.00000  Uiso   1.00
N655   N     0.42616   0.09019   0.65392   0.00000  Uiso   1.00
C656   C     0.61701   0.10521   0.90713   0.00000  Uiso   1.00
N657   N     0.65387   0.09034   0.88379   0.00000  Uiso   1.00
C658   C     0.59078   0.29222   0.68796   0.00000  Uiso   1.00
H659   H     0.58981   0.26119   0.67299   0.00000  Uiso   1.00
O660   O     0.63019   0.31018   0.67687   0.00000  Uiso   1.00
C661   C     0.83409   0.24592   0.74782   0.00000  Uiso   1.00
C662   C     0.81152   0.15798   0.98961   0.00000  Uiso   1.00
C663   C     0.82415   0.14961   0.93543   0.00000  Uiso   1.00
C664   C     0.84806   0.15365   0.51539   0.00000  Uiso   1.00
C665   C     0.89491   0.13708   0.98822   0.00000  Uiso   1.00
C666   C     0.90428   0.12391   0.93621   0.00000  Uiso   1.00
C667   C     0.86879   0.12930   0.91097   0.00000  Uiso   1.00
C668   C     0.83958   0.16626   0.56735   0.00000  Uiso   1.00
C669   C     0.92062   0.14459   0.56640   0.00000  Uiso   1.00
C670   C     0.79134   0.16132   0.90737   0.00000  Uiso   1.00
C671   C     0.87848   0.31274   0.72004   0.00000  Uiso   1.00
C672   C     0.80718   0.16419   0.85001   0.00000  Uiso   1.00
C673   C     0.87742   0.02235   0.72318   0.00000  Uiso   1.00
C674   C     0.83374   0.04293   0.74817   0.00000  Uiso   1.00
C675   C     0.79056   0.02101   0.77053   0.00000  Uiso   1.00
C676   C     0.79130   0.31173   0.76945   0.00000  Uiso   1.00
C677   C     0.83501   0.29064   0.74511   0.00000  Uiso   1.00
C678   C     0.96617   0.19212   0.78280   0.00000  Uiso   1.00
C679   C     0.68242   0.19209   0.78282   0.00000  Uiso   1.00
C680   C     0.70010   0.14096   0.71727   0.00000  Uiso   1.00
C681   C     0.98389   0.14117   0.71736   0.00000  Uiso   1.00
C682   C     0.83331   0.08743   0.74977   0.00000  Uiso   1.00
C683   C     0.85954   0.16595   0.64998   0.00000  Uiso   1.00
C684   C     0.93095   0.13340   0.51415   0.00000  Uiso   1.00
C685   C     0.87447   0.16023   0.59338   0.00000  Uiso   1.00
C686   C     0.74360   0.17391   0.93474   0.00000  Uiso   1.00
C687   C     0.72914   0.17713   0.98865   0.00000  Uiso   1.00
C688   C     0.76265   0.17004   0.51592   0.00000  Uiso   1.00
Cu689  Cu    0.78645   0.16666   0.75000   0.00000  Uiso   1.00
Cu690  Cu    0.88022   0.16667   0.75000   0.00000  Uiso   1.00
H691   H     0.94815   0.13973   0.58605   0.00000  Uiso   1.00
H692   H     0.91019   0.03999   0.70439   0.00000  Uiso   1.00
H693   H     0.75656   0.03681   0.78984   0.00000  Uiso   1.00
H694   H     0.75776   0.29519   0.78852   0.00000  Uiso   1.00
H695   H     0.94024   0.21254   0.80908   0.00000  Uiso   1.00
H696   H     0.69384   0.21246   0.80911   0.00000  Uiso   1.00
H697   H     0.97189   0.12085   0.69138   0.00000  Uiso   1.00
H698   H     0.96693   0.12099   0.99463   0.00000  Uiso   1.00
H699   H     0.80581   0.18095   0.58887   0.00000  Uiso   1.00
H700   H     0.71751   0.18209   0.91438   0.00000  Uiso   1.00
H701   H     0.74865   0.17329   0.55767   0.00000  Uiso   1.00
H702   H     0.69205   0.18645   0.50940   0.00000  Uiso   1.00
H703   H     0.87628   0.11628   0.87224   0.00000  Uiso   1.00
N704   N     0.71598   0.16666   0.74999   0.00000  Uiso   1.00
N705   N     0.95069   0.16669   0.75000   0.00000  Uiso   1.00
O706   O     0.79375   0.22678   0.75001   0.00000  Uiso   1.00
O707   O     0.87294   0.22679   0.75001   0.00000  Uiso   1.00
O708   O     0.77441   0.16665   0.82549   0.00000  Uiso   1.00
O709   O     0.85360   0.16666   0.82549   0.00000  Uiso   1.00
O710   O     0.79373   0.10654   0.75000   0.00000  Uiso   1.00
O711   O     0.87292   0.10655   0.75000   0.00000  Uiso   1.00
O712   O     0.81306   0.16667   0.67451   0.00000  Uiso   1.00
O713   O     0.89225   0.16668   0.67451   0.00000  Uiso   1.00
C714   C     0.73317   0.11288   0.68224   0.00000  Uiso   1.00
N715   N     0.75949   0.09019   0.65392   0.00000  Uiso   1.00
C716   C     0.95035   0.10521   0.90713   0.00000  Uiso   1.00
N717   N     0.98720   0.09034   0.88379   0.00000  Uiso   1.00
C718   C     0.92412   0.29222   0.68796   0.00000  Uiso   1.00
H719   H     0.92314   0.26119   0.67299   0.00000  Uiso   1.00
O720   O     0.96352   0.31018   0.67687   0.00000  Uiso   1.00
C721   C     0.16743   0.57925   0.74782   0.00000  Uiso   1.00
C722   C     0.14486   0.49131   0.98961   0.00000  Uiso   1.00
C723   C     0.15749   0.48294   0.93543   0.00000  Uiso   1.00
C724   C     0.18139   0.48698   0.51539   0.00000  Uiso   1.00
C725   C     0.22825   0.47041   0.98822   0.00000  Uiso   1.00
C726   C     0.23762   0.45725   0.93621   0.00000  Uiso   1.00
C727   C     0.20212   0.46263   0.91097   0.00000  Uiso   1.00
C728   C     0.17291   0.49959   0.56735   0.00000  Uiso   1.00
C729   C     0.25395   0.47792   0.56640   0.00000  Uiso   1.00
C730   C     0.12467   0.49465   0.90737   0.00000  Uiso   1.00
C731   C     0.21182   0.64607   0.72004   0.00000  Uiso   1.00
C732   C     0.14051   0.49753   0.85001   0.00000  Uiso   1.00
C733   C     0.21075   0.35569   0.72318   0.00000  Uiso   1.00
C734   C     0.16707   0.37626   0.74817   0.00000  Uiso   1.00
C735   C     0.12389   0.35434   0.77053   0.00000  Uiso   1.00
C736   C     0.12464   0.64506   0.76945   0.00000  Uiso   1.00
C737   C     0.16834   0.62397   0.74511   0.00000  Uiso   1.00
C738   C     0.29950   0.52546   0.78280   0.00000  Uiso   1.00
C739   C     0.01575   0.52543   0.78282   0.00000  Uiso   1.00
C740   C     0.03343   0.47429   0.71727   0.00000  Uiso   1.00
C741   C     0.31723   0.47451   0.71736   0.00000  Uiso   1.00
C742   C     0.16664   0.42077   0.74977   0.00000  Uiso   1.00
C743   C     0.19288   0.49929   0.64998   0.00000  Uiso   1.00
C744   C     0.26429   0.46674   0.51415   0.00000  Uiso   1.00
C745   C     0.20780   0.49356   0.59338   0.00000  Uiso   1.00
C746   C     0.07693   0.50725   0.93474   0.00000  Uiso   1.00
C747   C     0.06247   0.51046   0.98865   0.00000  Uiso   1.00
C748   C     0.09598   0.50337   0.51592   0.00000  Uiso   1.00
Cu749  Cu    0.11978   0.49999   0.75000   0.00000  Uiso   1.00
Cu750  Cu    0.21355   0.50001   0.75000   0.00000  Uiso   1.00
H751   H     0.28148   0.47307   0.58605   0.00000  Uiso   1.00
H752   H     0.24353   0.37332   0.70439   0.00000  Uiso   1.00
H753   H     0.08989   0.37015   0.78984   0.00000  Uiso   1.00
H754   H     0.09110   0.62853   0.78852   0.00000  Uiso   1.00
H755   H     0.27358   0.54587   0.80908   0.00000  Uiso   1.00
H756   H     0.02717   0.54579   0.80911   0.00000  Uiso   1.00
H757   H     0.30522   0.45418   0.69138   0.00000  Uiso   1.00
H758   H     0.30027   0.45433   0.99463   0.00000  Uiso   1.00
H759   H     0.13914   0.51428   0.58887   0.00000  Uiso   1.00
H760   H     0.05084   0.51542   0.91438   0.00000  Uiso   1.00
H761   H     0.08198   0.50663   0.55767   0.00000  Uiso   1.00
H762   H     0.02538   0.51979   0.50940   0.00000  Uiso   1.00
H763   H     0.20962   0.44961   0.87224   0.00000  Uiso   1.00
N764   N     0.04931   0.49999   0.74999   0.00000  Uiso   1.00
N765   N     0.28402   0.50002   0.75000   0.00000  Uiso   1.00
O766   O     0.12708   0.56011   0.75001   0.00000  Uiso   1.00
O767   O     0.20627   0.56012   0.75001   0.00000  Uiso   1.00
O768   O     0.10775   0.49998   0.82549   0.00000  Uiso   1.00
O769   O     0.18694   0.49999   0.82549   0.00000  Uiso   1.00
O770   O     0.12706   0.43988   0.75000   0.00000  Uiso   1.00
O771   O     0.20625   0.43989   0.75000   0.00000  Uiso   1.00
O772   O     0.14640   0.50001   0.67451   0.00000  Uiso   1.00
O773   O     0.22559   0.50002   0.67451   0.00000  Uiso   1.00
C774   C     0.06650   0.44622   0.68224   0.00000  Uiso   1.00
N775   N     0.09283   0.42352   0.65392   0.00000  Uiso   1.00
C776   C     0.28368   0.43854   0.90713   0.00000  Uiso   1.00
N777   N     0.32054   0.42368   0.88379   0.00000  Uiso   1.00
C778   C     0.25745   0.62555   0.68796   0.00000  Uiso   1.00
H779   H     0.25647   0.59452   0.67299   0.00000  Uiso   1.00
O780   O     0.29685   0.64351   0.67687   0.00000  Uiso   1.00
C781   C     0.50076   0.57925   0.74782   0.00000  Uiso   1.00
C782   C     0.47819   0.49131   0.98961   0.00000  Uiso   1.00
C783   C     0.49082   0.48294   0.93543   0.00000  Uiso   1.00
C784   C     0.51472   0.48698   0.51539   0.00000  Uiso   1.00
C785   C     0.56158   0.47041   0.98822   0.00000  Uiso   1.00
C786   C     0.57095   0.45725   0.93621   0.00000  Uiso   1.00
C787   C     0.53546   0.46263   0.91097   0.00000  Uiso   1.00
C788   C     0.50624   0.49959   0.56735   0.00000  Uiso   1.00
C789   C     0.58729   0.47792   0.56640   0.00000  Uiso   1.00
C790   C     0.45800   0.49465   0.90737   0.00000  Uiso   1.00
C791   C     0.54515   0.64607   0.72004   0.00000  Uiso   1.00
C792   C     0.47384   0.49753   0.85001   0.00000  Uiso   1.00
C793   C     0.54408   0.35569   0.72318   0.00000  Uiso   1.00
C794   C     0.50041   0.37626   0.74817   0.00000  Uiso   1.00
C795   C     0.45722   0.35434   0.77053   0.00000  Uiso   1.00
C796   C     0.45797   0.64506   0.76945   0.00000  Uiso   1.00
C797   C     0.50168   0.62397   0.74511   0.00000  Uiso   1.00
C798   C     0.63283   0.52546   0.78280   0.00000  Uiso   1.00
C799   C     0.34909   0.52543   0.78282   0.00000  Uiso   1.00
C800   C     0.36676   0.47429   0.71727   0.00000  Uiso   1.00
C801   C     0.65056   0.47451   0.71736   0.00000  Uiso   1.00
C802   C     0.49998   0.42077   0.74977   0.00000  Uiso   1.00
C803   C     0.52621   0.49929   0.64998   0.00000  Uiso   1.00
C804   C     0.59762   0.46674   0.51415   0.00000  Uiso   1.00
C805   C     0.54113   0.49356   0.59338   0.00000  Uiso   1.00
C806   C     0.41027   0.50725   0.93474   0.00000  Uiso   1.00
C807   C     0.39580   0.51046   0.98865   0.00000  Uiso   1.00
C808   C     0.42931   0.50337   0.51592   0.00000  Uiso   1.00
Cu809  Cu    0.45311   0.49999   0.75000   0.00000  Uiso   1.00
Cu810  Cu    0.54689   0.50001   0.75000   0.00000  Uiso   1.00
H811   H     0.61481   0.47307   0.58605   0.00000  Uiso   1.00
H812   H     0.57686   0.37332   0.70439   0.00000  Uiso   1.00
H813   H     0.42323   0.37015   0.78984   0.00000  Uiso   1.00
H814   H     0.42443   0.62853   0.78852   0.00000  Uiso   1.00
H815   H     0.60691   0.54587   0.80908   0.00000  Uiso   1.00
H816   H     0.36051   0.54579   0.80911   0.00000  Uiso   1.00
H817   H     0.63856   0.45418   0.69138   0.00000  Uiso   1.00
H818   H     0.63360   0.45433   0.99463   0.00000  Uiso   1.00
H819   H     0.47248   0.51428   0.58887   0.00000  Uiso   1.00
H820   H     0.38417   0.51542   0.91438   0.00000  Uiso   1.00
H821   H     0.41531   0.50663   0.55767   0.00000  Uiso   1.00
H822   H     0.35872   0.51979   0.50940   0.00000  Uiso   1.00
H823   H     0.54295   0.44961   0.87224   0.00000  Uiso   1.00
N824   N     0.38265   0.49999   0.74999   0.00000  Uiso   1.00
N825   N     0.61735   0.50002   0.75000   0.00000  Uiso   1.00
O826   O     0.46042   0.56011   0.75001   0.00000  Uiso   1.00
O827   O     0.53961   0.56012   0.75001   0.00000  Uiso   1.00
O828   O     0.44108   0.49998   0.82549   0.00000  Uiso   1.00
O829   O     0.52027   0.49999   0.82549   0.00000  Uiso   1.00
O830   O     0.46039   0.43988   0.75000   0.00000  Uiso   1.00
O831   O     0.53958   0.43989   0.75000   0.00000  Uiso   1.00
O832   O     0.47973   0.50001   0.67451   0.00000  Uiso   1.00
O833   O     0.55892   0.50002   0.67451   0.00000  Uiso   1.00
C834   C     0.39984   0.44622   0.68224   0.00000  Uiso   1.00
N835   N     0.42616   0.42352   0.65392   0.00000  Uiso   1.00
C836   C     0.61701   0.43854   0.90713   0.00000  Uiso   1.00
N837   N     0.65387   0.42368   0.88379   0.00000  Uiso   1.00
C838   C     0.59078   0.62555   0.68796   0.00000  Uiso   1.00
H839   H     0.58981   0.59452   0.67299   0.00000  Uiso   1.00
O840   O     0.63019   0.64351   0.67687   0.00000  Uiso   1.00
C841   C     0.83409   0.57925   0.74782   0.00000  Uiso   1.00
C842   C     0.81152   0.49131   0.98961   0.00000  Uiso   1.00
C843   C     0.82415   0.48294   0.93543   0.00000  Uiso   1.00
C844   C     0.84806   0.48698   0.51539   0.00000  Uiso   1.00
C845   C     0.89491   0.47041   0.98822   0.00000  Uiso   1.00
C846   C     0.90428   0.45725   0.93621   0.00000  Uiso   1.00
C847   C     0.86879   0.46263   0.91097   0.00000  Uiso   1.00
C848   C     0.83958   0.49959   0.56735   0.00000  Uiso   1.00
C849   C     0.92062   0.47792   0.56640   0.00000  Uiso   1.00
C850   C     0.79134   0.49465   0.90737   0.00000  Uiso   1.00
C851   C     0.87848   0.64607   0.72004   0.00000  Uiso   1.00
C852   C     0.80718   0.49753   0.85001   0.00000  Uiso   1.00
C853   C     0.87742   0.35569   0.72318   0.00000  Uiso   1.00
C854   C     0.83374   0.37626   0.74817   0.00000  Uiso   1.00
C855   C     0.79056   0.35434   0.77053   0.00000  Uiso   1.00
C856   C     0.79130   0.64506   0.76945   0.00000  Uiso   1.00
C857   C     0.83501   0.62397   0.74511   0.00000  Uiso   1.00
C858   C     0.96617   0.52546   0.78280   0.00000  Uiso   1.00
C859   C     0.68242   0.52543   0.78282   0.00000  Uiso   1.00
C860   C     0.70010   0.47429   0.71727   0.00000  Uiso   1.00
C861   C     0.98389   0.47451   0.71736   0.00000  Uiso   1.00
C862   C     0.83331   0.42077   0.74977   0.00000  Uiso   1.00
C863   C     0.85954   0.49929   0.64998   0.00000  Uiso   1.00
C864   C     0.93095   0.46674   0.51415   0.00000  Uiso   1.00
C865   C     0.87447   0.49356   0.59338   0.00000  Uiso   1.00
C866   C     0.74360   0.50725   0.93474   0.00000  Uiso   1.00
C867   C     0.72914   0.51046   0.98865   0.00000  Uiso   1.00
C868   C     0.76265   0.50337   0.51592   0.00000  Uiso   1.00
Cu869  Cu    0.78645   0.49999   0.75000   0.00000  Uiso   1.00
Cu870  Cu    0.88022   0.50001   0.75000   0.00000  Uiso   1.00
H871   H     0.94815   0.47307   0.58605   0.00000  Uiso   1.00
H872   H     0.91019   0.37332   0.70439   0.00000  Uiso   1.00
H873   H     0.75656   0.37015   0.78984   0.00000  Uiso   1.00
H874   H     0.75776   0.62853   0.78852   0.00000  Uiso   1.00
H875   H     0.94024   0.54587   0.80908   0.00000  Uiso   1.00
H876   H     0.69384   0.54579   0.80911   0.00000  Uiso   1.00
H877   H     0.97189   0.45418   0.69138   0.00000  Uiso   1.00
H878   H     0.96693   0.45433   0.99463   0.00000  Uiso   1.00
H879   H     0.80581   0.51428   0.58887   0.00000  Uiso   1.00
H880   H     0.71751   0.51542   0.91438   0.00000  Uiso   1.00
H881   H     0.74865   0.50663   0.55767   0.00000  Uiso   1.00
H882   H     0.69205   0.51979   0.50940   0.00000  Uiso   1.00
H883   H     0.87628   0.44961   0.87224   0.00000  Uiso   1.00
N884   N     0.71598   0.49999   0.74999   0.00000  Uiso   1.00
N885   N     0.95069   0.50002   0.75000   0.00000  Uiso   1.00
O886   O     0.79375   0.56011   0.75001   0.00000  Uiso   1.00
O887   O     0.87294   0.56012   0.75001   0.00000  Uiso   1.00
O888   O     0.77441   0.49998   0.82549   0.00000  Uiso   1.00
O889   O     0.85360   0.49999   0.82549   0.00000  Uiso   1.00
O890   O     0.79373   0.43988   0.75000   0.00000  Uiso   1.00
O891   O     0.87292   0.43989   0.75000   0.00000  Uiso   1.00
O892   O     0.81306   0.50001   0.67451   0.00000  Uiso   1.00
O893   O     0.89225   0.50002   0.67451   0.00000  Uiso   1.00
C894   C     0.73317   0.44622   0.68224   0.00000  Uiso   1.00
N895   N     0.75949   0.42352   0.65392   0.00000  Uiso   1.00
C896   C     0.95035   0.43854   0.90713   0.00000  Uiso   1.00
N897   N     0.98720   0.42368   0.88379   0.00000  Uiso   1.00
C898   C     0.92412   0.62555   0.68796   0.00000  Uiso   1.00
H899   H     0.92314   0.59452   0.67299   0.00000  Uiso   1.00
O900   O     0.96352   0.64351   0.67687   0.00000  Uiso   1.00
C901   C     0.16743   0.91258   0.74782   0.00000  Uiso   1.00
C902   C     0.14486   0.82464   0.98961   0.00000  Uiso   1.00
C903   C     0.15749   0.81628   0.93543   0.00000  Uiso   1.00
C904   C     0.18139   0.82031   0.51539   0.00000  Uiso   1.00
C905   C     0.22825   0.80375   0.98822   0.00000  Uiso   1.00
C906   C     0.23762   0.79058   0.93621   0.00000  Uiso   1.00
C907   C     0.20212   0.79597   0.91097   0.00000  Uiso   1.00
C908   C     0.17291   0.83292   0.56735   0.00000  Uiso   1.00
C909   C     0.25395   0.81125   0.56640   0.00000  Uiso   1.00
C910   C     0.12467   0.82798   0.90737   0.00000  Uiso   1.00
C911   C     0.21182   0.97941   0.72004   0.00000  Uiso   1.00
C912   C     0.14051   0.83086   0.85001   0.00000  Uiso   1.00
C913   C     0.21075   0.68902   0.72318   0.00000  Uiso   1.00
C914   C     0.16707   0.70959   0.74817   0.00000  Uiso   1.00
C915   C     0.12389   0.68767   0.77053   0.00000  Uiso   1.00
C916   C     0.12464   0.97839   0.76945   0.00000  Uiso   1.00
C917   C     0.16834   0.95731   0.74511   0.00000  Uiso   1.00
C918   C     0.29950   0.85879   0.78280   0.00000  Uiso   1.00
C919   C     0.01575   0.85876   0.78282   0.00000  Uiso   1.00
C920   C     0.03343   0.80763   0.71727   0.00000  Uiso   1.00
C921   C     0.31723   0.80784   0.71736   0.00000  Uiso   1.00
C922   C     0.16664   0.75410   0.74977   0.00000  Uiso   1.00
C923   C     0.19288   0.83262   0.64998   0.00000  Uiso   1.00
C924   C     0.26429   0.80007   0.51415   0.00000  Uiso   1.00
C925   C     0.20780   0.82690   0.59338   0.00000  Uiso   1.00
C926   C     0.07693   0.84058   0.93474   0.00000  Uiso   1.00
C927   C     0.06247   0.84380   0.98865   0.00000  Uiso   1.00
C928   C     0.09598   0.83671   0.51592   0.00000  Uiso   1.00
Cu929  Cu    0.11978   0.83333   0.75000   0.00000  Uiso   1.00
Cu930  Cu    0.21355   0.83334   0.75000   0.00000  Uiso   1.00
H931   H     0.28148   0.80640   0.58605   0.00000  Uiso   1.00
H932   H     0.24353   0.70665   0.70439   0.00000  Uiso   1.00
H933   H     0.08989   0.70348   0.78984   0.00000  Uiso   1.00
H934   H     0.09110   0.96186   0.78852   0.00000  Uiso   1.00
H935   H     0.27358   0.87921   0.80908   0.00000  Uiso   1.00
H936   H     0.02717   0.87913   0.80911   0.00000  Uiso   1.00
H937   H     0.30522   0.78751   0.69138   0.00000  Uiso   1.00
H938   H     0.30027   0.78766   0.99463   0.00000  Uiso   1.00
H939   H     0.13914   0.84761   0.58887   0.00000  Uiso   1.00
H940   H     0.05084   0.84876   0.91438   0.00000  Uiso   1.00
H941   H     0.08198   0.83996   0.55767   0.00000  Uiso   1.00
H942   H     0.02538   0.85312   0.50940   0.00000  Uiso   1.00
H943   H     0.20962   0.78294   0.87224   0.00000  Uiso   1.00
N944   N     0.04931   0.83332   0.74999   0.00000  Uiso   1.00
N945   N     0.28402   0.83335   0.75000   0.00000  Uiso   1.00
O946   O     0.12708   0.89345   0.75001   0.00000  Uiso   1.00
O947   O     0.20627   0.89346   0.75001   0.00000  Uiso   1.00
O948   O     0.10775   0.83332   0.82549   0.00000  Uiso   1.00
O949   O     0.18694   0.83333   0.82549   0.00000  Uiso   1.00
O950   O     0.12706   0.77321   0.75000   0.00000  Uiso   1.00
O951   O     0.20625   0.77322   0.75000   0.00000  Uiso   1.00
O952   O     0.14640   0.83334   0.67451   0.00000  Uiso   1.00
O953   O     0.22559   0.83335   0.67451   0.00000  Uiso   1.00
C954   C     0.06650   0.77955   0.68224   0.00000  Uiso   1.00
N955   N     0.09283   0.75686   0.65392   0.00000  Uiso   1.00
C956   C     0.28368   0.77188   0.90713   0.00000  Uiso   1.00
N957   N     0.32054   0.75701   0.88379   0.00000  Uiso   1.00
C958   C     0.25745   0.95889   0.68796   0.00000  Uiso   1.00
H959   H     0.25647   0.92785   0.67299   0.00000  Uiso   1.00
O960   O     0.29685   0.97685   0.67687   0.00000  Uiso   1.00
C961   C     0.50076   0.91258   0.74782   0.00000  Uiso   1.00
C962   C     0.47819   0.82464   0.98961   0.00000  Uiso   1.00
C963   C     0.49082   0.81628   0.93543   0.00000  Uiso   1.00
C964   C     0.51472   0.82031   0.51539   0.00000  Uiso   1.00
C965   C     0.56158   0.80375   0.98822   0.00000  Uiso   1.00
C966   C     0.57095   0.79058   0.93621   0.00000  Uiso   1.00
C967   C     0.53546   0.79597   0.91097   0.00000  Uiso   1.00
C968   C     0.50624   0.83292   0.56735   0.00000  Uiso   1.00
C969   C     0.58729   0.81125   0.56640   0.00000  Uiso   1.00
C970   C     0.45800   0.82798   0.90737   0.00000  Uiso   1.00
C971   C     0.54515   0.97941   0.72004   0.00000  Uiso   1.00
C972   C     0.47384   0.83086   0.85001   0.00000  Uiso   1.00
C973   C     0.54408   0.68902   0.72318   0.00000  Uiso   1.00
C974   C     0.50041   0.70959   0.74817   0.00000  Uiso   1.00
C975   C     0.45722   0.68767   0.77053   0.00000  Uiso   1.00
C976   C     0.45797   0.97839   0.76945   0.00000  Uiso   1.00
C977   C     0.50168   0.95731   0.74511   0.00000  Uiso   1.00
C978   C     0.63283   0.85879   0.78280   0.00000  Uiso   1.00
C979   C     0.34909   0.85876   0.78282   0.00000  Uiso   1.00
C980   C     0.36676   0.80763   0.71727   0.00000  Uiso   1.00
C981   C     0.65056   0.80784   0.71736   0.00000  Uiso   1.00
C982   C     0.49998   0.75410   0.74977   0.00000  Uiso   1.00
C983   C     0.52621   0.83262   0.64998   0.00000  Uiso   1.00
C984   C     0.59762   0.80007   0.51415   0.00000  Uiso   1.00
C985   C     0.54113   0.82690   0.59338   0.00000  Uiso   1.00
C986   C     0.41027   0.84058   0.93474   0.00000  Uiso   1.00
C987   C     0.39580   0.84380   0.98865   0.00000  Uiso   1.00
C988   C     0.42931   0.83671   0.51592   0.00000  Uiso   1.00
Cu989  Cu    0.45311   0.83333   0.75000   0.00000  Uiso   1.00
Cu990  Cu    0.54689   0.83334   0.75000   0.00000  Uiso   1.00
H991   H     0.61481   0.80640   0.58605   0.00000  Uiso   1.00
H992   H     0.57686   0.70665   0.70439   0.00000  Uiso   1.00
H993   H     0.42323   0.70348   0.78984   0.00000  Uiso   1.00
H994   H     0.42443   0.96186   0.78852   0.00000  Uiso   1.00
H995   H     0.60691   0.87921   0.80908   0.00000  Uiso   1.00
H996   H     0.36051   0.87913   0.80911   0.00000  Uiso   1.00
H997   H     0.63856   0.78751   0.69138   0.00000  Uiso   1.00
H998   H     0.63360   0.78766   0.99463   0.00000  Uiso   1.00
H999   H     0.47248   0.84761   0.58887   0.00000  Uiso   1.00
H1000  H     0.38417   0.84876   0.91438   0.00000  Uiso   1.00
H1001  H     0.41531   0.83996   0.55767   0.00000  Uiso   1.00
H1002  H     0.35872   0.85312   0.50940   0.00000  Uiso   1.00
H1003  H     0.54295   0.78294   0.87224   0.00000  Uiso   1.00
N1004  N     0.38265   0.83332   0.74999   0.00000  Uiso   1.00
N1005  N     0.61735   0.83335   0.75000   0.00000  Uiso   1.00
O1006  O     0.46042   0.89345   0.75001   0.00000  Uiso   1.00
O1007  O     0.53961   0.89346   0.75001   0.00000  Uiso   1.00
O1008  O     0.44108   0.83332   0.82549   0.00000  Uiso   1.00
O1009  O     0.52027   0.83333   0.82549   0.00000  Uiso   1.00
O1010  O     0.46039   0.77321   0.75000   0.00000  Uiso   1.00
O1011  O     0.53958   0.77322   0.75000   0.00000  Uiso   1.00
O1012  O     0.47973   0.83334   0.67451   0.00000  Uiso   1.00
O1013  O     0.55892   0.83335   0.67451   0.00000  Uiso   1.00
C1014  C     0.39984   0.77955   0.68224   0.00000  Uiso   1.00
N1015  N     0.42616   0.75686   0.65392   0.00000  Uiso   1.00
C1016  C     0.61701   0.77188   0.90713   0.00000  Uiso   1.00
N1017  N     0.65387   0.75701   0.88379   0.00000  Uiso   1.00
C1018  C     0.59078   0.95889   0.68796   0.00000  Uiso   1.00
H1019  H     0.58981   0.92785   0.67299   0.00000  Uiso   1.00
O1020  O     0.63019   0.97685   0.67687   0.00000  Uiso   1.00
C1021  C     0.83409   0.91258   0.74782   0.00000  Uiso   1.00
C1022  C     0.81152   0.82464   0.98961   0.00000  Uiso   1.00
C1023  C     0.82415   0.81628   0.93543   0.00000  Uiso   1.00
C1024  C     0.84806   0.82031   0.51539   0.00000  Uiso   1.00
C1025  C     0.89491   0.80375   0.98822   0.00000  Uiso   1.00
C1026  C     0.90428   0.79058   0.93621   0.00000  Uiso   1.00
C1027  C     0.86879   0.79597   0.91097   0.00000  Uiso   1.00
C1028  C     0.83958   0.83292   0.56735   0.00000  Uiso   1.00
C1029  C     0.92062   0.81125   0.56640   0.00000  Uiso   1.00
C1030  C     0.79134   0.82798   0.90737   0.00000  Uiso   1.00
C1031  C     0.87848   0.97941   0.72004   0.00000  Uiso   1.00
C1032  C     0.80718   0.83086   0.85001   0.00000  Uiso   1.00
C1033  C     0.87742   0.68902   0.72318   0.00000  Uiso   1.00
C1034  C     0.83374   0.70959   0.74817   0.00000  Uiso   1.00
C1035  C     0.79056   0.68767   0.77053   0.00000  Uiso   1.00
C1036  C     0.79130   0.97839   0.76945   0.00000  Uiso   1.00
C1037  C     0.83501   0.95731   0.74511   0.00000  Uiso   1.00
C1038  C     0.96617   0.85879   0.78280   0.00000  Uiso   1.00
C1039  C     0.68242   0.85876   0.78282   0.00000  Uiso   1.00
C1040  C     0.70010   0.80763   0.71727   0.00000  Uiso   1.00
C1041  C     0.98389   0.80784   0.71736   0.00000  Uiso   1.00
C1042  C     0.83331   0.75410   0.74977   0.00000  Uiso   1.00
C1043  C     0.85954   0.83262   0.64998   0.00000  Uiso   1.00
C1044  C     0.93095   0.80007   0.51415   0.00000  Uiso   1.00
C1045  C     0.87447   0.82690   0.59338   0.00000  Uiso   1.00
C1046  C     0.74360   0.84058   0.93474   0.00000  Uiso   1.00
C1047  C     0.72914   0.84380   0.98865   0.00000  Uiso   1.00
C1048  C     0.76265   0.83671   0.51592   0.00000  Uiso   1.00
Cu1049 Cu    0.78645   0.83333   0.75000   0.00000  Uiso   1.00
Cu1050 Cu    0.88022   0.83334   0.75000   0.00000  Uiso   1.00
H1051  H     0.94815   0.80640   0.58605   0.00000  Uiso   1.00
H1052  H     0.91019   0.70665   0.70439   0.00000  Uiso   1.00
H1053  H     0.75656   0.70348   0.78984   0.00000  Uiso   1.00
H1054  H     0.75776   0.96186   0.78852   0.00000  Uiso   1.00
H1055  H     0.94024   0.87921   0.80908   0.00000  Uiso   1.00
H1056  H     0.69384   0.87913   0.80911   0.00000  Uiso   1.00
H1057  H     0.97189   0.78751   0.69138   0.00000  Uiso   1.00
H1058  H     0.96693   0.78766   0.99463   0.00000  Uiso   1.00
H1059  H     0.80581   0.84761   0.58887   0.00000  Uiso   1.00
H1060  H     0.71751   0.84876   0.91438   0.00000  Uiso   1.00
H1061  H     0.74865   0.83996   0.55767   0.00000  Uiso   1.00
H1062  H     0.69205   0.85312   0.50940   0.00000  Uiso   1.00
H1063  H     0.87628   0.78294   0.87224   0.00000  Uiso   1.00
N1064  N     0.71598   0.83332   0.74999   0.00000  Uiso   1.00
N1065  N     0.95069   0.83335   0.75000   0.00000  Uiso   1.00
O1066  O     0.79375   0.89345   0.75001   0.00000  Uiso   1.00
O1067  O     0.87294   0.89346   0.75001   0.00000  Uiso   1.00
O1068  O     0.77441   0.83332   0.82549   0.00000  Uiso   1.00
O1069  O     0.85360   0.83333   0.82549   0.00000  Uiso   1.00
O1070  O     0.79373   0.77321   0.75000   0.00000  Uiso   1.00
O1071  O     0.87292   0.77322   0.75000   0.00000  Uiso   1.00
O1072  O     0.81306   0.83334   0.67451   0.00000  Uiso   1.00
O1073  O     0.89225   0.83335   0.67451   0.00000  Uiso   1.00
C1074  C     0.73317   0.77955   0.68224   0.00000  Uiso   1.00
N1075  N     0.75949   0.75686   0.65392   0.00000  Uiso   1.00
C1076  C     0.95035   0.77188   0.90713   0.00000  Uiso   1.00
N1077  N     0.98720   0.75701   0.88379   0.00000  Uiso   1.00
C1078  C     0.92412   0.95889   0.68796   0.00000  Uiso   1.00
H1079  H     0.92314   0.92785   0.67299   0.00000  Uiso   1.00
O1080  O     0.96352   0.97685   0.67687   0.00000  Uiso   1.00
loop_
_geom_bond_atom_site_label_1
_geom_bond_atom_site_label_2
_geom_bond_distance
_geom_bond_site_symmetry_2
_ccdc_geom_bond_type
C1     O46     1.293   .     A
C1     C17     1.452   .     S
C1     O47     1.291   .     A
C2     C3      1.416   .     A
C2     C544    1.423   .     S
C2     C568    1.419   .     S
C3     C10     1.422   .     A
C3     C7      1.411   .     A
C4     C8      1.402   .     A
C4     C542    1.423   1_554 S
C4     C545    1.425   1_554 S
C5     C6      1.406   .     A
C5     C544    1.425   .     S
C5     C564    1.412   .     S
C6     C7      1.391   .     A
C6     C56     1.448   .     S
C7     H43     1.081   .     S
C8     H39     1.076   .     S
C8     C25     1.394   .     A
C9     C24     1.391   .     A
C9     C25     1.397   .     A
C9     H31     1.083   .     S
C10    C12     1.475   .     S
C10    C26     1.403   .     A
C11    C58     1.488   .     S
C11    C17     1.418   .     A
C11    C193    1.394   .     S
C12    O48     1.299   .     A
C12    O49     1.295   .     A
C13    C14     1.397   .     A
C13    H32     1.084   .     S
C13    C371    1.394   1_545 S
C14    C22     1.443   .     S
C14    C15     1.394   .     A
C15    H33     1.084   .     S
C15    C376    1.382   1_545 S
C16    H34     1.084   .     S
C16    C17     1.403   .     A
C16    C195    1.382   .     S
C18    H35     1.082   .     S
C18    N45     1.368   .     A
C18    C79     1.417   .     S
C19    H36     1.082   .     S
C19    N44     1.367   .     A
C19    C138    1.417   1_455 S
C20    N44     1.377   .     A
C20    C54     1.439   .     S
C20    C141    1.415   1_455 S
C21    N45     1.361   .     A
C21    H37     1.083   .     S
C21    C80     1.415   .     S
C22    O50     1.291   .     A
C22    O51     1.290   .     A
C23    O52     1.294   .     A
C23    O53     1.295   .     A
C23    C25     1.462   .     S
C24    C545    1.412   1_554 S
C24    H578    1.083   1_554 S
C26    C27     1.386   .     A
C26    H40     1.083   .     S
C27    C568    1.390   .     S
C27    H582    1.083   .     S
C28    H41     1.077   .     S
C28    C542    1.419   1_554 S
C28    C567    1.390   1_554 S
Cu29   O46     1.959   .     S
Cu29   Cu30    2.680   .     S
Cu29   O50     1.961   .     S
Cu29   N44     2.014   .     S
Cu29   O48     1.954   .     S
Cu29   O52     1.942   .     S
Cu30   O51     1.959   .     S
Cu30   N45     2.014   .     S
Cu30   O49     1.942   .     S
Cu30   O53     1.954   .     S
Cu30   O47     1.961   .     S
H38    C564    1.083   .     S
H42    C567    1.083   1_554 S
C54    N55     1.158   .     T
C56    N57     1.157   .     T
C58    O60     1.221   .     D
C58    H59     1.084   .     S
C61    O106    1.293   .     A
C61    C77     1.452   .     S
C61    O107    1.291   .     A
C62    C63     1.416   .     A
C62    C604    1.423   .     S
C62    C628    1.419   .     S
C63    C70     1.422   .     A
C63    C67     1.411   .     A
C64    C68     1.402   .     A
C64    C602    1.423   1_554 S
C64    C605    1.425   1_554 S
C65    C66     1.406   .     A
C65    C604    1.425   .     S
C65    C624    1.412   .     S
C66    C67     1.391   .     A
C66    C116    1.448   .     S
C67    H103    1.081   .     S
C68    H99     1.076   .     S
C68    C85     1.394   .     A
C69    C84     1.391   .     A
C69    C85     1.397   .     A
C69    H91     1.083   .     S
C70    C72     1.475   .     S
C70    C86     1.403   .     A
C71    C118    1.488   .     S
C71    C77     1.418   .     A
C71    C253    1.394   .     S
C72    O108    1.299   .     A
C72    O109    1.295   .     A
C73    C74     1.397   .     A
C73    H92     1.084   .     S
C73    C431    1.394   1_545 S
C74    C82     1.443   .     S
C74    C75     1.394   .     A
C75    H93     1.084   .     S
C75    C436    1.382   1_545 S
C76    H94     1.084   .     S
C76    C77     1.403   .     A
C76    C255    1.382   .     S
C78    H95     1.082   .     S
C78    N105    1.368   .     A
C78    C139    1.417   .     S
C79    H96     1.082   .     S
C79    N104    1.367   .     A
C80    N104    1.377   .     A
C80    C114    1.439   .     S
C81    N105    1.361   .     A
C81    H97     1.083   .     S
C81    C140    1.415   .     S
C82    O110    1.291   .     A
C82    O111    1.290   .     A
C83    O112    1.294   .     A
C83    O113    1.295   .     A
C83    C85     1.462   .     S
C84    C605    1.412   1_554 S
C84    H638    1.083   1_554 S
C86    C87     1.386   .     A
C86    H100    1.083   .     S
C87    C628    1.390   .     S
C87    H642    1.083   .     S
C88    H101    1.077   .     S
C88    C602    1.419   1_554 S
C88    C627    1.390   1_554 S
Cu89   O106    1.959   .     S
Cu89   Cu90    2.680   .     S
Cu89   O110    1.961   .     S
Cu89   N104    2.014   .     S
Cu89   O108    1.954   .     S
Cu89   O112    1.942   .     S
Cu90   O111    1.959   .     S
Cu90   N105    2.014   .     S
Cu90   O109    1.942   .     S
Cu90   O113    1.954   .     S
Cu90   O107    1.961   .     S
H98    C624    1.083   .     S
H102   C627    1.083   1_554 S
C114   N115    1.158   .     T
C116   N117    1.157   .     T
C118   O120    1.221   .     D
C118   H119    1.084   .     S
C121   O166    1.293   .     A
C121   C137    1.452   .     S
C121   O167    1.291   .     A
C122   C123    1.416   .     A
C122   C664    1.423   .     S
C122   C688    1.419   .     S
C123   C130    1.422   .     A
C123   C127    1.411   .     A
C124   C128    1.402   .     A
C124   C662    1.423   1_554 S
C124   C665    1.425   1_554 S
C125   C126    1.406   .     A
C125   C664    1.425   .     S
C125   C684    1.412   .     S
C126   C127    1.391   .     A
C126   C176    1.448   .     S
C127   H163    1.081   .     S
C128   H159    1.076   .     S
C128   C145    1.394   .     A
C129   C144    1.391   .     A
C129   C145    1.397   .     A
C129   H151    1.083   .     S
C130   C132    1.475   .     S
C130   C146    1.403   .     A
C131   C178    1.488   .     S
C131   C137    1.418   .     A
C131   C313    1.394   .     S
C132   O168    1.299   .     A
C132   O169    1.295   .     A
C133   C134    1.397   .     A
C133   H152    1.084   .     S
C133   C491    1.394   1_545 S
C134   C142    1.443   .     S
C134   C135    1.394   .     A
C135   H153    1.084   .     S
C135   C496    1.382   1_545 S
C136   H154    1.084   .     S
C136   C137    1.403   .     A
C136   C315    1.382   .     S
C138   H155    1.082   .     S
C138   N165    1.368   .     A
C138   C19     1.417   1_655 S
C139   H156    1.082   .     S
C139   N164    1.367   .     A
C140   N164    1.377   .     A
C140   C174    1.439   .     S
C141   N165    1.361   .     A
C141   H157    1.083   .     S
C141   C20     1.415   1_655 S
C142   O170    1.291   .     A
C142   O171    1.290   .     A
C143   O172    1.294   .     A
C143   O173    1.295   .     A
C143   C145    1.462   .     S
C144   C665    1.412   1_554 S
C144   H698    1.083   1_554 S
C146   C147    1.386   .     A
C146   H160    1.083   .     S
C147   C688    1.390   .     S
C147   H702    1.083   .     S
C148   H161    1.077   .     S
C148   C662    1.419   1_554 S
C148   C687    1.390   1_554 S
Cu149  O166    1.959   .     S
Cu149  Cu150   2.680   .     S
Cu149  O170    1.961   .     S
Cu149  N164    2.014   .     S
Cu149  O168    1.954   .     S
Cu149  O172    1.942   .     S
Cu150  O171    1.959   .     S
Cu150  N165    2.014   .     S
Cu150  O169    1.942   .     S
Cu150  O173    1.954   .     S
Cu150  O167    1.961   .     S
H158   C684    1.083   .     S
H162   C687    1.083   1_554 S
C174   N175    1.158   .     T
C176   N177    1.157   .     T
C178   O180    1.221   .     D
C178   H179    1.084   .     S
C181   O226    1.293   .     A
C181   C197    1.452   .     S
C181   O227    1.291   .     A
C182   C183    1.416   .     A
C182   C724    1.423   .     S
C182   C748    1.419   .     S
C183   C190    1.422   .     A
C183   C187    1.411   .     A
C184   C188    1.402   .     A
C184   C722    1.423   1_554 S
C184   C725    1.425   1_554 S
C185   C186    1.406   .     A
C185   C724    1.425   .     S
C185   C744    1.412   .     S
C186   C187    1.391   .     A
C186   C236    1.448   .     S
C187   H223    1.081   .     S
C188   H219    1.076   .     S
C188   C205    1.394   .     A
C189   C204    1.391   .     A
C189   C205    1.397   .     A
C189   H211    1.083   .     S
C190   C192    1.475   .     S
C190   C206    1.403   .     A
C191   C238    1.488   .     S
C191   C197    1.418   .     A
C191   C373    1.394   .     S
C192   O228    1.299   .     A
C192   O229    1.295   .     A
C193   C194    1.397   .     A
C193   H212    1.084   .     S
C194   C202    1.443   .     S
C194   C195    1.394   .     A
C195   H213    1.084   .     S
C196   H214    1.084   .     S
C196   C197    1.403   .     A
C196   C375    1.382   .     S
C198   H215    1.082   .     S
C198   N225    1.368   .     A
C198   C259    1.417   .     S
C199   H216    1.082   .     S
C199   N224    1.367   .     A
C199   C318    1.417   1_455 S
C200   N224    1.377   .     A
C200   C234    1.439   .     S
C200   C321    1.415   1_455 S
C201   N225    1.361   .     A
C201   H217    1.083   .     S
C201   C260    1.415   .     S
C202   O230    1.291   .     A
C202   O231    1.290   .     A
C203   O232    1.294   .     A
C203   O233    1.295   .     A
C203   C205    1.462   .     S
C204   C725    1.412   1_554 S
C204   H758    1.083   1_554 S
C206   C207    1.386   .     A
C206   H220    1.083   .     S
C207   C748    1.390   .     S
C207   H762    1.083   .     S
C208   H221    1.077   .     S
C208   C722    1.419   1_554 S
C208   C747    1.390   1_554 S
Cu209  O226    1.959   .     S
Cu209  Cu210   2.680   .     S
Cu209  O230    1.961   .     S
Cu209  N224    2.014   .     S
Cu209  O228    1.954   .     S
Cu209  O232    1.942   .     S
Cu210  O231    1.959   .     S
Cu210  N225    2.014   .     S
Cu210  O229    1.942   .     S
Cu210  O233    1.954   .     S
Cu210  O227    1.961   .     S
H218   C744    1.083   .     S
H222   C747    1.083   1_554 S
C234   N235    1.158   .     T
C236   N237    1.157   .     T
C238   O240    1.221   .     D
C238   H239    1.084   .     S
C241   O286    1.293   .     A
C241   C257    1.452   .     S
C241   O287    1.291   .     A
C242   C243    1.416   .     A
C242   C784    1.423   .     S
C242   C808    1.419   .     S
C243   C250    1.422   .     A
C243   C247    1.411   .     A
C244   C248    1.402   .     A
C244   C782    1.423   1_554 S
C244   C785    1.425   1_554 S
C245   C246    1.406   .     A
C245   C784    1.425   .     S
C245   C804    1.412   .     S
C246   C247    1.391   .     A
C246   C296    1.448   .     S
C247   H283    1.081   .     S
C248   H279    1.076   .     S
C248   C265    1.394   .     A
C249   C264    1.391   .     A
C249   C265    1.397   .     A
C249   H271    1.083   .     S
C250   C252    1.475   .     S
C250   C266    1.403   .     A
C251   C298    1.488   .     S
C251   C257    1.418   .     A
C251   C433    1.394   .     S
C252   O288    1.299   .     A
C252   O289    1.295   .     A
C253   C254    1.397   .     A
C253   H272    1.084   .     S
C254   C262    1.443   .     S
C254   C255    1.394   .     A
C255   H273    1.084   .     S
C256   H274    1.084   .     S
C256   C257    1.403   .     A
C256   C435    1.382   .     S
C258   H275    1.082   .     S
C258   N285    1.368   .     A
C258   C319    1.417   .     S
C259   H276    1.082   .     S
C259   N284    1.367   .     A
C260   N284    1.377   .     A
C260   C294    1.439   .     S
C261   N285    1.361   .     A
C261   H277    1.083   .     S
C261   C320    1.415   .     S
C262   O290    1.291   .     A
C262   O291    1.290   .     A
C263   O292    1.294   .     A
C263   O293    1.295   .     A
C263   C265    1.462   .     S
C264   C785    1.412   1_554 S
C264   H818    1.083   1_554 S
C266   C267    1.386   .     A
C266   H280    1.083   .     S
C267   C808    1.390   .     S
C267   H822    1.083   .     S
C268   H281    1.077   .     S
C268   C782    1.419   1_554 S
C268   C807    1.390   1_554 S
Cu269  O286    1.959   .     S
Cu269  Cu270   2.680   .     S
Cu269  O290    1.961   .     S
Cu269  N284    2.014   .     S
Cu269  O288    1.954   .     S
Cu269  O292    1.942   .     S
Cu270  O291    1.959   .     S
Cu270  N285    2.014   .     S
Cu270  O289    1.942   .     S
Cu270  O293    1.954   .     S
Cu270  O287    1.961   .     S
H278   C804    1.083   .     S
H282   C807    1.083   1_554 S
C294   N295    1.158   .     T
C296   N297    1.157   .     T
C298   O300    1.221   .     D
C298   H299    1.084   .     S
C301   O346    1.293   .     A
C301   C317    1.452   .     S
C301   O347    1.291   .     A
C302   C303    1.416   .     A
C302   C844    1.423   .     S
C302   C868    1.419   .     S
C303   C310    1.422   .     A
C303   C307    1.411   .     A
C304   C308    1.402   .     A
C304   C842    1.423   1_554 S
C304   C845    1.425   1_554 S
C305   C306    1.406   .     A
C305   C844    1.425   .     S
C305   C864    1.412   .     S
C306   C307    1.391   .     A
C306   C356    1.448   .     S
C307   H343    1.081   .     S
C308   H339    1.076   .     S
C308   C325    1.394   .     A
C309   C324    1.391   .     A
C309   C325    1.397   .     A
C309   H331    1.083   .     S
C310   C312    1.475   .     S
C310   C326    1.403   .     A
C311   C358    1.488   .     S
C311   C317    1.418   .     A
C311   C493    1.394   .     S
C312   O348    1.299   .     A
C312   O349    1.295   .     A
C313   C314    1.397   .     A
C313   H332    1.084   .     S
C314   C322    1.443   .     S
C314   C315    1.394   .     A
C315   H333    1.084   .     S
C316   H334    1.084   .     S
C316   C317    1.403   .     A
C316   C495    1.382   .     S
C318   H335    1.082   .     S
C318   N345    1.368   .     A
C318   C199    1.417   1_655 S
C319   H336    1.082   .     S
C319   N344    1.367   .     A
C320   N344    1.377   .     A
C320   C354    1.439   .     S
C321   N345    1.361   .     A
C321   H337    1.083   .     S
C321   C200    1.415   1_655 S
C322   O350    1.291   .     A
C322   O351    1.290   .     A
C323   O352    1.294   .     A
C323   O353    1.295   .     A
C323   C325    1.462   .     S
C324   C845    1.412   1_554 S
C324   H878    1.083   1_554 S
C326   C327    1.386   .     A
C326   H340    1.083   .     S
C327   C868    1.390   .     S
C327   H882    1.083   .     S
C328   H341    1.077   .     S
C328   C842    1.419   1_554 S
C328   C867    1.390   1_554 S
Cu329  O346    1.959   .     S
Cu329  Cu330   2.680   .     S
Cu329  O350    1.961   .     S
Cu329  N344    2.014   .     S
Cu329  O348    1.954   .     S
Cu329  O352    1.942   .     S
Cu330  O351    1.959   .     S
Cu330  N345    2.014   .     S
Cu330  O349    1.942   .     S
Cu330  O353    1.954   .     S
Cu330  O347    1.961   .     S
H338   C864    1.083   .     S
H342   C867    1.083   1_554 S
C354   N355    1.158   .     T
C356   N357    1.157   .     T
C358   O360    1.221   .     D
C358   H359    1.084   .     S
C361   O406    1.293   .     A
C361   C377    1.452   .     S
C361   O407    1.291   .     A
C362   C363    1.416   .     A
C362   C904    1.423   .     S
C362   C928    1.419   .     S
C363   C370    1.422   .     A
C363   C367    1.411   .     A
C364   C368    1.402   .     A
C364   C902    1.423   1_554 S
C364   C905    1.425   1_554 S
C365   C366    1.406   .     A
C365   C904    1.425   .     S
C365   C924    1.412   .     S
C366   C367    1.391   .     A
C366   C416    1.448   .     S
C367   H403    1.081   .     S
C368   H399    1.076   .     S
C368   C385    1.394   .     A
C369   C384    1.391   .     A
C369   C385    1.397   .     A
C369   H391    1.083   .     S
C370   C372    1.475   .     S
C370   C386    1.403   .     A
C371   C418    1.488   .     S
C371   C377    1.418   .     A
C371   C13     1.394   1_565 S
C372   O408    1.299   .     A
C372   O409    1.295   .     A
C373   C374    1.397   .     A
C373   H392    1.084   .     S
C374   C382    1.443   .     S
C374   C375    1.394   .     A
C375   H393    1.084   .     S
C376   H394    1.084   .     S
C376   C377    1.403   .     A
C376   C15     1.382   1_565 S
C378   H395    1.082   .     S
C378   N405    1.368   .     A
C378   C439    1.417   .     S
C379   H396    1.082   .     S
C379   N404    1.367   .     A
C379   C498    1.417   1_455 S
C380   N404    1.377   .     A
C380   C414    1.439   .     S
C380   C501    1.415   1_455 S
C381   N405    1.361   .     A
C381   H397    1.083   .     S
C381   C440    1.415   .     S
C382   O410    1.291   .     A
C382   O411    1.290   .     A
C383   O412    1.294   .     A
C383   O413    1.295   .     A
C383   C385    1.462   .     S
C384   C905    1.412   1_554 S
C384   H938    1.083   1_554 S
C386   C387    1.386   .     A
C386   H400    1.083   .     S
C387   C928    1.390   .     S
C387   H942    1.083   .     S
C388   H401    1.077   .     S
C388   C902    1.419   1_554 S
C388   C927    1.390   1_554 S
Cu389  O406    1.959   .     S
Cu389  Cu390   2.680   .     S
Cu389  O410    1.961   .     S
Cu389  N404    2.014   .     S
Cu389  O408    1.954   .     S
Cu389  O412    1.942   .     S
Cu390  O411    1.959   .     S
Cu390  N405    2.014   .     S
Cu390  O409    1.942   .     S
Cu390  O413    1.954   .     S
Cu390  O407    1.961   .     S
H398   C924    1.083   .     S
H402   C927    1.083   1_554 S
C414   N415    1.158   .     T
C416   N417    1.157   .     T
C418   O420    1.221   .     D
C418   H419    1.084   .     S
C421   O466    1.293   .     A
C421   C437    1.452   .     S
C421   O467    1.291   .     A
C422   C423    1.416   .     A
C422   C964    1.423   .     S
C422   C988    1.419   .     S
C423   C430    1.422   .     A
C423   C427    1.411   .     A
C424   C428    1.402   .     A
C424   C962    1.423   1_554 S
C424   C965    1.425   1_554 S
C425   C426    1.406   .     A
C425   C964    1.425   .     S
C425   C984    1.412   .     S
C426   C427    1.391   .     A
C426   C476    1.448   .     S
C427   H463    1.081   .     S
C428   H459    1.076   .     S
C428   C445    1.394   .     A
C429   C444    1.391   .     A
C429   C445    1.397   .     A
C429   H451    1.083   .     S
C430   C432    1.475   .     S
C430   C446    1.403   .     A
C431   C478    1.488   .     S
C431   C437    1.418   .     A
C431   C73     1.394   1_565 S
C432   O468    1.299   .     A
C432   O469    1.295   .     A
C433   C434    1.397   .     A
C433   H452    1.084   .     S
C434   C442    1.443   .     S
C434   C435    1.394   .     A
C435   H453    1.084   .     S
C436   H454    1.084   .     S
C436   C437    1.403   .     A
C436   C75     1.382   1_565 S
C438   H455    1.082   .     S
C438   N465    1.368   .     A
C438   C499    1.417   .     S
C439   H456    1.082   .     S
C439   N464    1.367   .     A
C440   N464    1.377   .     A
C440   C474    1.439   .     S
C441   N465    1.361   .     A
C441   H457    1.083   .     S
C441   C500    1.415   .     S
C442   O470    1.291   .     A
C442   O471    1.290   .     A
C443   O472    1.294   .     A
C443   O473    1.295   .     A
C443   C445    1.462   .     S
C444   C965    1.412   1_554 S
C444   H998    1.083   1_554 S
C446   C447    1.386   .     A
C446   H460    1.083   .     S
C447   C988    1.390   .     S
C447   H1002   1.083   .     S
C448   H461    1.077   .     S
C448   C962    1.419   1_554 S
C448   C987    1.390   1_554 S
Cu449  O466    1.959   .     S
Cu449  Cu450   2.680   .     S
Cu449  O470    1.961   .     S
Cu449  N464    2.014   .     S
Cu449  O468    1.954   .     S
Cu449  O472    1.942   .     S
Cu450  O471    1.959   .     S
Cu450  N465    2.014   .     S
Cu450  O469    1.942   .     S
Cu450  O473    1.954   .     S
Cu450  O467    1.961   .     S
H458   C984    1.083   .     S
H462   C987    1.083   1_554 S
C474   N475    1.158   .     T
C476   N477    1.157   .     T
C478   O480    1.221   .     D
C478   H479    1.084   .     S
C481   O526    1.293   .     A
C481   C497    1.452   .     S
C481   O527    1.291   .     A
C482   C483    1.416   .     A
C482   C1024   1.423   .     S
C482   C1048   1.419   .     S
C483   C490    1.422   .     A
C483   C487    1.411   .     A
C484   C488    1.402   .     A
C484   C1022   1.423   1_554 S
C484   C1025   1.425   1_554 S
C485   C486    1.406   .     A
C485   C1024   1.425   .     S
C485   C1044   1.412   .     S
C486   C487    1.391   .     A
C486   C536    1.448   .     S
C487   H523    1.081   .     S
C488   H519    1.076   .     S
C488   C505    1.394   .     A
C489   C504    1.391   .     A
C489   C505    1.397   .     A
C489   H511    1.083   .     S
C490   C492    1.475   .     S
C490   C506    1.403   .     A
C491   C538    1.488   .     S
C491   C497    1.418   .     A
C491   C133    1.394   1_565 S
C492   O528    1.299   .     A
C492   O529    1.295   .     A
C493   C494    1.397   .     A
C493   H512    1.084   .     S
C494   C502    1.443   .     S
C494   C495    1.394   .     A
C495   H513    1.084   .     S
C496   H514    1.084   .     S
C496   C497    1.403   .     A
C496   C135    1.382   1_565 S
C498   H515    1.082   .     S
C498   N525    1.368   .     A
C498   C379    1.417   1_655 S
C499   H516    1.082   .     S
C499   N524    1.367   .     A
C500   N524    1.377   .     A
C500   C534    1.439   .     S
C501   N525    1.361   .     A
C501   H517    1.083   .     S
C501   C380    1.415   1_655 S
C502   O530    1.291   .     A
C502   O531    1.290   .     A
C503   O532    1.294   .     A
C503   O533    1.295   .     A
C503   C505    1.462   .     S
C504   C1025   1.412   1_554 S
C504   H1058   1.083   1_554 S
C506   C507    1.386   .     A
C506   H520    1.083   .     S
C507   C1048   1.390   .     S
C507   H1062   1.083   .     S
C508   H521    1.077   .     S
C508   C1022   1.419   1_554 S
C508   C1047   1.390   1_554 S
Cu509  O526    1.959   .     S
Cu509  Cu510   2.680   .     S
Cu509  O530    1.961   .     S
Cu509  N524    2.014   .     S
Cu509  O528    1.954   .     S
Cu509  O532    1.942   .     S
Cu510  O531    1.959   .     S
Cu510  N525    2.014   .     S
Cu510  O529    1.942   .     S
Cu510  O533    1.954   .     S
Cu510  O527    1.961   .     S
H518   C1044   1.083   .     S
H522   C1047   1.083   1_554 S
C534   N535    1.158   .     T
C536   N537    1.157   .     T
C538   O540    1.221   .     D
C538   H539    1.084   .     S
C541   O586    1.293   .     A
C541   C557    1.452   .     S
C541   O587    1.291   .     A
C542   C543    1.416   .     A
C542   C4      1.423   1_556 S
C542   C28     1.419   1_556 S
C543   C550    1.422   .     A
C543   C547    1.411   .     A
C544   C548    1.402   .     A
C545   C546    1.406   .     A
C545   C4      1.425   1_556 S
C545   C24     1.412   1_556 S
C546   C547    1.391   .     A
C546   C596    1.448   .     S
C547   H583    1.081   .     S
C548   H579    1.076   .     S
C548   C565    1.394   .     A
C549   C564    1.391   .     A
C549   C565    1.397   .     A
C549   H571    1.083   .     S
C550   C552    1.475   .     S
C550   C566    1.403   .     A
C551   C598    1.488   .     S
C551   C557    1.418   .     A
C551   C733    1.394   .     S
C552   O588    1.299   .     A
C552   O589    1.295   .     A
C553   C554    1.397   .     A
C553   H572    1.084   .     S
C553   C911    1.394   1_545 S
C554   C562    1.443   .     S
C554   C555    1.394   .     A
C555   H573    1.084   .     S
C555   C916    1.382   1_545 S
C556   H574    1.084   .     S
C556   C557    1.403   .     A
C556   C735    1.382   .     S
C558   H575    1.082   .     S
C558   N585    1.368   .     A
C558   C619    1.417   .     S
C559   H576    1.082   .     S
C559   N584    1.367   .     A
C559   C678    1.417   1_455 S
C560   N584    1.377   .     A
C560   C594    1.439   .     S
C560   C681    1.415   1_455 S
C561   N585    1.361   .     A
C561   H577    1.083   .     S
C561   C620    1.415   .     S
C562   O590    1.291   .     A
C562   O591    1.290   .     A
C563   O592    1.294   .     A
C563   O593    1.295   .     A
C563   C565    1.462   .     S
C566   C567    1.386   .     A
C566   H580    1.083   .     S
C567   C28     1.390   1_556 S
C567   H42     1.083   1_556 S
C568   H581    1.077   .     S
Cu569  O586    1.959   .     S
Cu569  Cu570   2.680   .     S
Cu569  O590    1.961   .     S
Cu569  N584    2.014   .     S
Cu569  O588    1.954   .     S
Cu569  O592    1.942   .     S
Cu570  O591    1.959   .     S
Cu570  N585    2.014   .     S
Cu570  O589    1.942   .     S
Cu570  O593    1.954   .     S
Cu570  O587    1.961   .     S
H578   C24     1.083   1_556 S
C594   N595    1.158   .     T
C596   N597    1.157   .     T
C598   O600    1.221   .     D
C598   H599    1.084   .     S
C601   O646    1.293   .     A
C601   C617    1.452   .     S
C601   O647    1.291   .     A
C602   C603    1.416   .     A
C602   C64     1.423   1_556 S
C602   C88     1.419   1_556 S
C603   C610    1.422   .     A
C603   C607    1.411   .     A
C604   C608    1.402   .     A
C605   C606    1.406   .     A
C605   C64     1.425   1_556 S
C605   C84     1.412   1_556 S
C606   C607    1.391   .     A
C606   C656    1.448   .     S
C607   H643    1.081   .     S
C608   H639    1.076   .     S
C608   C625    1.394   .     A
C609   C624    1.391   .     A
C609   C625    1.397   .     A
C609   H631    1.083   .     S
C610   C612    1.475   .     S
C610   C626    1.403   .     A
C611   C658    1.488   .     S
C611   C617    1.418   .     A
C611   C793    1.394   .     S
C612   O648    1.299   .     A
C612   O649    1.295   .     A
C613   C614    1.397   .     A
C613   H632    1.084   .     S
C613   C971    1.394   1_545 S
C614   C622    1.443   .     S
C614   C615    1.394   .     A
C615   H633    1.084   .     S
C615   C976    1.382   1_545 S
C616   H634    1.084   .     S
C616   C617    1.403   .     A
C616   C795    1.382   .     S
C618   H635    1.082   .     S
C618   N645    1.368   .     A
C618   C679    1.417   .     S
C619   H636    1.082   .     S
C619   N644    1.367   .     A
C620   N644    1.377   .     A
C620   C654    1.439   .     S
C621   N645    1.361   .     A
C621   H637    1.083   .     S
C621   C680    1.415   .     S
C622   O650    1.291   .     A
C622   O651    1.290   .     A
C623   O652    1.294   .     A
C623   O653    1.295   .     A
C623   C625    1.462   .     S
C626   C627    1.386   .     A
C626   H640    1.083   .     S
C627   C88     1.390   1_556 S
C627   H102    1.083   1_556 S
C628   H641    1.077   .     S
Cu629  O646    1.959   .     S
Cu629  Cu630   2.680   .     S
Cu629  O650    1.961   .     S
Cu629  N644    2.014   .     S
Cu629  O648    1.954   .     S
Cu629  O652    1.942   .     S
Cu630  O651    1.959   .     S
Cu630  N645    2.014   .     S
Cu630  O649    1.942   .     S
Cu630  O653    1.954   .     S
Cu630  O647    1.961   .     S
H638   C84     1.083   1_556 S
C654   N655    1.158   .     T
C656   N657    1.157   .     T
C658   O660    1.221   .     D
C658   H659    1.084   .     S
C661   O706    1.293   .     A
C661   C677    1.452   .     S
C661   O707    1.291   .     A
C662   C663    1.416   .     A
C662   C124    1.423   1_556 S
C662   C148    1.419   1_556 S
C663   C670    1.422   .     A
C663   C667    1.411   .     A
C664   C668    1.402   .     A
C665   C666    1.406   .     A
C665   C124    1.425   1_556 S
C665   C144    1.412   1_556 S
C666   C667    1.391   .     A
C666   C716    1.448   .     S
C667   H703    1.081   .     S
C668   H699    1.076   .     S
C668   C685    1.394   .     A
C669   C684    1.391   .     A
C669   C685    1.397   .     A
C669   H691    1.083   .     S
C670   C672    1.475   .     S
C670   C686    1.403   .     A
C671   C718    1.488   .     S
C671   C677    1.418   .     A
C671   C853    1.394   .     S
C672   O708    1.299   .     A
C672   O709    1.295   .     A
C673   C674    1.397   .     A
C673   H692    1.084   .     S
C673   C1031   1.394   1_545 S
C674   C682    1.443   .     S
C674   C675    1.394   .     A
C675   H693    1.084   .     S
C675   C1036   1.382   1_545 S
C676   H694    1.084   .     S
C676   C677    1.403   .     A
C676   C855    1.382   .     S
C678   H695    1.082   .     S
C678   N705    1.368   .     A
C678   C559    1.417   1_655 S
C679   H696    1.082   .     S
C679   N704    1.367   .     A
C680   N704    1.377   .     A
C680   C714    1.439   .     S
C681   N705    1.361   .     A
C681   H697    1.083   .     S
C681   C560    1.415   1_655 S
C682   O710    1.291   .     A
C682   O711    1.290   .     A
C683   O712    1.294   .     A
C683   O713    1.295   .     A
C683   C685    1.462   .     S
C686   C687    1.386   .     A
C686   H700    1.083   .     S
C687   C148    1.390   1_556 S
C687   H162    1.083   1_556 S
C688   H701    1.077   .     S
Cu689  O706    1.959   .     S
Cu689  Cu690   2.680   .     S
Cu689  O710    1.961   .     S
Cu689  N704    2.014   .     S
Cu689  O708    1.954   .     S
Cu689  O712    1.942   .     S
Cu690  O711    1.959   .     S
Cu690  N705    2.014   .     S
Cu690  O709    1.942   .     S
Cu690  O713    1.954   .     S
Cu690  O707    1.961   .     S
H698   C144    1.083   1_556 S
C714   N715    1.158   .     T
C716   N717    1.157   .     T
C718   O720    1.221   .     D
C718   H719    1.084   .     S
C721   O766    1.293   .     A
C721   C737    1.452   .     S
C721   O767    1.291   .     A
C722   C723    1.416   .     A
C722   C184    1.423   1_556 S
C722   C208    1.419   1_556 S
C723   C730    1.422   .     A
C723   C727    1.411   .     A
C724   C728    1.402   .     A
C725   C726    1.406   .     A
C725   C184    1.425   1_556 S
C725   C204    1.412   1_556 S
C726   C727    1.391   .     A
C726   C776    1.448   .     S
C727   H763    1.081   .     S
C728   H759    1.076   .     S
C728   C745    1.394   .     A
C729   C744    1.391   .     A
C729   C745    1.397   .     A
C729   H751    1.083   .     S
C730   C732    1.475   .     S
C730   C746    1.403   .     A
C731   C778    1.488   .     S
C731   C737    1.418   .     A
C731   C913    1.394   .     S
C732   O768    1.299   .     A
C732   O769    1.295   .     A
C733   C734    1.397   .     A
C733   H752    1.084   .     S
C734   C742    1.443   .     S
C734   C735    1.394   .     A
C735   H753    1.084   .     S
C736   H754    1.084   .     S
C736   C737    1.403   .     A
C736   C915    1.382   .     S
C738   H755    1.082   .     S
C738   N765    1.368   .     A
C738   C799    1.417   .     S
C739   H756    1.082   .     S
C739   N764    1.367   .     A
C739   C858    1.417   1_455 S
C740   N764    1.377   .     A
C740   C774    1.439   .     S
C740   C861    1.415   1_455 S
C741   N765    1.361   .     A
C741   H757    1.083   .     S
C741   C800    1.415   .     S
C742   O770    1.291   .     A
C742   O771    1.290   .     A
C743   O772    1.294   .     A
C743   O773    1.295   .     A
C743   C745    1.462   .     S
C746   C747    1.386   .     A
C746   H760    1.083   .     S
C747   C208    1.390   1_556 S
C747   H222    1.083   1_556 S
C748   H761    1.077   .     S
Cu749  O766    1.959   .     S
Cu749  Cu750   2.680   .     S
Cu749  O770    1.961   .     S
Cu749  N764    2.014   .     S
Cu749  O768    1.954   .     S
Cu749  O772    1.942   .     S
Cu750  O771    1.959   .     S
Cu750  N765    2.014   .     S
Cu750  O769    1.942   .     S
Cu750  O773    1.954   .     S
Cu750  O767    1.961   .     S
H758   C204    1.083   1_556 S
C774   N775    1.158   .     T
C776   N777    1.157   .     T
C778   O780    1.221   .     D
C778   H779    1.084   .     S
C781   O826    1.293   .     A
C781   C797    1.452   .     S
C781   O827    1.291   .     A
C782   C783    1.416   .     A
C782   C244    1.423   1_556 S
C782   C268    1.419   1_556 S
C783   C790    1.422   .     A
C783   C787    1.411   .     A
C784   C788    1.402   .     A
C785   C786    1.406   .     A
C785   C244    1.425   1_556 S
C785   C264    1.412   1_556 S
C786   C787    1.391   .     A
C786   C836    1.448   .     S
C787   H823    1.081   .     S
C788   H819    1.076   .     S
C788   C805    1.394   .     A
C789   C804    1.391   .     A
C789   C805    1.397   .     A
C789   H811    1.083   .     S
C790   C792    1.475   .     S
C790   C806    1.403   .     A
C791   C838    1.488   .     S
C791   C797    1.418   .     A
C791   C973    1.394   .     S
C792   O828    1.299   .     A
C792   O829    1.295   .     A
C793   C794    1.397   .     A
C793   H812    1.084   .     S
C794   C802    1.443   .     S
C794   C795    1.394   .     A
C795   H813    1.084   .     S
C796   H814    1.084   .     S
C796   C797    1.403   .     A
C796   C975    1.382   .     S
C798   H815    1.082   .     S
C798   N825    1.368   .     A
C798   C859    1.417   .     S
C799   H816    1.082   .     S
C799   N824    1.367   .     A
C800   N824    1.377   .     A
C800   C834    1.439   .     S
C801   N825    1.361   .     A
C801   H817    1.083   .     S
C801   C860    1.415   .     S
C802   O830    1.291   .     A
C802   O831    1.290   .     A
C803   O832    1.294   .     A
C803   O833    1.295   .     A
C803   C805    1.462   .     S
C806   C807    1.386   .     A
C806   H820    1.083   .     S
C807   C268    1.390   1_556 S
C807   H282    1.083   1_556 S
C808   H821    1.077   .     S
Cu809  O826    1.959   .     S
Cu809  Cu810   2.680   .     S
Cu809  O830    1.961   .     S
Cu809  N824    2.014   .     S
Cu809  O828    1.954   .     S
Cu809  O832    1.942   .     S
Cu810  O831    1.959   .     S
Cu810  N825    2.014   .     S
Cu810  O829    1.942   .     S
Cu810  O833    1.954   .     S
Cu810  O827    1.961   .     S
H818   C264    1.083   1_556 S
C834   N835    1.158   .     T
C836   N837    1.157   .     T
C838   O840    1.221   .     D
C838   H839    1.084   .     S
C841   O886    1.293   .     A
C841   C857    1.452   .     S
C841   O887    1.291   .     A
C842   C843    1.416   .     A
C842   C304    1.423   1_556 S
C842   C328    1.419   1_556 S
C843   C850    1.422   .     A
C843   C847    1.411   .     A
C844   C848    1.402   .     A
C845   C846    1.406   .     A
C845   C304    1.425   1_556 S
C845   C324    1.412   1_556 S
C846   C847    1.391   .     A
C846   C896    1.448   .     S
C847   H883    1.081   .     S
C848   H879    1.076   .     S
C848   C865    1.394   .     A
C849   C864    1.391   .     A
C849   C865    1.397   .     A
C849   H871    1.083   .     S
C850   C852    1.475   .     S
C850   C866    1.403   .     A
C851   C898    1.488   .     S
C851   C857    1.418   .     A
C851   C1033   1.394   .     S
C852   O888    1.299   .     A
C852   O889    1.295   .     A
C853   C854    1.397   .     A
C853   H872    1.084   .     S
C854   C862    1.443   .     S
C854   C855    1.394   .     A
C855   H873    1.084   .     S
C856   H874    1.084   .     S
C856   C857    1.403   .     A
C856   C1035   1.382   .     S
C858   H875    1.082   .     S
C858   N885    1.368   .     A
C858   C739    1.417   1_655 S
C859   H876    1.082   .     S
C859   N884    1.367   .     A
C860   N884    1.377   .     A
C860   C894    1.439   .     S
C861   N885    1.361   .     A
C861   H877    1.083   .     S
C861   C740    1.415   1_655 S
C862   O890    1.291   .     A
C862   O891    1.290   .     A
C863   O892    1.294   .     A
C863   O893    1.295   .     A
C863   C865    1.462   .     S
C866   C867    1.386   .     A
C866   H880    1.083   .     S
C867   C328    1.390   1_556 S
C867   H342    1.083   1_556 S
C868   H881    1.077   .     S
Cu869  O886    1.959   .     S
Cu869  Cu870   2.680   .     S
Cu869  O890    1.961   .     S
Cu869  N884    2.014   .     S
Cu869  O888    1.954   .     S
Cu869  O892    1.942   .     S
Cu870  O891    1.959   .     S
Cu870  N885    2.014   .     S
Cu870  O889    1.942   .     S
Cu870  O893    1.954   .     S
Cu870  O887    1.961   .     S
H878   C324    1.083   1_556 S
C894   N895    1.158   .     T
C896   N897    1.157   .     T
C898   O900    1.221   .     D
C898   H899    1.084   .     S
C901   O946    1.293   .     A
C901   C917    1.452   .     S
C901   O947    1.291   .     A
C902   C903    1.416   .     A
C902   C364    1.423   1_556 S
C902   C388    1.419   1_556 S
C903   C910    1.422   .     A
C903   C907    1.411   .     A
C904   C908    1.402   .     A
C905   C906    1.406   .     A
C905   C364    1.425   1_556 S
C905   C384    1.412   1_556 S
C906   C907    1.391   .     A
C906   C956    1.448   .     S
C907   H943    1.081   .     S
C908   H939    1.076   .     S
C908   C925    1.394   .     A
C909   C924    1.391   .     A
C909   C925    1.397   .     A
C909   H931    1.083   .     S
C910   C912    1.475   .     S
C910   C926    1.403   .     A
C911   C958    1.488   .     S
C911   C917    1.418   .     A
C911   C553    1.394   1_565 S
C912   O948    1.299   .     A
C912   O949    1.295   .     A
C913   C914    1.397   .     A
C913   H932    1.084   .     S
C914   C922    1.443   .     S
C914   C915    1.394   .     A
C915   H933    1.084   .     S
C916   H934    1.084   .     S
C916   C917    1.403   .     A
C916   C555    1.382   1_565 S
C918   H935    1.082   .     S
C918   N945    1.368   .     A
C918   C979    1.417   .     S
C919   H936    1.082   .     S
C919   N944    1.367   .     A
C919   C1038   1.417   1_455 S
C920   N944    1.377   .     A
C920   C954    1.439   .     S
C920   C1041   1.415   1_455 S
C921   N945    1.361   .     A
C921   H937    1.083   .     S
C921   C980    1.415   .     S
C922   O950    1.291   .     A
C922   O951    1.290   .     A
C923   O952    1.294   .     A
C923   O953    1.295   .     A
C923   C925    1.462   .     S
C926   C927    1.386   .     A
C926   H940    1.083   .     S
C927   C388    1.390   1_556 S
C927   H402    1.083   1_556 S
C928   H941    1.077   .     S
Cu929  O946    1.959   .     S
Cu929  Cu930   2.680   .     S
Cu929  O950    1.961   .     S
Cu929  N944    2.014   .     S
Cu929  O948    1.954   .     S
Cu929  O952    1.942   .     S
Cu930  O951    1.959   .     S
Cu930  N945    2.014   .     S
Cu930  O949    1.942   .     S
Cu930  O953    1.954   .     S
Cu930  O947    1.961   .     S
H938   C384    1.083   1_556 S
C954   N955    1.158   .     T
C956   N957    1.157   .     T
C958   O960    1.221   .     D
C958   H959    1.084   .     S
C961   O1006   1.293   .     A
C961   C977    1.452   .     S
C961   O1007   1.291   .     A
C962   C963    1.416   .     A
C962   C424    1.423   1_556 S
C962   C448    1.419   1_556 S
C963   C970    1.422   .     A
C963   C967    1.411   .     A
C964   C968    1.402   .     A
C965   C966    1.406   .     A
C965   C424    1.425   1_556 S
C965   C444    1.412   1_556 S
C966   C967    1.391   .     A
C966   C1016   1.448   .     S
C967   H1003   1.081   .     S
C968   H999    1.076   .     S
C968   C985    1.394   .     A
C969   C984    1.391   .     A
C969   C985    1.397   .     A
C969   H991    1.083   .     S
C970   C972    1.475   .     S
C970   C986    1.403   .     A
C971   C1018   1.488   .     S
C971   C977    1.418   .     A
C971   C613    1.394   1_565 S
C972   O1008   1.299   .     A
C972   O1009   1.295   .     A
C973   C974    1.397   .     A
C973   H992    1.084   .     S
C974   C982    1.443   .     S
C974   C975    1.394   .     A
C975   H993    1.084   .     S
C976   H994    1.084   .     S
C976   C977    1.403   .     A
C976   C615    1.382   1_565 S
C978   H995    1.082   .     S
C978   N1005   1.368   .     A
C978   C1039   1.417   .     S
C979   H996    1.082   .     S
C979   N1004   1.367   .     A
C980   N1004   1.377   .     A
C980   C1014   1.439   .     S
C981   N1005   1.361   .     A
C981   H997    1.083   .     S
C981   C1040   1.415   .     S
C982   O1010   1.291   .     A
C982   O1011   1.290   .     A
C983   O1012   1.294   .     A
C983   O1013   1.295   .     A
C983   C985    1.462   .     S
C986   C987    1.386   .     A
C986   H1000   1.083   .     S
C987   C448    1.390   1_556 S
C987   H462    1.083   1_556 S
C988   H1001   1.077   .     S
Cu989  O1006   1.959   .     S
Cu989  Cu990   2.680   .     S
Cu989  O1010   1.961   .     S
Cu989  N1004   2.014   .     S
Cu989  O1008   1.954   .     S
Cu989  O1012   1.942   .     S
Cu990  O1011   1.959   .     S
Cu990  N1005   2.014   .     S
Cu990  O1009   1.942   .     S
Cu990  O1013   1.954   .     S
Cu990  O1007   1.961   .     S
H998   C444    1.083   1_556 S
C1014  N1015   1.158   .     T
C1016  N1017   1.157   .     T
C1018  O1020   1.221   .     D
C1018  H1019   1.084   .     S
C1021  O1066   1.293   .     A
C1021  C1037   1.452   .     S
C1021  O1067   1.291   .     A
C1022  C1023   1.416   .     A
C1022  C484    1.423   1_556 S
C1022  C508    1.419   1_556 S
C1023  C1030   1.422   .     A
C1023  C1027   1.411   .     A
C1024  C1028   1.402   .     A
C1025  C1026   1.406   .     A
C1025  C484    1.425   1_556 S
C1025  C504    1.412   1_556 S
C1026  C1027   1.391   .     A
C1026  C1076   1.448   .     S
C1027  H1063   1.081   .     S
C1028  H1059   1.076   .     S
C1028  C1045   1.394   .     A
C1029  C1044   1.391   .     A
C1029  C1045   1.397   .     A
C1029  H1051   1.083   .     S
C1030  C1032   1.475   .     S
C1030  C1046   1.403   .     A
C1031  C1078   1.488   .     S
C1031  C1037   1.418   .     A
C1031  C673    1.394   1_565 S
C1032  O1068   1.299   .     A
C1032  O1069   1.295   .     A
C1033  C1034   1.397   .     A
C1033  H1052   1.084   .     S
C1034  C1042   1.443   .     S
C1034  C1035   1.394   .     A
C1035  H1053   1.084   .     S
C1036  H1054   1.084   .     S
C1036  C1037   1.403   .     A
C1036  C675    1.382   1_565 S
C1038  H1055   1.082   .     S
C1038  N1065   1.368   .     A
C1038  C919    1.417   1_655 S
C1039  H1056   1.082   .     S
C1039  N1064   1.367   .     A
C1040  N1064   1.377   .     A
C1040  C1074   1.439   .     S
C1041  N1065   1.361   .     A
C1041  H1057   1.083   .     S
C1041  C920    1.415   1_655 S
C1042  O1070   1.291   .     A
C1042  O1071   1.290   .     A
C1043  O1072   1.294   .     A
C1043  O1073   1.295   .     A
C1043  C1045   1.462   .     S
C1046  C1047   1.386   .     A
C1046  H1060   1.083   .     S
C1047  C508    1.390   1_556 S
C1047  H522    1.083   1_556 S
C1048  H1061   1.077   .     S
Cu1049 O1066   1.959   .     S
Cu1049 Cu1050  2.680   .     S
Cu1049 O1070   1.961   .     S
Cu1049 N1064   2.014   .     S
Cu1049 O1068   1.954   .     S
Cu1049 O1072   1.942   .     S
Cu1050 O1071   1.959   .     S
Cu1050 N1065   2.014   .     S
Cu1050 O1069   1.942   .     S
Cu1050 O1073   1.954   .     S
Cu1050 O1067   1.961   .     S
H1058  C504    1.083   1_556 S
C1074  N1075   1.158   .     T
C1076  N1077   1.157   .     T
C1078  O1080   1.221   .     D
C1078  H1079   1.084   .     S
