data_str_m2_o2_o10_pcu_sym.100
_audit_creation_date              2020-01-03
_audit_creation_method            'Materials Studio'
_symmetry_space_group_name_H-M    'P1'
_symmetry_Int_Tables_number       1
_symmetry_cell_setting            triclinic
loop_
_symmetry_equiv_pos_as_xyz
  x,y,z
_cell_length_a                    26.3990
_cell_length_b                    30.2723
_cell_length_c                    27.7246
_cell_angle_alpha                 89.6673
_cell_angle_beta                  98.0680
_cell_angle_gamma                 90.3767
loop_
_atom_site_label
_atom_site_type_symbol
_atom_site_fract_x
_atom_site_fract_y
_atom_site_fract_z
_atom_site_U_iso_or_equiv
_atom_site_adp_type
_atom_site_occupancy
C1     C     0.16949   0.16493   0.25043   0.00000  Uiso   1.00
C2     C     0.16104   0.28985   0.44523   0.00000  Uiso   1.00
C3     C     0.16567   0.25028   0.02744   0.00000  Uiso   1.00
C4     C     0.16547   0.25030   0.47275   0.00000  Uiso   1.00
C5     C     0.06810   0.24955   0.23772   0.00000  Uiso   1.00
C6     C     0.26523   0.25056   0.26227   0.00000  Uiso   1.00
C7     C     0.01350   0.24404   0.23190   0.00000  Uiso   1.00
C8     C     0.31983   0.25618   0.26805   0.00000  Uiso   1.00
C9     C     0.18552   0.04627   0.29351   0.00000  Uiso   1.00
C10    C     0.12811   0.45332   0.22639   0.00000  Uiso   1.00
C11    C     0.19028   0.09234   0.29367   0.00000  Uiso   1.00
C12    C     0.16615   0.33477   0.24981   0.00000  Uiso   1.00
C13    C     0.12571   0.40706   0.22591   0.00000  Uiso   1.00
C14    C     0.17422   0.11649   0.25064   0.00000  Uiso   1.00
C15    C     0.16704   0.38262   0.24957   0.00000  Uiso   1.00
C16    C     0.16415   0.09387   0.20626   0.00000  Uiso   1.00
C17    C     0.21101   0.40378   0.27214   0.00000  Uiso   1.00
C18    C     0.16769   0.04807   0.20478   0.00000  Uiso   1.00
C19    C     0.21497   0.44953   0.27101   0.00000  Uiso   1.00
C20    C     0.17578   0.02370   0.24871   0.00000  Uiso   1.00
C21    C     0.17327   0.47486   0.24849   0.00000  Uiso   1.00
C22    C     0.32470   0.22003   0.18859   0.00000  Uiso   1.00
C23    C     0.20569   0.27124   0.05849   0.00000  Uiso   1.00
C24    C     0.00870   0.27998   0.31149   0.00000  Uiso   1.00
C25    C     0.14981   0.02003   0.35805   0.00000  Uiso   1.00
C26    C     0.16185   0.00017   0.40882   0.00000  Uiso   1.00
C27    C     0.05438   0.49070   0.23212   0.00000  Uiso   1.00
C28    C     0.00997   0.01484   0.20251   0.00000  Uiso   1.00
C29    C     0.21886   0.11280   0.33609   0.00000  Uiso   1.00
C30    C     0.08039   0.38501   0.20169   0.00000  Uiso   1.00
C31    C     0.16396   0.02703   0.15773   0.00000  Uiso   1.00
C32    C     0.26265   0.46934   0.29274   0.00000  Uiso   1.00
C33    C     0.29232   0.28039   0.05767   0.00000  Uiso   1.00
C34    C     0.16870   0.21021   0.44761   0.00000  Uiso   1.00
C35    C     0.33085   0.29989   0.02739   0.00000  Uiso   1.00
C36    C     0.14585   0.13612   0.45274   0.00000  Uiso   1.00
C37    C     0.13933   0.10135   0.49126   0.00000  Uiso   1.00
C38    C     0.08271   0.20928   0.01994   0.00000  Uiso   1.00
C39    C     0.15387   0.33179   0.46778   0.00000  Uiso   1.00
C40    C     0.20424   0.27164   0.10947   0.00000  Uiso   1.00
C41    C     0.16901   0.21127   0.39634   0.00000  Uiso   1.00
C42    C     0.12839   0.22887   0.10011   0.00000  Uiso   1.00
C43    C     0.16207   0.28879   0.39458   0.00000  Uiso   1.00
C44    C     0.12649   0.22909   0.04912   0.00000  Uiso   1.00
Cu45   Cu    0.16667   0.25000   0.29821   0.00000  Uiso   1.00
Cu46   Cu    0.16667   0.25001   0.20178   0.00000  Uiso   1.00
H47    H     0.15477   0.11196   0.17233   0.00000  Uiso   1.00
H48    H     0.12619   0.49710   0.42562   0.00000  Uiso   1.00
H49    H     0.17881   0.46686   0.40675   0.00000  Uiso   1.00
H50    H     0.07338   0.01398   0.25991   0.00000  Uiso   1.00
H51    H     0.03894   0.46179   0.25052   0.00000  Uiso   1.00
H52    H     0.32170   0.49191   0.17591   0.00000  Uiso   1.00
H53    H     0.31705   0.02785   0.22689   0.00000  Uiso   1.00
H54    H     0.02464   0.04301   0.18254   0.00000  Uiso   1.00
H55    H     0.29536   0.24368   0.05692   0.00000  Uiso   1.00
H56    H     0.30274   0.29238   0.09560   0.00000  Uiso   1.00
H57    H     0.32753   0.33644   0.02601   0.00000  Uiso   1.00
H58    H     0.24290   0.38432   0.28960   0.00000  Uiso   1.00
H59    H     0.03692   0.29122   0.04405   0.00000  Uiso   1.00
H60    H     0.32376   0.28669   0.48973   0.00000  Uiso   1.00
H61    H     0.10704   0.14718   0.43614   0.00000  Uiso   1.00
H62    H     0.16543   0.12025   0.42452   0.00000  Uiso   1.00
H63    H     0.11547   0.07361   0.47449   0.00000  Uiso   1.00
H64    H     0.17727   0.08835   0.00728   0.00000  Uiso   1.00
H65    H     0.12030   0.11591   0.02065   0.00000  Uiso   1.00
H66    H     0.23281   0.28978   0.13333   0.00000  Uiso   1.00
H67    H     0.17106   0.18095   0.37714   0.00000  Uiso   1.00
H68    H     0.09853   0.21231   0.11651   0.00000  Uiso   1.00
H69    H     0.15843   0.31953   0.37452   0.00000  Uiso   1.00
H70    H     0.12185   0.49795   0.33600   0.00000  Uiso   1.00
H71    H     0.13228   0.05309   0.36145   0.00000  Uiso   1.00
H72    H     0.18933   0.02174   0.43202   0.00000  Uiso   1.00
N73    N     0.16667   0.25001   0.12934   0.00000  Uiso   1.00
N74    N     0.14810   0.36540   0.48586   0.00000  Uiso   1.00
N75    N     0.16667   0.24999   0.37065   0.00000  Uiso   1.00
N76    N     0.30731   0.20082   0.15416   0.00000  Uiso   1.00
N77    N     0.02619   0.29894   0.34606   0.00000  Uiso   1.00
N78    N     0.24305   0.12844   0.36980   0.00000  Uiso   1.00
N79    N     0.04417   0.36736   0.18237   0.00000  Uiso   1.00
N80    N     0.16102   0.01022   0.12005   0.00000  Uiso   1.00
N81    N     0.30069   0.48510   0.31067   0.00000  Uiso   1.00
N82    N     0.04744   0.19355   0.49666   0.00000  Uiso   1.00
O83    O     0.16667   0.18573   0.29071   0.00000  Uiso   1.00
O84    O     0.08854   0.47709   0.20044   0.00000  Uiso   1.00
O85    O     0.24281   0.29457   0.03794   0.00000  Uiso   1.00
O86    O     0.17598   0.17133   0.47473   0.00000  Uiso   1.00
O87    O     0.16666   0.31428   0.20928   0.00000  Uiso   1.00
O88    O     0.16667   0.18573   0.20928   0.00000  Uiso   1.00
O89    O     0.16666   0.31427   0.29072   0.00000  Uiso   1.00
O90    O     0.09161   0.25000   0.28132   0.00000  Uiso   1.00
O91    O     0.24172   0.25001   0.21868   0.00000  Uiso   1.00
O92    O     0.09161   0.25000   0.19988   0.00000  Uiso   1.00
O93    O     0.24172   0.25000   0.30011   0.00000  Uiso   1.00
O94    O     0.19537   0.02314   0.33702   0.00000  Uiso   1.00
C95    C     0.50282   0.16493   0.25043   0.00000  Uiso   1.00
C96    C     0.49438   0.28985   0.44523   0.00000  Uiso   1.00
C97    C     0.49901   0.25028   0.02744   0.00000  Uiso   1.00
C98    C     0.49881   0.25030   0.47275   0.00000  Uiso   1.00
C99    C     0.40143   0.24955   0.23772   0.00000  Uiso   1.00
C100   C     0.59857   0.25056   0.26227   0.00000  Uiso   1.00
C101   C     0.34684   0.24404   0.23190   0.00000  Uiso   1.00
C102   C     0.65316   0.25618   0.26805   0.00000  Uiso   1.00
C103   C     0.51885   0.04627   0.29351   0.00000  Uiso   1.00
C104   C     0.46144   0.45332   0.22639   0.00000  Uiso   1.00
C105   C     0.52361   0.09234   0.29367   0.00000  Uiso   1.00
C106   C     0.49948   0.33477   0.24981   0.00000  Uiso   1.00
C107   C     0.45904   0.40706   0.22591   0.00000  Uiso   1.00
C108   C     0.50756   0.11649   0.25064   0.00000  Uiso   1.00
C109   C     0.50037   0.38262   0.24957   0.00000  Uiso   1.00
C110   C     0.49748   0.09387   0.20626   0.00000  Uiso   1.00
C111   C     0.54434   0.40378   0.27214   0.00000  Uiso   1.00
C112   C     0.50102   0.04807   0.20478   0.00000  Uiso   1.00
C113   C     0.54830   0.44953   0.27101   0.00000  Uiso   1.00
C114   C     0.50911   0.02370   0.24871   0.00000  Uiso   1.00
C115   C     0.50660   0.47486   0.24849   0.00000  Uiso   1.00
C116   C     0.65804   0.22003   0.18859   0.00000  Uiso   1.00
C117   C     0.53902   0.27124   0.05849   0.00000  Uiso   1.00
C118   C     0.34203   0.27998   0.31149   0.00000  Uiso   1.00
C119   C     0.48314   0.02003   0.35805   0.00000  Uiso   1.00
C120   C     0.49518   0.00017   0.40882   0.00000  Uiso   1.00
C121   C     0.38772   0.49070   0.23212   0.00000  Uiso   1.00
C122   C     0.34331   0.01484   0.20251   0.00000  Uiso   1.00
C123   C     0.55219   0.11280   0.33609   0.00000  Uiso   1.00
C124   C     0.41372   0.38501   0.20169   0.00000  Uiso   1.00
C125   C     0.49729   0.02703   0.15773   0.00000  Uiso   1.00
C126   C     0.59599   0.46934   0.29274   0.00000  Uiso   1.00
C127   C     0.62566   0.28039   0.05767   0.00000  Uiso   1.00
C128   C     0.50204   0.21021   0.44761   0.00000  Uiso   1.00
C129   C     0.66419   0.29989   0.02739   0.00000  Uiso   1.00
C130   C     0.47918   0.13612   0.45274   0.00000  Uiso   1.00
C131   C     0.47266   0.10135   0.49126   0.00000  Uiso   1.00
C132   C     0.41605   0.20928   0.01994   0.00000  Uiso   1.00
C133   C     0.48720   0.33179   0.46778   0.00000  Uiso   1.00
C134   C     0.53758   0.27164   0.10947   0.00000  Uiso   1.00
C135   C     0.50234   0.21127   0.39634   0.00000  Uiso   1.00
C136   C     0.46172   0.22887   0.10011   0.00000  Uiso   1.00
C137   C     0.49540   0.28879   0.39458   0.00000  Uiso   1.00
C138   C     0.45982   0.22909   0.04912   0.00000  Uiso   1.00
Cu139  Cu    0.50000   0.25000   0.29821   0.00000  Uiso   1.00
Cu140  Cu    0.50000   0.25001   0.20178   0.00000  Uiso   1.00
H141   H     0.48810   0.11196   0.17233   0.00000  Uiso   1.00
H142   H     0.45953   0.49710   0.42562   0.00000  Uiso   1.00
H143   H     0.51214   0.46686   0.40675   0.00000  Uiso   1.00
H144   H     0.40671   0.01398   0.25991   0.00000  Uiso   1.00
H145   H     0.37227   0.46179   0.25052   0.00000  Uiso   1.00
H146   H     0.65503   0.49191   0.17591   0.00000  Uiso   1.00
H147   H     0.65038   0.02785   0.22689   0.00000  Uiso   1.00
H148   H     0.35797   0.04301   0.18254   0.00000  Uiso   1.00
H149   H     0.62869   0.24368   0.05692   0.00000  Uiso   1.00
H150   H     0.63607   0.29238   0.09560   0.00000  Uiso   1.00
H151   H     0.66086   0.33644   0.02601   0.00000  Uiso   1.00
H152   H     0.57623   0.38432   0.28960   0.00000  Uiso   1.00
H153   H     0.37025   0.29122   0.04405   0.00000  Uiso   1.00
H154   H     0.65709   0.28669   0.48973   0.00000  Uiso   1.00
H155   H     0.44037   0.14718   0.43614   0.00000  Uiso   1.00
H156   H     0.49877   0.12025   0.42452   0.00000  Uiso   1.00
H157   H     0.44880   0.07361   0.47449   0.00000  Uiso   1.00
H158   H     0.51061   0.08835   0.00728   0.00000  Uiso   1.00
H159   H     0.45364   0.11591   0.02065   0.00000  Uiso   1.00
H160   H     0.56615   0.28978   0.13333   0.00000  Uiso   1.00
H161   H     0.50439   0.18095   0.37714   0.00000  Uiso   1.00
H162   H     0.43187   0.21231   0.11651   0.00000  Uiso   1.00
H163   H     0.49176   0.31953   0.37452   0.00000  Uiso   1.00
H164   H     0.45518   0.49795   0.33600   0.00000  Uiso   1.00
H165   H     0.46561   0.05309   0.36145   0.00000  Uiso   1.00
H166   H     0.52266   0.02174   0.43202   0.00000  Uiso   1.00
N167   N     0.50000   0.25001   0.12934   0.00000  Uiso   1.00
N168   N     0.48143   0.36540   0.48586   0.00000  Uiso   1.00
N169   N     0.50000   0.24999   0.37065   0.00000  Uiso   1.00
N170   N     0.64064   0.20082   0.15416   0.00000  Uiso   1.00
N171   N     0.35952   0.29894   0.34606   0.00000  Uiso   1.00
N172   N     0.57638   0.12844   0.36980   0.00000  Uiso   1.00
N173   N     0.37751   0.36736   0.18237   0.00000  Uiso   1.00
N174   N     0.49435   0.01022   0.12005   0.00000  Uiso   1.00
N175   N     0.63402   0.48510   0.31067   0.00000  Uiso   1.00
N176   N     0.38078   0.19355   0.49666   0.00000  Uiso   1.00
O177   O     0.50000   0.18573   0.29071   0.00000  Uiso   1.00
O178   O     0.42188   0.47709   0.20044   0.00000  Uiso   1.00
O179   O     0.57615   0.29457   0.03794   0.00000  Uiso   1.00
O180   O     0.50931   0.17133   0.47473   0.00000  Uiso   1.00
O181   O     0.50000   0.31428   0.20928   0.00000  Uiso   1.00
O182   O     0.50000   0.18573   0.20928   0.00000  Uiso   1.00
O183   O     0.50000   0.31427   0.29072   0.00000  Uiso   1.00
O184   O     0.42495   0.25000   0.28132   0.00000  Uiso   1.00
O185   O     0.57505   0.25001   0.21868   0.00000  Uiso   1.00
O186   O     0.42495   0.25000   0.19988   0.00000  Uiso   1.00
O187   O     0.57505   0.25000   0.30011   0.00000  Uiso   1.00
O188   O     0.52871   0.02314   0.33702   0.00000  Uiso   1.00
C189   C     0.83615   0.16493   0.25043   0.00000  Uiso   1.00
C190   C     0.82771   0.28985   0.44523   0.00000  Uiso   1.00
C191   C     0.83234   0.25028   0.02744   0.00000  Uiso   1.00
C192   C     0.83214   0.25030   0.47275   0.00000  Uiso   1.00
C193   C     0.73477   0.24955   0.23772   0.00000  Uiso   1.00
C194   C     0.93190   0.25056   0.26227   0.00000  Uiso   1.00
C195   C     0.68017   0.24404   0.23190   0.00000  Uiso   1.00
C196   C     0.98650   0.25618   0.26805   0.00000  Uiso   1.00
C197   C     0.85219   0.04627   0.29351   0.00000  Uiso   1.00
C198   C     0.79477   0.45332   0.22639   0.00000  Uiso   1.00
C199   C     0.85695   0.09234   0.29367   0.00000  Uiso   1.00
C200   C     0.83282   0.33477   0.24981   0.00000  Uiso   1.00
C201   C     0.79238   0.40706   0.22591   0.00000  Uiso   1.00
C202   C     0.84089   0.11649   0.25064   0.00000  Uiso   1.00
C203   C     0.83371   0.38262   0.24957   0.00000  Uiso   1.00
C204   C     0.83082   0.09387   0.20626   0.00000  Uiso   1.00
C205   C     0.87767   0.40378   0.27214   0.00000  Uiso   1.00
C206   C     0.83436   0.04807   0.20478   0.00000  Uiso   1.00
C207   C     0.88163   0.44953   0.27101   0.00000  Uiso   1.00
C208   C     0.84245   0.02370   0.24871   0.00000  Uiso   1.00
C209   C     0.83993   0.47486   0.24849   0.00000  Uiso   1.00
C210   C     0.99137   0.22003   0.18859   0.00000  Uiso   1.00
C211   C     0.87236   0.27124   0.05849   0.00000  Uiso   1.00
C212   C     0.67537   0.27998   0.31149   0.00000  Uiso   1.00
C213   C     0.81647   0.02003   0.35805   0.00000  Uiso   1.00
C214   C     0.82852   0.00017   0.40882   0.00000  Uiso   1.00
C215   C     0.72105   0.49070   0.23212   0.00000  Uiso   1.00
C216   C     0.67664   0.01484   0.20251   0.00000  Uiso   1.00
C217   C     0.88552   0.11280   0.33609   0.00000  Uiso   1.00
C218   C     0.74706   0.38501   0.20169   0.00000  Uiso   1.00
C219   C     0.83063   0.02703   0.15773   0.00000  Uiso   1.00
C220   C     0.92932   0.46934   0.29274   0.00000  Uiso   1.00
C221   C     0.95899   0.28039   0.05767   0.00000  Uiso   1.00
C222   C     0.83537   0.21021   0.44761   0.00000  Uiso   1.00
C223   C     0.99752   0.29989   0.02739   0.00000  Uiso   1.00
C224   C     0.81251   0.13612   0.45274   0.00000  Uiso   1.00
C225   C     0.80600   0.10135   0.49126   0.00000  Uiso   1.00
C226   C     0.74938   0.20928   0.01994   0.00000  Uiso   1.00
C227   C     0.82054   0.33179   0.46778   0.00000  Uiso   1.00
C228   C     0.87091   0.27164   0.10947   0.00000  Uiso   1.00
C229   C     0.83567   0.21127   0.39634   0.00000  Uiso   1.00
C230   C     0.79506   0.22887   0.10011   0.00000  Uiso   1.00
C231   C     0.82873   0.28879   0.39458   0.00000  Uiso   1.00
C232   C     0.79315   0.22909   0.04912   0.00000  Uiso   1.00
Cu233  Cu    0.83333   0.25000   0.29821   0.00000  Uiso   1.00
Cu234  Cu    0.83333   0.25001   0.20178   0.00000  Uiso   1.00
H235   H     0.82143   0.11196   0.17233   0.00000  Uiso   1.00
H236   H     0.79286   0.49710   0.42562   0.00000  Uiso   1.00
H237   H     0.84548   0.46686   0.40675   0.00000  Uiso   1.00
H238   H     0.74004   0.01398   0.25991   0.00000  Uiso   1.00
H239   H     0.70561   0.46179   0.25052   0.00000  Uiso   1.00
H240   H     0.98836   0.49191   0.17591   0.00000  Uiso   1.00
H241   H     0.98371   0.02785   0.22689   0.00000  Uiso   1.00
H242   H     0.69130   0.04301   0.18254   0.00000  Uiso   1.00
H243   H     0.96202   0.24368   0.05692   0.00000  Uiso   1.00
H244   H     0.96941   0.29238   0.09560   0.00000  Uiso   1.00
H245   H     0.99420   0.33644   0.02601   0.00000  Uiso   1.00
H246   H     0.90957   0.38432   0.28960   0.00000  Uiso   1.00
H247   H     0.70359   0.29122   0.04405   0.00000  Uiso   1.00
H248   H     0.99043   0.28669   0.48973   0.00000  Uiso   1.00
H249   H     0.77371   0.14718   0.43614   0.00000  Uiso   1.00
H250   H     0.83210   0.12025   0.42452   0.00000  Uiso   1.00
H251   H     0.78214   0.07361   0.47449   0.00000  Uiso   1.00
H252   H     0.84394   0.08835   0.00728   0.00000  Uiso   1.00
H253   H     0.78697   0.11591   0.02065   0.00000  Uiso   1.00
H254   H     0.89948   0.28978   0.13333   0.00000  Uiso   1.00
H255   H     0.83773   0.18095   0.37714   0.00000  Uiso   1.00
H256   H     0.76520   0.21231   0.11651   0.00000  Uiso   1.00
H257   H     0.82509   0.31953   0.37452   0.00000  Uiso   1.00
H258   H     0.78852   0.49795   0.33600   0.00000  Uiso   1.00
H259   H     0.79894   0.05309   0.36145   0.00000  Uiso   1.00
H260   H     0.85599   0.02174   0.43202   0.00000  Uiso   1.00
N261   N     0.83333   0.25001   0.12934   0.00000  Uiso   1.00
N262   N     0.81477   0.36540   0.48586   0.00000  Uiso   1.00
N263   N     0.83333   0.24999   0.37065   0.00000  Uiso   1.00
N264   N     0.97398   0.20082   0.15416   0.00000  Uiso   1.00
N265   N     0.69285   0.29894   0.34606   0.00000  Uiso   1.00
N266   N     0.90972   0.12844   0.36980   0.00000  Uiso   1.00
N267   N     0.71084   0.36736   0.18237   0.00000  Uiso   1.00
N268   N     0.82768   0.01022   0.12005   0.00000  Uiso   1.00
N269   N     0.96735   0.48510   0.31067   0.00000  Uiso   1.00
N270   N     0.71411   0.19355   0.49666   0.00000  Uiso   1.00
O271   O     0.83334   0.18573   0.29071   0.00000  Uiso   1.00
O272   O     0.75521   0.47709   0.20044   0.00000  Uiso   1.00
O273   O     0.90948   0.29457   0.03794   0.00000  Uiso   1.00
O274   O     0.84264   0.17133   0.47473   0.00000  Uiso   1.00
O275   O     0.83333   0.31428   0.20928   0.00000  Uiso   1.00
O276   O     0.83334   0.18573   0.20928   0.00000  Uiso   1.00
O277   O     0.83333   0.31427   0.29072   0.00000  Uiso   1.00
O278   O     0.75828   0.25000   0.28132   0.00000  Uiso   1.00
O279   O     0.90839   0.25001   0.21868   0.00000  Uiso   1.00
O280   O     0.75828   0.25000   0.19988   0.00000  Uiso   1.00
O281   O     0.90839   0.25000   0.30011   0.00000  Uiso   1.00
O282   O     0.86204   0.02314   0.33702   0.00000  Uiso   1.00
C283   C     0.16949   0.66493   0.25043   0.00000  Uiso   1.00
C284   C     0.16104   0.78985   0.44523   0.00000  Uiso   1.00
C285   C     0.16567   0.75028   0.02744   0.00000  Uiso   1.00
C286   C     0.16547   0.75030   0.47275   0.00000  Uiso   1.00
C287   C     0.06810   0.74955   0.23772   0.00000  Uiso   1.00
C288   C     0.26523   0.75056   0.26227   0.00000  Uiso   1.00
C289   C     0.01350   0.74404   0.23190   0.00000  Uiso   1.00
C290   C     0.31983   0.75618   0.26805   0.00000  Uiso   1.00
C291   C     0.18552   0.54627   0.29351   0.00000  Uiso   1.00
C292   C     0.12811   0.95332   0.22639   0.00000  Uiso   1.00
C293   C     0.19028   0.59234   0.29367   0.00000  Uiso   1.00
C294   C     0.16615   0.83477   0.24981   0.00000  Uiso   1.00
C295   C     0.12571   0.90706   0.22591   0.00000  Uiso   1.00
C296   C     0.17422   0.61649   0.25064   0.00000  Uiso   1.00
C297   C     0.16704   0.88262   0.24957   0.00000  Uiso   1.00
C298   C     0.16415   0.59387   0.20626   0.00000  Uiso   1.00
C299   C     0.21101   0.90378   0.27214   0.00000  Uiso   1.00
C300   C     0.16769   0.54807   0.20478   0.00000  Uiso   1.00
C301   C     0.21497   0.94953   0.27101   0.00000  Uiso   1.00
C302   C     0.17578   0.52370   0.24871   0.00000  Uiso   1.00
C303   C     0.17327   0.97486   0.24849   0.00000  Uiso   1.00
C304   C     0.32470   0.72003   0.18859   0.00000  Uiso   1.00
C305   C     0.20569   0.77124   0.05849   0.00000  Uiso   1.00
C306   C     0.00870   0.77998   0.31149   0.00000  Uiso   1.00
C307   C     0.14981   0.52003   0.35805   0.00000  Uiso   1.00
C308   C     0.16185   0.50017   0.40882   0.00000  Uiso   1.00
C309   C     0.05438   0.99070   0.23212   0.00000  Uiso   1.00
C310   C     0.00997   0.51484   0.20251   0.00000  Uiso   1.00
C311   C     0.21886   0.61280   0.33609   0.00000  Uiso   1.00
C312   C     0.08039   0.88501   0.20169   0.00000  Uiso   1.00
C313   C     0.16396   0.52703   0.15773   0.00000  Uiso   1.00
C314   C     0.26265   0.96934   0.29274   0.00000  Uiso   1.00
C315   C     0.29232   0.78039   0.05767   0.00000  Uiso   1.00
C316   C     0.16870   0.71021   0.44761   0.00000  Uiso   1.00
C317   C     0.33085   0.79989   0.02739   0.00000  Uiso   1.00
C318   C     0.14585   0.63612   0.45274   0.00000  Uiso   1.00
C319   C     0.13933   0.60135   0.49126   0.00000  Uiso   1.00
C320   C     0.08271   0.70928   0.01994   0.00000  Uiso   1.00
C321   C     0.15387   0.83179   0.46778   0.00000  Uiso   1.00
C322   C     0.20424   0.77164   0.10947   0.00000  Uiso   1.00
C323   C     0.16901   0.71127   0.39634   0.00000  Uiso   1.00
C324   C     0.12839   0.72887   0.10011   0.00000  Uiso   1.00
C325   C     0.16207   0.78879   0.39458   0.00000  Uiso   1.00
C326   C     0.12649   0.72909   0.04912   0.00000  Uiso   1.00
Cu327  Cu    0.16667   0.75000   0.29821   0.00000  Uiso   1.00
Cu328  Cu    0.16667   0.75001   0.20178   0.00000  Uiso   1.00
H329   H     0.15477   0.61196   0.17233   0.00000  Uiso   1.00
H330   H     0.12619   0.99710   0.42562   0.00000  Uiso   1.00
H331   H     0.17881   0.96686   0.40675   0.00000  Uiso   1.00
H332   H     0.07338   0.51398   0.25991   0.00000  Uiso   1.00
H333   H     0.03894   0.96179   0.25052   0.00000  Uiso   1.00
H334   H     0.32170   0.99191   0.17591   0.00000  Uiso   1.00
H335   H     0.31705   0.52785   0.22689   0.00000  Uiso   1.00
H336   H     0.02464   0.54301   0.18254   0.00000  Uiso   1.00
H337   H     0.29536   0.74368   0.05692   0.00000  Uiso   1.00
H338   H     0.30274   0.79238   0.09560   0.00000  Uiso   1.00
H339   H     0.32753   0.83644   0.02601   0.00000  Uiso   1.00
H340   H     0.24290   0.88432   0.28960   0.00000  Uiso   1.00
H341   H     0.03692   0.79122   0.04405   0.00000  Uiso   1.00
H342   H     0.32376   0.78669   0.48973   0.00000  Uiso   1.00
H343   H     0.10704   0.64718   0.43614   0.00000  Uiso   1.00
H344   H     0.16543   0.62025   0.42452   0.00000  Uiso   1.00
H345   H     0.11547   0.57361   0.47449   0.00000  Uiso   1.00
H346   H     0.17727   0.58835   0.00728   0.00000  Uiso   1.00
H347   H     0.12030   0.61591   0.02065   0.00000  Uiso   1.00
H348   H     0.23281   0.78978   0.13333   0.00000  Uiso   1.00
H349   H     0.17106   0.68095   0.37714   0.00000  Uiso   1.00
H350   H     0.09853   0.71231   0.11651   0.00000  Uiso   1.00
H351   H     0.15843   0.81953   0.37452   0.00000  Uiso   1.00
H352   H     0.12185   0.99795   0.33600   0.00000  Uiso   1.00
H353   H     0.13228   0.55309   0.36145   0.00000  Uiso   1.00
H354   H     0.18933   0.52174   0.43202   0.00000  Uiso   1.00
N355   N     0.16667   0.75001   0.12934   0.00000  Uiso   1.00
N356   N     0.14810   0.86540   0.48586   0.00000  Uiso   1.00
N357   N     0.16667   0.74999   0.37065   0.00000  Uiso   1.00
N358   N     0.30731   0.70082   0.15416   0.00000  Uiso   1.00
N359   N     0.02619   0.79894   0.34606   0.00000  Uiso   1.00
N360   N     0.24305   0.62844   0.36980   0.00000  Uiso   1.00
N361   N     0.04417   0.86736   0.18237   0.00000  Uiso   1.00
N362   N     0.16102   0.51022   0.12005   0.00000  Uiso   1.00
N363   N     0.30069   0.98510   0.31067   0.00000  Uiso   1.00
N364   N     0.04744   0.69355   0.49666   0.00000  Uiso   1.00
O365   O     0.16667   0.68573   0.29071   0.00000  Uiso   1.00
O366   O     0.08854   0.97709   0.20044   0.00000  Uiso   1.00
O367   O     0.24281   0.79457   0.03794   0.00000  Uiso   1.00
O368   O     0.17598   0.67133   0.47473   0.00000  Uiso   1.00
O369   O     0.16666   0.81428   0.20928   0.00000  Uiso   1.00
O370   O     0.16667   0.68573   0.20928   0.00000  Uiso   1.00
O371   O     0.16666   0.81427   0.29072   0.00000  Uiso   1.00
O372   O     0.09161   0.75000   0.28132   0.00000  Uiso   1.00
O373   O     0.24172   0.75001   0.21868   0.00000  Uiso   1.00
O374   O     0.09161   0.75000   0.19988   0.00000  Uiso   1.00
O375   O     0.24172   0.75000   0.30011   0.00000  Uiso   1.00
O376   O     0.19537   0.52314   0.33702   0.00000  Uiso   1.00
C377   C     0.50282   0.66493   0.25043   0.00000  Uiso   1.00
C378   C     0.49438   0.78985   0.44523   0.00000  Uiso   1.00
C379   C     0.49901   0.75028   0.02744   0.00000  Uiso   1.00
C380   C     0.49881   0.75030   0.47275   0.00000  Uiso   1.00
C381   C     0.40143   0.74955   0.23772   0.00000  Uiso   1.00
C382   C     0.59857   0.75056   0.26227   0.00000  Uiso   1.00
C383   C     0.34684   0.74404   0.23190   0.00000  Uiso   1.00
C384   C     0.65316   0.75618   0.26805   0.00000  Uiso   1.00
C385   C     0.51885   0.54627   0.29351   0.00000  Uiso   1.00
C386   C     0.46144   0.95332   0.22639   0.00000  Uiso   1.00
C387   C     0.52361   0.59234   0.29367   0.00000  Uiso   1.00
C388   C     0.49948   0.83477   0.24981   0.00000  Uiso   1.00
C389   C     0.45904   0.90706   0.22591   0.00000  Uiso   1.00
C390   C     0.50756   0.61649   0.25064   0.00000  Uiso   1.00
C391   C     0.50037   0.88262   0.24957   0.00000  Uiso   1.00
C392   C     0.49748   0.59387   0.20626   0.00000  Uiso   1.00
C393   C     0.54434   0.90378   0.27214   0.00000  Uiso   1.00
C394   C     0.50102   0.54807   0.20478   0.00000  Uiso   1.00
C395   C     0.54830   0.94953   0.27101   0.00000  Uiso   1.00
C396   C     0.50911   0.52370   0.24871   0.00000  Uiso   1.00
C397   C     0.50660   0.97486   0.24849   0.00000  Uiso   1.00
C398   C     0.65804   0.72003   0.18859   0.00000  Uiso   1.00
C399   C     0.53902   0.77124   0.05849   0.00000  Uiso   1.00
C400   C     0.34203   0.77998   0.31149   0.00000  Uiso   1.00
C401   C     0.48314   0.52003   0.35805   0.00000  Uiso   1.00
C402   C     0.49518   0.50017   0.40882   0.00000  Uiso   1.00
C403   C     0.38772   0.99070   0.23212   0.00000  Uiso   1.00
C404   C     0.34331   0.51484   0.20251   0.00000  Uiso   1.00
C405   C     0.55219   0.61280   0.33609   0.00000  Uiso   1.00
C406   C     0.41372   0.88501   0.20169   0.00000  Uiso   1.00
C407   C     0.49729   0.52703   0.15773   0.00000  Uiso   1.00
C408   C     0.59599   0.96934   0.29274   0.00000  Uiso   1.00
C409   C     0.62566   0.78039   0.05767   0.00000  Uiso   1.00
C410   C     0.50204   0.71021   0.44761   0.00000  Uiso   1.00
C411   C     0.66419   0.79989   0.02739   0.00000  Uiso   1.00
C412   C     0.47918   0.63612   0.45274   0.00000  Uiso   1.00
C413   C     0.47266   0.60135   0.49126   0.00000  Uiso   1.00
C414   C     0.41605   0.70928   0.01994   0.00000  Uiso   1.00
C415   C     0.48720   0.83179   0.46778   0.00000  Uiso   1.00
C416   C     0.53758   0.77164   0.10947   0.00000  Uiso   1.00
C417   C     0.50234   0.71127   0.39634   0.00000  Uiso   1.00
C418   C     0.46172   0.72887   0.10011   0.00000  Uiso   1.00
C419   C     0.49540   0.78879   0.39458   0.00000  Uiso   1.00
C420   C     0.45982   0.72909   0.04912   0.00000  Uiso   1.00
Cu421  Cu    0.50000   0.75000   0.29821   0.00000  Uiso   1.00
Cu422  Cu    0.50000   0.75001   0.20178   0.00000  Uiso   1.00
H423   H     0.48810   0.61196   0.17233   0.00000  Uiso   1.00
H424   H     0.45953   0.99710   0.42562   0.00000  Uiso   1.00
H425   H     0.51214   0.96686   0.40675   0.00000  Uiso   1.00
H426   H     0.40671   0.51398   0.25991   0.00000  Uiso   1.00
H427   H     0.37227   0.96179   0.25052   0.00000  Uiso   1.00
H428   H     0.65503   0.99191   0.17591   0.00000  Uiso   1.00
H429   H     0.65038   0.52785   0.22689   0.00000  Uiso   1.00
H430   H     0.35797   0.54301   0.18254   0.00000  Uiso   1.00
H431   H     0.62869   0.74368   0.05692   0.00000  Uiso   1.00
H432   H     0.63607   0.79238   0.09560   0.00000  Uiso   1.00
H433   H     0.66086   0.83644   0.02601   0.00000  Uiso   1.00
H434   H     0.57623   0.88432   0.28960   0.00000  Uiso   1.00
H435   H     0.37025   0.79122   0.04405   0.00000  Uiso   1.00
H436   H     0.65709   0.78669   0.48973   0.00000  Uiso   1.00
H437   H     0.44037   0.64718   0.43614   0.00000  Uiso   1.00
H438   H     0.49877   0.62025   0.42452   0.00000  Uiso   1.00
H439   H     0.44880   0.57361   0.47449   0.00000  Uiso   1.00
H440   H     0.51061   0.58835   0.00728   0.00000  Uiso   1.00
H441   H     0.45364   0.61591   0.02065   0.00000  Uiso   1.00
H442   H     0.56615   0.78978   0.13333   0.00000  Uiso   1.00
H443   H     0.50439   0.68095   0.37714   0.00000  Uiso   1.00
H444   H     0.43187   0.71231   0.11651   0.00000  Uiso   1.00
H445   H     0.49176   0.81953   0.37452   0.00000  Uiso   1.00
H446   H     0.45518   0.99795   0.33600   0.00000  Uiso   1.00
H447   H     0.46561   0.55309   0.36145   0.00000  Uiso   1.00
H448   H     0.52266   0.52174   0.43202   0.00000  Uiso   1.00
N449   N     0.50000   0.75001   0.12934   0.00000  Uiso   1.00
N450   N     0.48143   0.86540   0.48586   0.00000  Uiso   1.00
N451   N     0.50000   0.74999   0.37065   0.00000  Uiso   1.00
N452   N     0.64064   0.70082   0.15416   0.00000  Uiso   1.00
N453   N     0.35952   0.79894   0.34606   0.00000  Uiso   1.00
N454   N     0.57638   0.62844   0.36980   0.00000  Uiso   1.00
N455   N     0.37751   0.86736   0.18237   0.00000  Uiso   1.00
N456   N     0.49435   0.51022   0.12005   0.00000  Uiso   1.00
N457   N     0.63402   0.98510   0.31067   0.00000  Uiso   1.00
N458   N     0.38078   0.69355   0.49666   0.00000  Uiso   1.00
O459   O     0.50000   0.68573   0.29071   0.00000  Uiso   1.00
O460   O     0.42188   0.97709   0.20044   0.00000  Uiso   1.00
O461   O     0.57615   0.79457   0.03794   0.00000  Uiso   1.00
O462   O     0.50931   0.67133   0.47473   0.00000  Uiso   1.00
O463   O     0.50000   0.81428   0.20928   0.00000  Uiso   1.00
O464   O     0.50000   0.68573   0.20928   0.00000  Uiso   1.00
O465   O     0.50000   0.81427   0.29072   0.00000  Uiso   1.00
O466   O     0.42495   0.75000   0.28132   0.00000  Uiso   1.00
O467   O     0.57505   0.75001   0.21868   0.00000  Uiso   1.00
O468   O     0.42495   0.75000   0.19988   0.00000  Uiso   1.00
O469   O     0.57505   0.75000   0.30011   0.00000  Uiso   1.00
O470   O     0.52871   0.52314   0.33702   0.00000  Uiso   1.00
C471   C     0.83615   0.66493   0.25043   0.00000  Uiso   1.00
C472   C     0.82771   0.78985   0.44523   0.00000  Uiso   1.00
C473   C     0.83234   0.75028   0.02744   0.00000  Uiso   1.00
C474   C     0.83214   0.75030   0.47275   0.00000  Uiso   1.00
C475   C     0.73477   0.74955   0.23772   0.00000  Uiso   1.00
C476   C     0.93190   0.75056   0.26227   0.00000  Uiso   1.00
C477   C     0.68017   0.74404   0.23190   0.00000  Uiso   1.00
C478   C     0.98650   0.75618   0.26805   0.00000  Uiso   1.00
C479   C     0.85219   0.54627   0.29351   0.00000  Uiso   1.00
C480   C     0.79477   0.95332   0.22639   0.00000  Uiso   1.00
C481   C     0.85695   0.59234   0.29367   0.00000  Uiso   1.00
C482   C     0.83282   0.83477   0.24981   0.00000  Uiso   1.00
C483   C     0.79238   0.90706   0.22591   0.00000  Uiso   1.00
C484   C     0.84089   0.61649   0.25064   0.00000  Uiso   1.00
C485   C     0.83371   0.88262   0.24957   0.00000  Uiso   1.00
C486   C     0.83082   0.59387   0.20626   0.00000  Uiso   1.00
C487   C     0.87767   0.90378   0.27214   0.00000  Uiso   1.00
C488   C     0.83436   0.54807   0.20478   0.00000  Uiso   1.00
C489   C     0.88163   0.94953   0.27101   0.00000  Uiso   1.00
C490   C     0.84245   0.52370   0.24871   0.00000  Uiso   1.00
C491   C     0.83993   0.97486   0.24849   0.00000  Uiso   1.00
C492   C     0.99137   0.72003   0.18859   0.00000  Uiso   1.00
C493   C     0.87236   0.77124   0.05849   0.00000  Uiso   1.00
C494   C     0.67537   0.77998   0.31149   0.00000  Uiso   1.00
C495   C     0.81647   0.52003   0.35805   0.00000  Uiso   1.00
C496   C     0.82852   0.50017   0.40882   0.00000  Uiso   1.00
C497   C     0.72105   0.99070   0.23212   0.00000  Uiso   1.00
C498   C     0.67664   0.51484   0.20251   0.00000  Uiso   1.00
C499   C     0.88552   0.61280   0.33609   0.00000  Uiso   1.00
C500   C     0.74706   0.88501   0.20169   0.00000  Uiso   1.00
C501   C     0.83063   0.52703   0.15773   0.00000  Uiso   1.00
C502   C     0.92932   0.96934   0.29274   0.00000  Uiso   1.00
C503   C     0.95899   0.78039   0.05767   0.00000  Uiso   1.00
C504   C     0.83537   0.71021   0.44761   0.00000  Uiso   1.00
C505   C     0.99752   0.79989   0.02739   0.00000  Uiso   1.00
C506   C     0.81251   0.63612   0.45274   0.00000  Uiso   1.00
C507   C     0.80600   0.60135   0.49126   0.00000  Uiso   1.00
C508   C     0.74938   0.70928   0.01994   0.00000  Uiso   1.00
C509   C     0.82054   0.83179   0.46778   0.00000  Uiso   1.00
C510   C     0.87091   0.77164   0.10947   0.00000  Uiso   1.00
C511   C     0.83567   0.71127   0.39634   0.00000  Uiso   1.00
C512   C     0.79506   0.72887   0.10011   0.00000  Uiso   1.00
C513   C     0.82873   0.78879   0.39458   0.00000  Uiso   1.00
C514   C     0.79315   0.72909   0.04912   0.00000  Uiso   1.00
Cu515  Cu    0.83333   0.75000   0.29821   0.00000  Uiso   1.00
Cu516  Cu    0.83333   0.75001   0.20178   0.00000  Uiso   1.00
H517   H     0.82143   0.61196   0.17233   0.00000  Uiso   1.00
H518   H     0.79286   0.99710   0.42562   0.00000  Uiso   1.00
H519   H     0.84548   0.96686   0.40675   0.00000  Uiso   1.00
H520   H     0.74004   0.51398   0.25991   0.00000  Uiso   1.00
H521   H     0.70561   0.96179   0.25052   0.00000  Uiso   1.00
H522   H     0.98836   0.99191   0.17591   0.00000  Uiso   1.00
H523   H     0.98371   0.52785   0.22689   0.00000  Uiso   1.00
H524   H     0.69130   0.54301   0.18254   0.00000  Uiso   1.00
H525   H     0.96202   0.74368   0.05692   0.00000  Uiso   1.00
H526   H     0.96941   0.79238   0.09560   0.00000  Uiso   1.00
H527   H     0.99420   0.83644   0.02601   0.00000  Uiso   1.00
H528   H     0.90957   0.88432   0.28960   0.00000  Uiso   1.00
H529   H     0.70359   0.79122   0.04405   0.00000  Uiso   1.00
H530   H     0.99043   0.78669   0.48973   0.00000  Uiso   1.00
H531   H     0.77371   0.64718   0.43614   0.00000  Uiso   1.00
H532   H     0.83210   0.62025   0.42452   0.00000  Uiso   1.00
H533   H     0.78214   0.57361   0.47449   0.00000  Uiso   1.00
H534   H     0.84394   0.58835   0.00728   0.00000  Uiso   1.00
H535   H     0.78697   0.61591   0.02065   0.00000  Uiso   1.00
H536   H     0.89948   0.78978   0.13333   0.00000  Uiso   1.00
H537   H     0.83773   0.68095   0.37714   0.00000  Uiso   1.00
H538   H     0.76520   0.71231   0.11651   0.00000  Uiso   1.00
H539   H     0.82509   0.81953   0.37452   0.00000  Uiso   1.00
H540   H     0.78852   0.99795   0.33600   0.00000  Uiso   1.00
H541   H     0.79894   0.55309   0.36145   0.00000  Uiso   1.00
H542   H     0.85599   0.52174   0.43202   0.00000  Uiso   1.00
N543   N     0.83333   0.75001   0.12934   0.00000  Uiso   1.00
N544   N     0.81477   0.86540   0.48586   0.00000  Uiso   1.00
N545   N     0.83333   0.74999   0.37065   0.00000  Uiso   1.00
N546   N     0.97398   0.70082   0.15416   0.00000  Uiso   1.00
N547   N     0.69285   0.79894   0.34606   0.00000  Uiso   1.00
N548   N     0.90972   0.62844   0.36980   0.00000  Uiso   1.00
N549   N     0.71084   0.86736   0.18237   0.00000  Uiso   1.00
N550   N     0.82768   0.51022   0.12005   0.00000  Uiso   1.00
N551   N     0.96735   0.98510   0.31067   0.00000  Uiso   1.00
N552   N     0.71411   0.69355   0.49666   0.00000  Uiso   1.00
O553   O     0.83334   0.68573   0.29071   0.00000  Uiso   1.00
O554   O     0.75521   0.97709   0.20044   0.00000  Uiso   1.00
O555   O     0.90948   0.79457   0.03794   0.00000  Uiso   1.00
O556   O     0.84264   0.67133   0.47473   0.00000  Uiso   1.00
O557   O     0.83333   0.81428   0.20928   0.00000  Uiso   1.00
O558   O     0.83334   0.68573   0.20928   0.00000  Uiso   1.00
O559   O     0.83333   0.81427   0.29072   0.00000  Uiso   1.00
O560   O     0.75828   0.75000   0.28132   0.00000  Uiso   1.00
O561   O     0.90839   0.75001   0.21868   0.00000  Uiso   1.00
O562   O     0.75828   0.75000   0.19988   0.00000  Uiso   1.00
O563   O     0.90839   0.75000   0.30011   0.00000  Uiso   1.00
O564   O     0.86204   0.52314   0.33702   0.00000  Uiso   1.00
C565   C     0.16949   0.16493   0.75043   0.00000  Uiso   1.00
C566   C     0.16104   0.28985   0.94523   0.00000  Uiso   1.00
C567   C     0.16567   0.25028   0.52744   0.00000  Uiso   1.00
C568   C     0.16547   0.25030   0.97275   0.00000  Uiso   1.00
C569   C     0.06810   0.24955   0.73772   0.00000  Uiso   1.00
C570   C     0.26523   0.25056   0.76227   0.00000  Uiso   1.00
C571   C     0.01350   0.24404   0.73190   0.00000  Uiso   1.00
C572   C     0.31983   0.25618   0.76805   0.00000  Uiso   1.00
C573   C     0.18552   0.04627   0.79351   0.00000  Uiso   1.00
C574   C     0.12811   0.45332   0.72639   0.00000  Uiso   1.00
C575   C     0.19028   0.09234   0.79367   0.00000  Uiso   1.00
C576   C     0.16615   0.33477   0.74981   0.00000  Uiso   1.00
C577   C     0.12571   0.40706   0.72591   0.00000  Uiso   1.00
C578   C     0.17422   0.11649   0.75064   0.00000  Uiso   1.00
C579   C     0.16704   0.38262   0.74957   0.00000  Uiso   1.00
C580   C     0.16415   0.09387   0.70626   0.00000  Uiso   1.00
C581   C     0.21101   0.40378   0.77214   0.00000  Uiso   1.00
C582   C     0.16769   0.04807   0.70478   0.00000  Uiso   1.00
C583   C     0.21497   0.44953   0.77101   0.00000  Uiso   1.00
C584   C     0.17578   0.02370   0.74871   0.00000  Uiso   1.00
C585   C     0.17327   0.47486   0.74849   0.00000  Uiso   1.00
C586   C     0.32470   0.22003   0.68859   0.00000  Uiso   1.00
C587   C     0.20569   0.27124   0.55849   0.00000  Uiso   1.00
C588   C     0.00870   0.27998   0.81149   0.00000  Uiso   1.00
C589   C     0.14981   0.02003   0.85805   0.00000  Uiso   1.00
C590   C     0.16185   0.00017   0.90882   0.00000  Uiso   1.00
C591   C     0.05438   0.49070   0.73212   0.00000  Uiso   1.00
C592   C     0.00997   0.01484   0.70251   0.00000  Uiso   1.00
C593   C     0.21886   0.11280   0.83609   0.00000  Uiso   1.00
C594   C     0.08039   0.38501   0.70169   0.00000  Uiso   1.00
C595   C     0.16396   0.02703   0.65773   0.00000  Uiso   1.00
C596   C     0.26265   0.46934   0.79274   0.00000  Uiso   1.00
C597   C     0.29232   0.28039   0.55767   0.00000  Uiso   1.00
C598   C     0.16870   0.21021   0.94761   0.00000  Uiso   1.00
C599   C     0.33085   0.29989   0.52739   0.00000  Uiso   1.00
C600   C     0.14585   0.13612   0.95274   0.00000  Uiso   1.00
C601   C     0.13933   0.10135   0.99126   0.00000  Uiso   1.00
C602   C     0.08271   0.20928   0.51994   0.00000  Uiso   1.00
C603   C     0.15387   0.33179   0.96778   0.00000  Uiso   1.00
C604   C     0.20424   0.27164   0.60947   0.00000  Uiso   1.00
C605   C     0.16901   0.21127   0.89634   0.00000  Uiso   1.00
C606   C     0.12839   0.22887   0.60011   0.00000  Uiso   1.00
C607   C     0.16207   0.28879   0.89458   0.00000  Uiso   1.00
C608   C     0.12649   0.22909   0.54912   0.00000  Uiso   1.00
Cu609  Cu    0.16667   0.25000   0.79821   0.00000  Uiso   1.00
Cu610  Cu    0.16667   0.25001   0.70178   0.00000  Uiso   1.00
H611   H     0.15477   0.11196   0.67233   0.00000  Uiso   1.00
H612   H     0.12619   0.49710   0.92562   0.00000  Uiso   1.00
H613   H     0.17881   0.46686   0.90675   0.00000  Uiso   1.00
H614   H     0.07338   0.01398   0.75991   0.00000  Uiso   1.00
H615   H     0.03894   0.46179   0.75052   0.00000  Uiso   1.00
H616   H     0.32170   0.49191   0.67591   0.00000  Uiso   1.00
H617   H     0.31705   0.02785   0.72689   0.00000  Uiso   1.00
H618   H     0.02464   0.04301   0.68254   0.00000  Uiso   1.00
H619   H     0.29536   0.24368   0.55692   0.00000  Uiso   1.00
H620   H     0.30274   0.29238   0.59560   0.00000  Uiso   1.00
H621   H     0.32753   0.33644   0.52601   0.00000  Uiso   1.00
H622   H     0.24290   0.38432   0.78960   0.00000  Uiso   1.00
H623   H     0.03692   0.29122   0.54405   0.00000  Uiso   1.00
H624   H     0.32376   0.28669   0.98973   0.00000  Uiso   1.00
H625   H     0.10704   0.14718   0.93614   0.00000  Uiso   1.00
H626   H     0.16543   0.12025   0.92452   0.00000  Uiso   1.00
H627   H     0.11547   0.07361   0.97449   0.00000  Uiso   1.00
H628   H     0.17727   0.08835   0.50728   0.00000  Uiso   1.00
H629   H     0.12030   0.11591   0.52065   0.00000  Uiso   1.00
H630   H     0.23281   0.28978   0.63333   0.00000  Uiso   1.00
H631   H     0.17106   0.18095   0.87714   0.00000  Uiso   1.00
H632   H     0.09853   0.21231   0.61651   0.00000  Uiso   1.00
H633   H     0.15843   0.31953   0.87452   0.00000  Uiso   1.00
H634   H     0.12185   0.49795   0.83600   0.00000  Uiso   1.00
H635   H     0.13228   0.05309   0.86145   0.00000  Uiso   1.00
H636   H     0.18933   0.02174   0.93202   0.00000  Uiso   1.00
N637   N     0.16667   0.25001   0.62934   0.00000  Uiso   1.00
N638   N     0.14810   0.36540   0.98586   0.00000  Uiso   1.00
N639   N     0.16667   0.24999   0.87065   0.00000  Uiso   1.00
N640   N     0.30731   0.20082   0.65416   0.00000  Uiso   1.00
N641   N     0.02619   0.29894   0.84606   0.00000  Uiso   1.00
N642   N     0.24305   0.12844   0.86980   0.00000  Uiso   1.00
N643   N     0.04417   0.36736   0.68237   0.00000  Uiso   1.00
N644   N     0.16102   0.01022   0.62005   0.00000  Uiso   1.00
N645   N     0.30069   0.48510   0.81067   0.00000  Uiso   1.00
N646   N     0.04744   0.19355   0.99666   0.00000  Uiso   1.00
O647   O     0.16667   0.18573   0.79071   0.00000  Uiso   1.00
O648   O     0.08854   0.47709   0.70044   0.00000  Uiso   1.00
O649   O     0.24281   0.29457   0.53794   0.00000  Uiso   1.00
O650   O     0.17598   0.17133   0.97473   0.00000  Uiso   1.00
O651   O     0.16666   0.31428   0.70928   0.00000  Uiso   1.00
O652   O     0.16667   0.18573   0.70928   0.00000  Uiso   1.00
O653   O     0.16666   0.31427   0.79072   0.00000  Uiso   1.00
O654   O     0.09161   0.25000   0.78132   0.00000  Uiso   1.00
O655   O     0.24172   0.25001   0.71868   0.00000  Uiso   1.00
O656   O     0.09161   0.25000   0.69988   0.00000  Uiso   1.00
O657   O     0.24172   0.25000   0.80011   0.00000  Uiso   1.00
O658   O     0.19537   0.02314   0.83702   0.00000  Uiso   1.00
C659   C     0.50282   0.16493   0.75043   0.00000  Uiso   1.00
C660   C     0.49438   0.28985   0.94523   0.00000  Uiso   1.00
C661   C     0.49901   0.25028   0.52744   0.00000  Uiso   1.00
C662   C     0.49881   0.25030   0.97275   0.00000  Uiso   1.00
C663   C     0.40143   0.24955   0.73772   0.00000  Uiso   1.00
C664   C     0.59857   0.25056   0.76227   0.00000  Uiso   1.00
C665   C     0.34684   0.24404   0.73190   0.00000  Uiso   1.00
C666   C     0.65316   0.25618   0.76805   0.00000  Uiso   1.00
C667   C     0.51885   0.04627   0.79351   0.00000  Uiso   1.00
C668   C     0.46144   0.45332   0.72639   0.00000  Uiso   1.00
C669   C     0.52361   0.09234   0.79367   0.00000  Uiso   1.00
C670   C     0.49948   0.33477   0.74981   0.00000  Uiso   1.00
C671   C     0.45904   0.40706   0.72591   0.00000  Uiso   1.00
C672   C     0.50756   0.11649   0.75064   0.00000  Uiso   1.00
C673   C     0.50037   0.38262   0.74957   0.00000  Uiso   1.00
C674   C     0.49748   0.09387   0.70626   0.00000  Uiso   1.00
C675   C     0.54434   0.40378   0.77214   0.00000  Uiso   1.00
C676   C     0.50102   0.04807   0.70478   0.00000  Uiso   1.00
C677   C     0.54830   0.44953   0.77101   0.00000  Uiso   1.00
C678   C     0.50911   0.02370   0.74871   0.00000  Uiso   1.00
C679   C     0.50660   0.47486   0.74849   0.00000  Uiso   1.00
C680   C     0.65804   0.22003   0.68859   0.00000  Uiso   1.00
C681   C     0.53902   0.27124   0.55849   0.00000  Uiso   1.00
C682   C     0.34203   0.27998   0.81149   0.00000  Uiso   1.00
C683   C     0.48314   0.02003   0.85805   0.00000  Uiso   1.00
C684   C     0.49518   0.00017   0.90882   0.00000  Uiso   1.00
C685   C     0.38772   0.49070   0.73212   0.00000  Uiso   1.00
C686   C     0.34331   0.01484   0.70251   0.00000  Uiso   1.00
C687   C     0.55219   0.11280   0.83609   0.00000  Uiso   1.00
C688   C     0.41372   0.38501   0.70169   0.00000  Uiso   1.00
C689   C     0.49729   0.02703   0.65773   0.00000  Uiso   1.00
C690   C     0.59599   0.46934   0.79274   0.00000  Uiso   1.00
C691   C     0.62566   0.28039   0.55767   0.00000  Uiso   1.00
C692   C     0.50204   0.21021   0.94761   0.00000  Uiso   1.00
C693   C     0.66419   0.29989   0.52739   0.00000  Uiso   1.00
C694   C     0.47918   0.13612   0.95274   0.00000  Uiso   1.00
C695   C     0.47266   0.10135   0.99126   0.00000  Uiso   1.00
C696   C     0.41605   0.20928   0.51994   0.00000  Uiso   1.00
C697   C     0.48720   0.33179   0.96778   0.00000  Uiso   1.00
C698   C     0.53758   0.27164   0.60947   0.00000  Uiso   1.00
C699   C     0.50234   0.21127   0.89634   0.00000  Uiso   1.00
C700   C     0.46172   0.22887   0.60011   0.00000  Uiso   1.00
C701   C     0.49540   0.28879   0.89458   0.00000  Uiso   1.00
C702   C     0.45982   0.22909   0.54912   0.00000  Uiso   1.00
Cu703  Cu    0.50000   0.25000   0.79821   0.00000  Uiso   1.00
Cu704  Cu    0.50000   0.25001   0.70178   0.00000  Uiso   1.00
H705   H     0.48810   0.11196   0.67233   0.00000  Uiso   1.00
H706   H     0.45953   0.49710   0.92562   0.00000  Uiso   1.00
H707   H     0.51214   0.46686   0.90675   0.00000  Uiso   1.00
H708   H     0.40671   0.01398   0.75991   0.00000  Uiso   1.00
H709   H     0.37227   0.46179   0.75052   0.00000  Uiso   1.00
H710   H     0.65503   0.49191   0.67591   0.00000  Uiso   1.00
H711   H     0.65038   0.02785   0.72689   0.00000  Uiso   1.00
H712   H     0.35797   0.04301   0.68254   0.00000  Uiso   1.00
H713   H     0.62869   0.24368   0.55692   0.00000  Uiso   1.00
H714   H     0.63607   0.29238   0.59560   0.00000  Uiso   1.00
H715   H     0.66086   0.33644   0.52601   0.00000  Uiso   1.00
H716   H     0.57623   0.38432   0.78960   0.00000  Uiso   1.00
H717   H     0.37025   0.29122   0.54405   0.00000  Uiso   1.00
H718   H     0.65709   0.28669   0.98973   0.00000  Uiso   1.00
H719   H     0.44037   0.14718   0.93614   0.00000  Uiso   1.00
H720   H     0.49877   0.12025   0.92452   0.00000  Uiso   1.00
H721   H     0.44880   0.07361   0.97449   0.00000  Uiso   1.00
H722   H     0.51061   0.08835   0.50728   0.00000  Uiso   1.00
H723   H     0.45364   0.11591   0.52065   0.00000  Uiso   1.00
H724   H     0.56615   0.28978   0.63333   0.00000  Uiso   1.00
H725   H     0.50439   0.18095   0.87714   0.00000  Uiso   1.00
H726   H     0.43187   0.21231   0.61651   0.00000  Uiso   1.00
H727   H     0.49176   0.31953   0.87452   0.00000  Uiso   1.00
H728   H     0.45518   0.49795   0.83600   0.00000  Uiso   1.00
H729   H     0.46561   0.05309   0.86145   0.00000  Uiso   1.00
H730   H     0.52266   0.02174   0.93202   0.00000  Uiso   1.00
N731   N     0.50000   0.25001   0.62934   0.00000  Uiso   1.00
N732   N     0.48143   0.36540   0.98586   0.00000  Uiso   1.00
N733   N     0.50000   0.24999   0.87065   0.00000  Uiso   1.00
N734   N     0.64064   0.20082   0.65416   0.00000  Uiso   1.00
N735   N     0.35952   0.29894   0.84606   0.00000  Uiso   1.00
N736   N     0.57638   0.12844   0.86980   0.00000  Uiso   1.00
N737   N     0.37751   0.36736   0.68237   0.00000  Uiso   1.00
N738   N     0.49435   0.01022   0.62005   0.00000  Uiso   1.00
N739   N     0.63402   0.48510   0.81067   0.00000  Uiso   1.00
N740   N     0.38078   0.19355   0.99666   0.00000  Uiso   1.00
O741   O     0.50000   0.18573   0.79071   0.00000  Uiso   1.00
O742   O     0.42188   0.47709   0.70044   0.00000  Uiso   1.00
O743   O     0.57615   0.29457   0.53794   0.00000  Uiso   1.00
O744   O     0.50931   0.17133   0.97473   0.00000  Uiso   1.00
O745   O     0.50000   0.31428   0.70928   0.00000  Uiso   1.00
O746   O     0.50000   0.18573   0.70928   0.00000  Uiso   1.00
O747   O     0.50000   0.31427   0.79072   0.00000  Uiso   1.00
O748   O     0.42495   0.25000   0.78132   0.00000  Uiso   1.00
O749   O     0.57505   0.25001   0.71868   0.00000  Uiso   1.00
O750   O     0.42495   0.25000   0.69988   0.00000  Uiso   1.00
O751   O     0.57505   0.25000   0.80011   0.00000  Uiso   1.00
O752   O     0.52871   0.02314   0.83702   0.00000  Uiso   1.00
C753   C     0.83615   0.16493   0.75043   0.00000  Uiso   1.00
C754   C     0.82771   0.28985   0.94523   0.00000  Uiso   1.00
C755   C     0.83234   0.25028   0.52744   0.00000  Uiso   1.00
C756   C     0.83214   0.25030   0.97275   0.00000  Uiso   1.00
C757   C     0.73477   0.24955   0.73772   0.00000  Uiso   1.00
C758   C     0.93190   0.25056   0.76227   0.00000  Uiso   1.00
C759   C     0.68017   0.24404   0.73190   0.00000  Uiso   1.00
C760   C     0.98650   0.25618   0.76805   0.00000  Uiso   1.00
C761   C     0.85219   0.04627   0.79351   0.00000  Uiso   1.00
C762   C     0.79477   0.45332   0.72639   0.00000  Uiso   1.00
C763   C     0.85695   0.09234   0.79367   0.00000  Uiso   1.00
C764   C     0.83282   0.33477   0.74981   0.00000  Uiso   1.00
C765   C     0.79238   0.40706   0.72591   0.00000  Uiso   1.00
C766   C     0.84089   0.11649   0.75064   0.00000  Uiso   1.00
C767   C     0.83371   0.38262   0.74957   0.00000  Uiso   1.00
C768   C     0.83082   0.09387   0.70626   0.00000  Uiso   1.00
C769   C     0.87767   0.40378   0.77214   0.00000  Uiso   1.00
C770   C     0.83436   0.04807   0.70478   0.00000  Uiso   1.00
C771   C     0.88163   0.44953   0.77101   0.00000  Uiso   1.00
C772   C     0.84245   0.02370   0.74871   0.00000  Uiso   1.00
C773   C     0.83993   0.47486   0.74849   0.00000  Uiso   1.00
C774   C     0.99137   0.22003   0.68859   0.00000  Uiso   1.00
C775   C     0.87236   0.27124   0.55849   0.00000  Uiso   1.00
C776   C     0.67537   0.27998   0.81149   0.00000  Uiso   1.00
C777   C     0.81647   0.02003   0.85805   0.00000  Uiso   1.00
C778   C     0.82852   0.00017   0.90882   0.00000  Uiso   1.00
C779   C     0.72105   0.49070   0.73212   0.00000  Uiso   1.00
C780   C     0.67664   0.01484   0.70251   0.00000  Uiso   1.00
C781   C     0.88552   0.11280   0.83609   0.00000  Uiso   1.00
C782   C     0.74706   0.38501   0.70169   0.00000  Uiso   1.00
C783   C     0.83063   0.02703   0.65773   0.00000  Uiso   1.00
C784   C     0.92932   0.46934   0.79274   0.00000  Uiso   1.00
C785   C     0.95899   0.28039   0.55767   0.00000  Uiso   1.00
C786   C     0.83537   0.21021   0.94761   0.00000  Uiso   1.00
C787   C     0.99752   0.29989   0.52739   0.00000  Uiso   1.00
C788   C     0.81251   0.13612   0.95274   0.00000  Uiso   1.00
C789   C     0.80600   0.10135   0.99126   0.00000  Uiso   1.00
C790   C     0.74938   0.20928   0.51994   0.00000  Uiso   1.00
C791   C     0.82054   0.33179   0.96778   0.00000  Uiso   1.00
C792   C     0.87091   0.27164   0.60947   0.00000  Uiso   1.00
C793   C     0.83567   0.21127   0.89634   0.00000  Uiso   1.00
C794   C     0.79506   0.22887   0.60011   0.00000  Uiso   1.00
C795   C     0.82873   0.28879   0.89458   0.00000  Uiso   1.00
C796   C     0.79315   0.22909   0.54912   0.00000  Uiso   1.00
Cu797  Cu    0.83333   0.25000   0.79821   0.00000  Uiso   1.00
Cu798  Cu    0.83333   0.25001   0.70178   0.00000  Uiso   1.00
H799   H     0.82143   0.11196   0.67233   0.00000  Uiso   1.00
H800   H     0.79286   0.49710   0.92562   0.00000  Uiso   1.00
H801   H     0.84548   0.46686   0.90675   0.00000  Uiso   1.00
H802   H     0.74004   0.01398   0.75991   0.00000  Uiso   1.00
H803   H     0.70561   0.46179   0.75052   0.00000  Uiso   1.00
H804   H     0.98836   0.49191   0.67591   0.00000  Uiso   1.00
H805   H     0.98371   0.02785   0.72689   0.00000  Uiso   1.00
H806   H     0.69130   0.04301   0.68254   0.00000  Uiso   1.00
H807   H     0.96202   0.24368   0.55692   0.00000  Uiso   1.00
H808   H     0.96941   0.29238   0.59560   0.00000  Uiso   1.00
H809   H     0.99420   0.33644   0.52601   0.00000  Uiso   1.00
H810   H     0.90957   0.38432   0.78960   0.00000  Uiso   1.00
H811   H     0.70359   0.29122   0.54405   0.00000  Uiso   1.00
H812   H     0.99043   0.28669   0.98973   0.00000  Uiso   1.00
H813   H     0.77371   0.14718   0.93614   0.00000  Uiso   1.00
H814   H     0.83210   0.12025   0.92452   0.00000  Uiso   1.00
H815   H     0.78214   0.07361   0.97449   0.00000  Uiso   1.00
H816   H     0.84394   0.08835   0.50728   0.00000  Uiso   1.00
H817   H     0.78697   0.11591   0.52065   0.00000  Uiso   1.00
H818   H     0.89948   0.28978   0.63333   0.00000  Uiso   1.00
H819   H     0.83773   0.18095   0.87714   0.00000  Uiso   1.00
H820   H     0.76520   0.21231   0.61651   0.00000  Uiso   1.00
H821   H     0.82509   0.31953   0.87452   0.00000  Uiso   1.00
H822   H     0.78852   0.49795   0.83600   0.00000  Uiso   1.00
H823   H     0.79894   0.05309   0.86145   0.00000  Uiso   1.00
H824   H     0.85599   0.02174   0.93202   0.00000  Uiso   1.00
N825   N     0.83333   0.25001   0.62934   0.00000  Uiso   1.00
N826   N     0.81477   0.36540   0.98586   0.00000  Uiso   1.00
N827   N     0.83333   0.24999   0.87065   0.00000  Uiso   1.00
N828   N     0.97398   0.20082   0.65416   0.00000  Uiso   1.00
N829   N     0.69285   0.29894   0.84606   0.00000  Uiso   1.00
N830   N     0.90972   0.12844   0.86980   0.00000  Uiso   1.00
N831   N     0.71084   0.36736   0.68237   0.00000  Uiso   1.00
N832   N     0.82768   0.01022   0.62005   0.00000  Uiso   1.00
N833   N     0.96735   0.48510   0.81067   0.00000  Uiso   1.00
N834   N     0.71411   0.19355   0.99666   0.00000  Uiso   1.00
O835   O     0.83334   0.18573   0.79071   0.00000  Uiso   1.00
O836   O     0.75521   0.47709   0.70044   0.00000  Uiso   1.00
O837   O     0.90948   0.29457   0.53794   0.00000  Uiso   1.00
O838   O     0.84264   0.17133   0.97473   0.00000  Uiso   1.00
O839   O     0.83333   0.31428   0.70928   0.00000  Uiso   1.00
O840   O     0.83334   0.18573   0.70928   0.00000  Uiso   1.00
O841   O     0.83333   0.31427   0.79072   0.00000  Uiso   1.00
O842   O     0.75828   0.25000   0.78132   0.00000  Uiso   1.00
O843   O     0.90839   0.25001   0.71868   0.00000  Uiso   1.00
O844   O     0.75828   0.25000   0.69988   0.00000  Uiso   1.00
O845   O     0.90839   0.25000   0.80011   0.00000  Uiso   1.00
O846   O     0.86204   0.02314   0.83702   0.00000  Uiso   1.00
C847   C     0.16949   0.66493   0.75043   0.00000  Uiso   1.00
C848   C     0.16104   0.78985   0.94523   0.00000  Uiso   1.00
C849   C     0.16567   0.75028   0.52744   0.00000  Uiso   1.00
C850   C     0.16547   0.75030   0.97275   0.00000  Uiso   1.00
C851   C     0.06810   0.74955   0.73772   0.00000  Uiso   1.00
C852   C     0.26523   0.75056   0.76227   0.00000  Uiso   1.00
C853   C     0.01350   0.74404   0.73190   0.00000  Uiso   1.00
C854   C     0.31983   0.75618   0.76805   0.00000  Uiso   1.00
C855   C     0.18552   0.54627   0.79351   0.00000  Uiso   1.00
C856   C     0.12811   0.95332   0.72639   0.00000  Uiso   1.00
C857   C     0.19028   0.59234   0.79367   0.00000  Uiso   1.00
C858   C     0.16615   0.83477   0.74981   0.00000  Uiso   1.00
C859   C     0.12571   0.90706   0.72591   0.00000  Uiso   1.00
C860   C     0.17422   0.61649   0.75064   0.00000  Uiso   1.00
C861   C     0.16704   0.88262   0.74957   0.00000  Uiso   1.00
C862   C     0.16415   0.59387   0.70626   0.00000  Uiso   1.00
C863   C     0.21101   0.90378   0.77214   0.00000  Uiso   1.00
C864   C     0.16769   0.54807   0.70478   0.00000  Uiso   1.00
C865   C     0.21497   0.94953   0.77101   0.00000  Uiso   1.00
C866   C     0.17578   0.52370   0.74871   0.00000  Uiso   1.00
C867   C     0.17327   0.97486   0.74849   0.00000  Uiso   1.00
C868   C     0.32470   0.72003   0.68859   0.00000  Uiso   1.00
C869   C     0.20569   0.77124   0.55849   0.00000  Uiso   1.00
C870   C     0.00870   0.77998   0.81149   0.00000  Uiso   1.00
C871   C     0.14981   0.52003   0.85805   0.00000  Uiso   1.00
C872   C     0.16185   0.50017   0.90882   0.00000  Uiso   1.00
C873   C     0.05438   0.99070   0.73212   0.00000  Uiso   1.00
C874   C     0.00997   0.51484   0.70251   0.00000  Uiso   1.00
C875   C     0.21886   0.61280   0.83609   0.00000  Uiso   1.00
C876   C     0.08039   0.88501   0.70169   0.00000  Uiso   1.00
C877   C     0.16396   0.52703   0.65773   0.00000  Uiso   1.00
C878   C     0.26265   0.96934   0.79274   0.00000  Uiso   1.00
C879   C     0.29232   0.78039   0.55767   0.00000  Uiso   1.00
C880   C     0.16870   0.71021   0.94761   0.00000  Uiso   1.00
C881   C     0.33085   0.79989   0.52739   0.00000  Uiso   1.00
C882   C     0.14585   0.63612   0.95274   0.00000  Uiso   1.00
C883   C     0.13933   0.60135   0.99126   0.00000  Uiso   1.00
C884   C     0.08271   0.70928   0.51994   0.00000  Uiso   1.00
C885   C     0.15387   0.83179   0.96778   0.00000  Uiso   1.00
C886   C     0.20424   0.77164   0.60947   0.00000  Uiso   1.00
C887   C     0.16901   0.71127   0.89634   0.00000  Uiso   1.00
C888   C     0.12839   0.72887   0.60011   0.00000  Uiso   1.00
C889   C     0.16207   0.78879   0.89458   0.00000  Uiso   1.00
C890   C     0.12649   0.72909   0.54912   0.00000  Uiso   1.00
Cu891  Cu    0.16667   0.75000   0.79821   0.00000  Uiso   1.00
Cu892  Cu    0.16667   0.75001   0.70178   0.00000  Uiso   1.00
H893   H     0.15477   0.61196   0.67233   0.00000  Uiso   1.00
H894   H     0.12619   0.99710   0.92562   0.00000  Uiso   1.00
H895   H     0.17881   0.96686   0.90675   0.00000  Uiso   1.00
H896   H     0.07338   0.51398   0.75991   0.00000  Uiso   1.00
H897   H     0.03894   0.96179   0.75052   0.00000  Uiso   1.00
H898   H     0.32170   0.99191   0.67591   0.00000  Uiso   1.00
H899   H     0.31705   0.52785   0.72689   0.00000  Uiso   1.00
H900   H     0.02464   0.54301   0.68254   0.00000  Uiso   1.00
H901   H     0.29536   0.74368   0.55692   0.00000  Uiso   1.00
H902   H     0.30274   0.79238   0.59560   0.00000  Uiso   1.00
H903   H     0.32753   0.83644   0.52601   0.00000  Uiso   1.00
H904   H     0.24290   0.88432   0.78960   0.00000  Uiso   1.00
H905   H     0.03692   0.79122   0.54405   0.00000  Uiso   1.00
H906   H     0.32376   0.78669   0.98973   0.00000  Uiso   1.00
H907   H     0.10704   0.64718   0.93614   0.00000  Uiso   1.00
H908   H     0.16543   0.62025   0.92452   0.00000  Uiso   1.00
H909   H     0.11547   0.57361   0.97449   0.00000  Uiso   1.00
H910   H     0.17727   0.58835   0.50728   0.00000  Uiso   1.00
H911   H     0.12030   0.61591   0.52065   0.00000  Uiso   1.00
H912   H     0.23281   0.78978   0.63333   0.00000  Uiso   1.00
H913   H     0.17106   0.68095   0.87714   0.00000  Uiso   1.00
H914   H     0.09853   0.71231   0.61651   0.00000  Uiso   1.00
H915   H     0.15843   0.81953   0.87452   0.00000  Uiso   1.00
H916   H     0.12185   0.99795   0.83600   0.00000  Uiso   1.00
H917   H     0.13228   0.55309   0.86145   0.00000  Uiso   1.00
H918   H     0.18933   0.52174   0.93202   0.00000  Uiso   1.00
N919   N     0.16667   0.75001   0.62934   0.00000  Uiso   1.00
N920   N     0.14810   0.86540   0.98586   0.00000  Uiso   1.00
N921   N     0.16667   0.74999   0.87065   0.00000  Uiso   1.00
N922   N     0.30731   0.70082   0.65416   0.00000  Uiso   1.00
N923   N     0.02619   0.79894   0.84606   0.00000  Uiso   1.00
N924   N     0.24305   0.62844   0.86980   0.00000  Uiso   1.00
N925   N     0.04417   0.86736   0.68237   0.00000  Uiso   1.00
N926   N     0.16102   0.51022   0.62005   0.00000  Uiso   1.00
N927   N     0.30069   0.98510   0.81067   0.00000  Uiso   1.00
N928   N     0.04744   0.69355   0.99666   0.00000  Uiso   1.00
O929   O     0.16667   0.68573   0.79071   0.00000  Uiso   1.00
O930   O     0.08854   0.97709   0.70044   0.00000  Uiso   1.00
O931   O     0.24281   0.79457   0.53794   0.00000  Uiso   1.00
O932   O     0.17598   0.67133   0.97473   0.00000  Uiso   1.00
O933   O     0.16666   0.81428   0.70928   0.00000  Uiso   1.00
O934   O     0.16667   0.68573   0.70928   0.00000  Uiso   1.00
O935   O     0.16666   0.81427   0.79072   0.00000  Uiso   1.00
O936   O     0.09161   0.75000   0.78132   0.00000  Uiso   1.00
O937   O     0.24172   0.75001   0.71868   0.00000  Uiso   1.00
O938   O     0.09161   0.75000   0.69988   0.00000  Uiso   1.00
O939   O     0.24172   0.75000   0.80011   0.00000  Uiso   1.00
O940   O     0.19537   0.52314   0.83702   0.00000  Uiso   1.00
C941   C     0.50282   0.66493   0.75043   0.00000  Uiso   1.00
C942   C     0.49438   0.78985   0.94523   0.00000  Uiso   1.00
C943   C     0.49901   0.75028   0.52744   0.00000  Uiso   1.00
C944   C     0.49881   0.75030   0.97275   0.00000  Uiso   1.00
C945   C     0.40143   0.74955   0.73772   0.00000  Uiso   1.00
C946   C     0.59857   0.75056   0.76227   0.00000  Uiso   1.00
C947   C     0.34684   0.74404   0.73190   0.00000  Uiso   1.00
C948   C     0.65316   0.75618   0.76805   0.00000  Uiso   1.00
C949   C     0.51885   0.54627   0.79351   0.00000  Uiso   1.00
C950   C     0.46144   0.95332   0.72639   0.00000  Uiso   1.00
C951   C     0.52361   0.59234   0.79367   0.00000  Uiso   1.00
C952   C     0.49948   0.83477   0.74981   0.00000  Uiso   1.00
C953   C     0.45904   0.90706   0.72591   0.00000  Uiso   1.00
C954   C     0.50756   0.61649   0.75064   0.00000  Uiso   1.00
C955   C     0.50037   0.88262   0.74957   0.00000  Uiso   1.00
C956   C     0.49748   0.59387   0.70626   0.00000  Uiso   1.00
C957   C     0.54434   0.90378   0.77214   0.00000  Uiso   1.00
C958   C     0.50102   0.54807   0.70478   0.00000  Uiso   1.00
C959   C     0.54830   0.94953   0.77101   0.00000  Uiso   1.00
C960   C     0.50911   0.52370   0.74871   0.00000  Uiso   1.00
C961   C     0.50660   0.97486   0.74849   0.00000  Uiso   1.00
C962   C     0.65804   0.72003   0.68859   0.00000  Uiso   1.00
C963   C     0.53902   0.77124   0.55849   0.00000  Uiso   1.00
C964   C     0.34203   0.77998   0.81149   0.00000  Uiso   1.00
C965   C     0.48314   0.52003   0.85805   0.00000  Uiso   1.00
C966   C     0.49518   0.50017   0.90882   0.00000  Uiso   1.00
C967   C     0.38772   0.99070   0.73212   0.00000  Uiso   1.00
C968   C     0.34331   0.51484   0.70251   0.00000  Uiso   1.00
C969   C     0.55219   0.61280   0.83609   0.00000  Uiso   1.00
C970   C     0.41372   0.88501   0.70169   0.00000  Uiso   1.00
C971   C     0.49729   0.52703   0.65773   0.00000  Uiso   1.00
C972   C     0.59599   0.96934   0.79274   0.00000  Uiso   1.00
C973   C     0.62566   0.78039   0.55767   0.00000  Uiso   1.00
C974   C     0.50204   0.71021   0.94761   0.00000  Uiso   1.00
C975   C     0.66419   0.79989   0.52739   0.00000  Uiso   1.00
C976   C     0.47918   0.63612   0.95274   0.00000  Uiso   1.00
C977   C     0.47266   0.60135   0.99126   0.00000  Uiso   1.00
C978   C     0.41605   0.70928   0.51994   0.00000  Uiso   1.00
C979   C     0.48720   0.83179   0.96778   0.00000  Uiso   1.00
C980   C     0.53758   0.77164   0.60947   0.00000  Uiso   1.00
C981   C     0.50234   0.71127   0.89634   0.00000  Uiso   1.00
C982   C     0.46172   0.72887   0.60011   0.00000  Uiso   1.00
C983   C     0.49540   0.78879   0.89458   0.00000  Uiso   1.00
C984   C     0.45982   0.72909   0.54912   0.00000  Uiso   1.00
Cu985  Cu    0.50000   0.75000   0.79821   0.00000  Uiso   1.00
Cu986  Cu    0.50000   0.75001   0.70178   0.00000  Uiso   1.00
H987   H     0.48810   0.61196   0.67233   0.00000  Uiso   1.00
H988   H     0.45953   0.99710   0.92562   0.00000  Uiso   1.00
H989   H     0.51214   0.96686   0.90675   0.00000  Uiso   1.00
H990   H     0.40671   0.51398   0.75991   0.00000  Uiso   1.00
H991   H     0.37227   0.96179   0.75052   0.00000  Uiso   1.00
H992   H     0.65503   0.99191   0.67591   0.00000  Uiso   1.00
H993   H     0.65038   0.52785   0.72689   0.00000  Uiso   1.00
H994   H     0.35797   0.54301   0.68254   0.00000  Uiso   1.00
H995   H     0.62869   0.74368   0.55692   0.00000  Uiso   1.00
H996   H     0.63607   0.79238   0.59560   0.00000  Uiso   1.00
H997   H     0.66086   0.83644   0.52601   0.00000  Uiso   1.00
H998   H     0.57623   0.88432   0.78960   0.00000  Uiso   1.00
H999   H     0.37025   0.79122   0.54405   0.00000  Uiso   1.00
H1000  H     0.65709   0.78669   0.98973   0.00000  Uiso   1.00
H1001  H     0.44037   0.64718   0.93614   0.00000  Uiso   1.00
H1002  H     0.49877   0.62025   0.92452   0.00000  Uiso   1.00
H1003  H     0.44880   0.57361   0.97449   0.00000  Uiso   1.00
H1004  H     0.51061   0.58835   0.50728   0.00000  Uiso   1.00
H1005  H     0.45364   0.61591   0.52065   0.00000  Uiso   1.00
H1006  H     0.56615   0.78978   0.63333   0.00000  Uiso   1.00
H1007  H     0.50439   0.68095   0.87714   0.00000  Uiso   1.00
H1008  H     0.43187   0.71231   0.61651   0.00000  Uiso   1.00
H1009  H     0.49176   0.81953   0.87452   0.00000  Uiso   1.00
H1010  H     0.45518   0.99795   0.83600   0.00000  Uiso   1.00
H1011  H     0.46561   0.55309   0.86145   0.00000  Uiso   1.00
H1012  H     0.52266   0.52174   0.93202   0.00000  Uiso   1.00
N1013  N     0.50000   0.75001   0.62934   0.00000  Uiso   1.00
N1014  N     0.48143   0.86540   0.98586   0.00000  Uiso   1.00
N1015  N     0.50000   0.74999   0.87065   0.00000  Uiso   1.00
N1016  N     0.64064   0.70082   0.65416   0.00000  Uiso   1.00
N1017  N     0.35952   0.79894   0.84606   0.00000  Uiso   1.00
N1018  N     0.57638   0.62844   0.86980   0.00000  Uiso   1.00
N1019  N     0.37751   0.86736   0.68237   0.00000  Uiso   1.00
N1020  N     0.49435   0.51022   0.62005   0.00000  Uiso   1.00
N1021  N     0.63402   0.98510   0.81067   0.00000  Uiso   1.00
N1022  N     0.38078   0.69355   0.99666   0.00000  Uiso   1.00
O1023  O     0.50000   0.68573   0.79071   0.00000  Uiso   1.00
O1024  O     0.42188   0.97709   0.70044   0.00000  Uiso   1.00
O1025  O     0.57615   0.79457   0.53794   0.00000  Uiso   1.00
O1026  O     0.50931   0.67133   0.97473   0.00000  Uiso   1.00
O1027  O     0.50000   0.81428   0.70928   0.00000  Uiso   1.00
O1028  O     0.50000   0.68573   0.70928   0.00000  Uiso   1.00
O1029  O     0.50000   0.81427   0.79072   0.00000  Uiso   1.00
O1030  O     0.42495   0.75000   0.78132   0.00000  Uiso   1.00
O1031  O     0.57505   0.75001   0.71868   0.00000  Uiso   1.00
O1032  O     0.42495   0.75000   0.69988   0.00000  Uiso   1.00
O1033  O     0.57505   0.75000   0.80011   0.00000  Uiso   1.00
O1034  O     0.52871   0.52314   0.83702   0.00000  Uiso   1.00
C1035  C     0.83615   0.66493   0.75043   0.00000  Uiso   1.00
C1036  C     0.82771   0.78985   0.94523   0.00000  Uiso   1.00
C1037  C     0.83234   0.75028   0.52744   0.00000  Uiso   1.00
C1038  C     0.83214   0.75030   0.97275   0.00000  Uiso   1.00
C1039  C     0.73477   0.74955   0.73772   0.00000  Uiso   1.00
C1040  C     0.93190   0.75056   0.76227   0.00000  Uiso   1.00
C1041  C     0.68017   0.74404   0.73190   0.00000  Uiso   1.00
C1042  C     0.98650   0.75618   0.76805   0.00000  Uiso   1.00
C1043  C     0.85219   0.54627   0.79351   0.00000  Uiso   1.00
C1044  C     0.79477   0.95332   0.72639   0.00000  Uiso   1.00
C1045  C     0.85695   0.59234   0.79367   0.00000  Uiso   1.00
C1046  C     0.83282   0.83477   0.74981   0.00000  Uiso   1.00
C1047  C     0.79238   0.90706   0.72591   0.00000  Uiso   1.00
C1048  C     0.84089   0.61649   0.75064   0.00000  Uiso   1.00
C1049  C     0.83371   0.88262   0.74957   0.00000  Uiso   1.00
C1050  C     0.83082   0.59387   0.70626   0.00000  Uiso   1.00
C1051  C     0.87767   0.90378   0.77214   0.00000  Uiso   1.00
C1052  C     0.83436   0.54807   0.70478   0.00000  Uiso   1.00
C1053  C     0.88163   0.94953   0.77101   0.00000  Uiso   1.00
C1054  C     0.84245   0.52370   0.74871   0.00000  Uiso   1.00
C1055  C     0.83993   0.97486   0.74849   0.00000  Uiso   1.00
C1056  C     0.99137   0.72003   0.68859   0.00000  Uiso   1.00
C1057  C     0.87236   0.77124   0.55849   0.00000  Uiso   1.00
C1058  C     0.67537   0.77998   0.81149   0.00000  Uiso   1.00
C1059  C     0.81647   0.52003   0.85805   0.00000  Uiso   1.00
C1060  C     0.82852   0.50017   0.90882   0.00000  Uiso   1.00
C1061  C     0.72105   0.99070   0.73212   0.00000  Uiso   1.00
C1062  C     0.67664   0.51484   0.70251   0.00000  Uiso   1.00
C1063  C     0.88552   0.61280   0.83609   0.00000  Uiso   1.00
C1064  C     0.74706   0.88501   0.70169   0.00000  Uiso   1.00
C1065  C     0.83063   0.52703   0.65773   0.00000  Uiso   1.00
C1066  C     0.92932   0.96934   0.79274   0.00000  Uiso   1.00
C1067  C     0.95899   0.78039   0.55767   0.00000  Uiso   1.00
C1068  C     0.83537   0.71021   0.94761   0.00000  Uiso   1.00
C1069  C     0.99752   0.79989   0.52739   0.00000  Uiso   1.00
C1070  C     0.81251   0.63612   0.95274   0.00000  Uiso   1.00
C1071  C     0.80600   0.60135   0.99126   0.00000  Uiso   1.00
C1072  C     0.74938   0.70928   0.51994   0.00000  Uiso   1.00
C1073  C     0.82054   0.83179   0.96778   0.00000  Uiso   1.00
C1074  C     0.87091   0.77164   0.60947   0.00000  Uiso   1.00
C1075  C     0.83567   0.71127   0.89634   0.00000  Uiso   1.00
C1076  C     0.79506   0.72887   0.60011   0.00000  Uiso   1.00
C1077  C     0.82873   0.78879   0.89458   0.00000  Uiso   1.00
C1078  C     0.79315   0.72909   0.54912   0.00000  Uiso   1.00
Cu1079 Cu    0.83333   0.75000   0.79821   0.00000  Uiso   1.00
Cu1080 Cu    0.83333   0.75001   0.70178   0.00000  Uiso   1.00
H1081  H     0.82143   0.61196   0.67233   0.00000  Uiso   1.00
H1082  H     0.79286   0.99710   0.92562   0.00000  Uiso   1.00
H1083  H     0.84548   0.96686   0.90675   0.00000  Uiso   1.00
H1084  H     0.74004   0.51398   0.75991   0.00000  Uiso   1.00
H1085  H     0.70561   0.96179   0.75052   0.00000  Uiso   1.00
H1086  H     0.98836   0.99191   0.67591   0.00000  Uiso   1.00
H1087  H     0.98371   0.52785   0.72689   0.00000  Uiso   1.00
H1088  H     0.69130   0.54301   0.68254   0.00000  Uiso   1.00
H1089  H     0.96202   0.74368   0.55692   0.00000  Uiso   1.00
H1090  H     0.96941   0.79238   0.59560   0.00000  Uiso   1.00
H1091  H     0.99420   0.83644   0.52601   0.00000  Uiso   1.00
H1092  H     0.90957   0.88432   0.78960   0.00000  Uiso   1.00
H1093  H     0.70359   0.79122   0.54405   0.00000  Uiso   1.00
H1094  H     0.99043   0.78669   0.98973   0.00000  Uiso   1.00
H1095  H     0.77371   0.64718   0.93614   0.00000  Uiso   1.00
H1096  H     0.83210   0.62025   0.92452   0.00000  Uiso   1.00
H1097  H     0.78214   0.57361   0.97449   0.00000  Uiso   1.00
H1098  H     0.84394   0.58835   0.50728   0.00000  Uiso   1.00
H1099  H     0.78697   0.61591   0.52065   0.00000  Uiso   1.00
H1100  H     0.89948   0.78978   0.63333   0.00000  Uiso   1.00
H1101  H     0.83773   0.68095   0.87714   0.00000  Uiso   1.00
H1102  H     0.76520   0.71231   0.61651   0.00000  Uiso   1.00
H1103  H     0.82509   0.81953   0.87452   0.00000  Uiso   1.00
H1104  H     0.78852   0.99795   0.83600   0.00000  Uiso   1.00
H1105  H     0.79894   0.55309   0.86145   0.00000  Uiso   1.00
H1106  H     0.85599   0.52174   0.93202   0.00000  Uiso   1.00
N1107  N     0.83333   0.75001   0.62934   0.00000  Uiso   1.00
N1108  N     0.81477   0.86540   0.98586   0.00000  Uiso   1.00
N1109  N     0.83333   0.74999   0.87065   0.00000  Uiso   1.00
N1110  N     0.97398   0.70082   0.65416   0.00000  Uiso   1.00
N1111  N     0.69285   0.79894   0.84606   0.00000  Uiso   1.00
N1112  N     0.90972   0.62844   0.86980   0.00000  Uiso   1.00
N1113  N     0.71084   0.86736   0.68237   0.00000  Uiso   1.00
N1114  N     0.82768   0.51022   0.62005   0.00000  Uiso   1.00
N1115  N     0.96735   0.98510   0.81067   0.00000  Uiso   1.00
N1116  N     0.71411   0.69355   0.99666   0.00000  Uiso   1.00
O1117  O     0.83334   0.68573   0.79071   0.00000  Uiso   1.00
O1118  O     0.75521   0.97709   0.70044   0.00000  Uiso   1.00
O1119  O     0.90948   0.79457   0.53794   0.00000  Uiso   1.00
O1120  O     0.84264   0.67133   0.97473   0.00000  Uiso   1.00
O1121  O     0.83333   0.81428   0.70928   0.00000  Uiso   1.00
O1122  O     0.83334   0.68573   0.70928   0.00000  Uiso   1.00
O1123  O     0.83333   0.81427   0.79072   0.00000  Uiso   1.00
O1124  O     0.75828   0.75000   0.78132   0.00000  Uiso   1.00
O1125  O     0.90839   0.75001   0.71868   0.00000  Uiso   1.00
O1126  O     0.75828   0.75000   0.69988   0.00000  Uiso   1.00
O1127  O     0.90839   0.75000   0.80011   0.00000  Uiso   1.00
O1128  O     0.86204   0.52314   0.83702   0.00000  Uiso   1.00
loop_
_geom_bond_atom_site_label_1
_geom_bond_atom_site_label_2
_geom_bond_distance
_geom_bond_site_symmetry_2
_ccdc_geom_bond_type
C1     O88     1.293   .     A
C1     C14     1.473   .     S
C1     O83     1.297   .     A
C2     C39     1.444   .     S
C2     C4      1.413   .     A
C2     C43     1.409   .     A
C3     C23     1.415   .     A
C3     C44     1.416   .     A
C3     C568    1.516   1_554 S
C4     C34     1.412   .     A
C4     C567    1.516   .     S
C5     O90     1.279   .     A
C5     C7      1.436   .     S
C5     O92     1.292   .     A
C6     C8      1.437   .     S
C6     O93     1.292   .     A
C6     O91     1.279   .     A
C7     C196    1.362   1_455 S
C7     C210    1.456   1_455 S
C8     C101    1.362   .     S
C8     C118    1.456   .     S
C9     C20     1.412   .     A
C9     C11     1.399   .     A
C9     O94     1.385   .     S
C10    C21     1.418   .     A
C10    C13     1.402   .     A
C10    O84     1.385   .     S
C11    C14     1.410   .     A
C11    C29     1.445   .     S
C12    O89     1.288   .     A
C12    C15     1.449   .     S
C12    O87     1.288   .     A
C13    C30     1.448   .     S
C13    C15     1.404   .     A
C14    C16     1.403   .     A
C15    C17     1.393   .     A
C16    H47     1.085   .     S
C16    C18     1.391   .     A
C17    C19     1.389   .     A
C17    H58     1.086   .     S
C18    C31     1.446   .     S
C18    C20     1.411   .     A
C19    C21     1.415   .     A
C19    C32     1.445   .     S
C20    C303    1.480   1_545 S
C21    C302    1.480   .     S
C22    N76     1.158   .     T
C22    C101    1.456   .     S
C23    C40     1.419   .     A
C23    O85     1.388   .     S
C24    N77     1.158   .     T
C24    C196    1.456   1_455 S
C25    H71     1.115   .     S
C25    O94     1.411   .     S
C25    C26     1.520   .     S
C25    H352    1.112   1_545 S
C26    H72     1.111   .     S
C26    H330    1.110   1_545 S
C26    H331    1.111   1_545 S
C27    H51     1.114   .     S
C27    O84     1.409   .     S
C27    C310    1.522   .     S
C27    H332    1.111   .     S
C28    H54     1.111   .     S
C28    C309    1.522   1_545 S
C28    H522    1.111   1_445 S
C28    H241    1.110   1_455 S
C29    N78     1.157   .     T
C30    N79     1.157   .     T
C31    N80     1.157   .     T
C32    N81     1.157   .     T
C33    H55     1.115   .     S
C33    C35     1.521   .     S
C33    O85     1.413   .     S
C33    H56     1.111   .     S
C34    O86     1.393   .     S
C34    C41     1.423   .     A
C35    H57     1.111   .     S
C35    H153    1.110   .     S
C35    H624    1.111   1_554 S
C36    C37     1.521   .     S
C36    H62     1.110   .     S
C36    O86     1.415   .     S
C36    H61     1.115   .     S
C37    H63     1.110   .     S
C37    H628    1.111   .     S
C37    H629    1.110   .     S
C38    C44     1.443   .     S
C38    N646    1.157   1_554 S
C39    N74     1.157   .     T
C40    N73     1.363   .     A
C40    H66     1.080   .     S
C41    H67     1.069   .     S
C41    N75     1.365   .     A
C42    H68     1.083   .     S
C42    C44     1.408   .     A
C42    N73     1.362   .     A
C43    H69     1.079   .     S
C43    N75     1.367   .     A
Cu45   O93     1.975   .     S
Cu45   Cu46    2.673   .     S
Cu45   O89     1.956   .     S
Cu45   O83     1.958   .     S
Cu45   O90     1.971   .     S
Cu45   N75     2.008   .     S
Cu46   O92     1.975   .     S
Cu46   O88     1.956   .     S
Cu46   O91     1.971   .     S
Cu46   O87     1.958   .     S
Cu46   N73     2.008   .     S
H48    C308    1.110   .     S
H49    C308    1.111   .     S
H50    C309    1.111   1_545 S
H52    C404    1.111   .     S
H53    C122    1.110   .     S
H59    C223    1.110   1_455 S
H60    C599    1.111   .     S
H64    C601    1.111   1_554 S
H65    C601    1.110   1_554 S
H70    C307    1.112   .     S
N82    C602    1.157   .     S
C95    O182    1.293   .     A
C95    C108    1.473   .     S
C95    O177    1.297   .     A
C96    C133    1.444   .     S
C96    C98     1.413   .     A
C96    C137    1.409   .     A
C97    C117    1.415   .     A
C97    C138    1.416   .     A
C97    C662    1.516   1_554 S
C98    C128    1.412   .     A
C98    C661    1.516   .     S
C99    O184    1.279   .     A
C99    C101    1.436   .     S
C99    O186    1.292   .     A
C100   C102    1.437   .     S
C100   O187    1.292   .     A
C100   O185    1.279   .     A
C102   C195    1.362   .     S
C102   C212    1.456   .     S
C103   C114    1.412   .     A
C103   C105    1.399   .     A
C103   O188    1.385   .     S
C104   C115    1.418   .     A
C104   C107    1.402   .     A
C104   O178    1.385   .     S
C105   C108    1.410   .     A
C105   C123    1.445   .     S
C106   O183    1.288   .     A
C106   C109    1.449   .     S
C106   O181    1.288   .     A
C107   C124    1.448   .     S
C107   C109    1.404   .     A
C108   C110    1.403   .     A
C109   C111    1.393   .     A
C110   H141    1.085   .     S
C110   C112    1.391   .     A
C111   C113    1.389   .     A
C111   H152    1.086   .     S
C112   C125    1.446   .     S
C112   C114    1.411   .     A
C113   C115    1.415   .     A
C113   C126    1.445   .     S
C114   C397    1.480   1_545 S
C115   C396    1.480   .     S
C116   N170    1.158   .     T
C116   C195    1.456   .     S
C117   C134    1.419   .     A
C117   O179    1.388   .     S
C118   N171    1.158   .     T
C119   H165    1.115   .     S
C119   O188    1.411   .     S
C119   C120    1.520   .     S
C119   H446    1.112   1_545 S
C120   H166    1.111   .     S
C120   H424    1.110   1_545 S
C120   H425    1.111   1_545 S
C121   H145    1.114   .     S
C121   O178    1.409   .     S
C121   C404    1.522   .     S
C121   H426    1.111   .     S
C122   H148    1.111   .     S
C122   C403    1.522   1_545 S
C122   H334    1.111   1_545 S
C123   N172    1.157   .     T
C124   N173    1.157   .     T
C125   N174    1.157   .     T
C126   N175    1.157   .     T
C127   H149    1.115   .     S
C127   C129    1.521   .     S
C127   O179    1.413   .     S
C127   H150    1.111   .     S
C128   O180    1.393   .     S
C128   C135    1.423   .     A
C129   H151    1.111   .     S
C129   H247    1.110   .     S
C129   H718    1.111   1_554 S
C130   C131    1.521   .     S
C130   H156    1.110   .     S
C130   O180    1.415   .     S
C130   H155    1.115   .     S
C131   H157    1.110   .     S
C131   H722    1.111   .     S
C131   H723    1.110   .     S
C132   C138    1.443   .     S
C132   N740    1.157   1_554 S
C133   N168    1.157   .     T
C134   N167    1.363   .     A
C134   H160    1.080   .     S
C135   H161    1.069   .     S
C135   N169    1.365   .     A
C136   H162    1.083   .     S
C136   C138    1.408   .     A
C136   N167    1.362   .     A
C137   H163    1.079   .     S
C137   N169    1.367   .     A
Cu139  O187    1.975   .     S
Cu139  Cu140   2.673   .     S
Cu139  O183    1.956   .     S
Cu139  O177    1.958   .     S
Cu139  O184    1.971   .     S
Cu139  N169    2.008   .     S
Cu140  O186    1.975   .     S
Cu140  O182    1.956   .     S
Cu140  O185    1.971   .     S
Cu140  O181    1.958   .     S
Cu140  N167    2.008   .     S
H142   C402    1.110   .     S
H143   C402    1.111   .     S
H144   C403    1.111   1_545 S
H146   C498    1.111   .     S
H147   C216    1.110   .     S
H154   C693    1.111   .     S
H158   C695    1.111   1_554 S
H159   C695    1.110   1_554 S
H164   C401    1.112   .     S
N176   C696    1.157   .     S
C189   O276    1.293   .     A
C189   C202    1.473   .     S
C189   O271    1.297   .     A
C190   C227    1.444   .     S
C190   C192    1.413   .     A
C190   C231    1.409   .     A
C191   C211    1.415   .     A
C191   C232    1.416   .     A
C191   C756    1.516   1_554 S
C192   C222    1.412   .     A
C192   C755    1.516   .     S
C193   O278    1.279   .     A
C193   C195    1.436   .     S
C193   O280    1.292   .     A
C194   C196    1.437   .     S
C194   O281    1.292   .     A
C194   O279    1.279   .     A
C196   C7      1.362   1_655 S
C196   C24     1.456   1_655 S
C197   C208    1.412   .     A
C197   C199    1.399   .     A
C197   O282    1.385   .     S
C198   C209    1.418   .     A
C198   C201    1.402   .     A
C198   O272    1.385   .     S
C199   C202    1.410   .     A
C199   C217    1.445   .     S
C200   O277    1.288   .     A
C200   C203    1.449   .     S
C200   O275    1.288   .     A
C201   C218    1.448   .     S
C201   C203    1.404   .     A
C202   C204    1.403   .     A
C203   C205    1.393   .     A
C204   H235    1.085   .     S
C204   C206    1.391   .     A
C205   C207    1.389   .     A
C205   H246    1.086   .     S
C206   C219    1.446   .     S
C206   C208    1.411   .     A
C207   C209    1.415   .     A
C207   C220    1.445   .     S
C208   C491    1.480   1_545 S
C209   C490    1.480   .     S
C210   N264    1.158   .     T
C210   C7      1.456   1_655 S
C211   C228    1.419   .     A
C211   O273    1.388   .     S
C212   N265    1.158   .     T
C213   H259    1.115   .     S
C213   O282    1.411   .     S
C213   C214    1.520   .     S
C213   H540    1.112   1_545 S
C214   H260    1.111   .     S
C214   H518    1.110   1_545 S
C214   H519    1.111   1_545 S
C215   H239    1.114   .     S
C215   O272    1.409   .     S
C215   C498    1.522   .     S
C215   H520    1.111   .     S
C216   H242    1.111   .     S
C216   C497    1.522   1_545 S
C216   H428    1.111   1_545 S
C217   N266    1.157   .     T
C218   N267    1.157   .     T
C219   N268    1.157   .     T
C220   N269    1.157   .     T
C221   H243    1.115   .     S
C221   C223    1.521   .     S
C221   O273    1.413   .     S
C221   H244    1.111   .     S
C222   O274    1.393   .     S
C222   C229    1.423   .     A
C223   H245    1.111   .     S
C223   H59     1.110   1_655 S
C223   H812    1.111   1_554 S
C224   C225    1.521   .     S
C224   H250    1.110   .     S
C224   O274    1.415   .     S
C224   H249    1.115   .     S
C225   H251    1.110   .     S
C225   H816    1.111   .     S
C225   H817    1.110   .     S
C226   C232    1.443   .     S
C226   N834    1.157   1_554 S
C227   N262    1.157   .     T
C228   N261    1.363   .     A
C228   H254    1.080   .     S
C229   H255    1.069   .     S
C229   N263    1.365   .     A
C230   H256    1.083   .     S
C230   C232    1.408   .     A
C230   N261    1.362   .     A
C231   H257    1.079   .     S
C231   N263    1.367   .     A
Cu233  O281    1.975   .     S
Cu233  Cu234   2.673   .     S
Cu233  O277    1.956   .     S
Cu233  O271    1.958   .     S
Cu233  O278    1.971   .     S
Cu233  N263    2.008   .     S
Cu234  O280    1.975   .     S
Cu234  O276    1.956   .     S
Cu234  O279    1.971   .     S
Cu234  O275    1.958   .     S
Cu234  N261    2.008   .     S
H236   C496    1.110   .     S
H237   C496    1.111   .     S
H238   C497    1.111   1_545 S
H240   C310    1.111   1_655 S
H241   C28     1.110   1_655 S
H248   C787    1.111   .     S
H252   C789    1.111   1_554 S
H253   C789    1.110   1_554 S
H258   C495    1.112   .     S
N270   C790    1.157   .     S
C283   O370    1.293   .     A
C283   C296    1.473   .     S
C283   O365    1.297   .     A
C284   C321    1.444   .     S
C284   C286    1.413   .     A
C284   C325    1.409   .     A
C285   C305    1.415   .     A
C285   C326    1.416   .     A
C285   C850    1.516   1_554 S
C286   C316    1.412   .     A
C286   C849    1.516   .     S
C287   O372    1.279   .     A
C287   C289    1.436   .     S
C287   O374    1.292   .     A
C288   C290    1.437   .     S
C288   O375    1.292   .     A
C288   O373    1.279   .     A
C289   C478    1.362   1_455 S
C289   C492    1.456   1_455 S
C290   C383    1.362   .     S
C290   C400    1.456   .     S
C291   C302    1.412   .     A
C291   C293    1.399   .     A
C291   O376    1.385   .     S
C292   C303    1.418   .     A
C292   C295    1.402   .     A
C292   O366    1.385   .     S
C293   C296    1.410   .     A
C293   C311    1.445   .     S
C294   O371    1.288   .     A
C294   C297    1.449   .     S
C294   O369    1.288   .     A
C295   C312    1.448   .     S
C295   C297    1.404   .     A
C296   C298    1.403   .     A
C297   C299    1.393   .     A
C298   H329    1.085   .     S
C298   C300    1.391   .     A
C299   C301    1.389   .     A
C299   H340    1.086   .     S
C300   C313    1.446   .     S
C300   C302    1.411   .     A
C301   C303    1.415   .     A
C301   C314    1.445   .     S
C303   C20     1.480   1_565 S
C304   N358    1.158   .     T
C304   C383    1.456   .     S
C305   C322    1.419   .     A
C305   O367    1.388   .     S
C306   N359    1.158   .     T
C306   C478    1.456   1_455 S
C307   H353    1.115   .     S
C307   O376    1.411   .     S
C307   C308    1.520   .     S
C308   H354    1.111   .     S
C309   H333    1.114   .     S
C309   O366    1.409   .     S
C309   C28     1.522   1_565 S
C309   H50     1.111   1_565 S
C310   H336    1.111   .     S
C310   H240    1.111   1_455 S
C310   H523    1.110   1_455 S
C311   N360    1.157   .     T
C312   N361    1.157   .     T
C313   N362    1.157   .     T
C314   N363    1.157   .     T
C315   H337    1.115   .     S
C315   C317    1.521   .     S
C315   O367    1.413   .     S
C315   H338    1.111   .     S
C316   O368    1.393   .     S
C316   C323    1.423   .     A
C317   H339    1.111   .     S
C317   H435    1.110   .     S
C317   H906    1.111   1_554 S
C318   C319    1.521   .     S
C318   H344    1.110   .     S
C318   O368    1.415   .     S
C318   H343    1.115   .     S
C319   H345    1.110   .     S
C319   H910    1.111   .     S
C319   H911    1.110   .     S
C320   C326    1.443   .     S
C320   N928    1.157   1_554 S
C321   N356    1.157   .     T
C322   N355    1.363   .     A
C322   H348    1.080   .     S
C323   H349    1.069   .     S
C323   N357    1.365   .     A
C324   H350    1.083   .     S
C324   C326    1.408   .     A
C324   N355    1.362   .     A
C325   H351    1.079   .     S
C325   N357    1.367   .     A
Cu327  O375    1.975   .     S
Cu327  Cu328   2.673   .     S
Cu327  O371    1.956   .     S
Cu327  O365    1.958   .     S
Cu327  O372    1.971   .     S
Cu327  N357    2.008   .     S
Cu328  O374    1.975   .     S
Cu328  O370    1.956   .     S
Cu328  O373    1.971   .     S
Cu328  O369    1.958   .     S
Cu328  N355    2.008   .     S
H330   C26     1.110   1_565 S
H331   C26     1.111   1_565 S
H334   C122    1.111   1_565 S
H335   C404    1.110   .     S
H341   C505    1.110   1_455 S
H342   C881    1.111   .     S
H346   C883    1.111   1_554 S
H347   C883    1.110   1_554 S
H352   C25     1.112   1_565 S
N364   C884    1.157   .     S
C377   O464    1.293   .     A
C377   C390    1.473   .     S
C377   O459    1.297   .     A
C378   C415    1.444   .     S
C378   C380    1.413   .     A
C378   C419    1.409   .     A
C379   C399    1.415   .     A
C379   C420    1.416   .     A
C379   C944    1.516   1_554 S
C380   C410    1.412   .     A
C380   C943    1.516   .     S
C381   O466    1.279   .     A
C381   C383    1.436   .     S
C381   O468    1.292   .     A
C382   C384    1.437   .     S
C382   O469    1.292   .     A
C382   O467    1.279   .     A
C384   C477    1.362   .     S
C384   C494    1.456   .     S
C385   C396    1.412   .     A
C385   C387    1.399   .     A
C385   O470    1.385   .     S
C386   C397    1.418   .     A
C386   C389    1.402   .     A
C386   O460    1.385   .     S
C387   C390    1.410   .     A
C387   C405    1.445   .     S
C388   O465    1.288   .     A
C388   C391    1.449   .     S
C388   O463    1.288   .     A
C389   C406    1.448   .     S
C389   C391    1.404   .     A
C390   C392    1.403   .     A
C391   C393    1.393   .     A
C392   H423    1.085   .     S
C392   C394    1.391   .     A
C393   C395    1.389   .     A
C393   H434    1.086   .     S
C394   C407    1.446   .     S
C394   C396    1.411   .     A
C395   C397    1.415   .     A
C395   C408    1.445   .     S
C397   C114    1.480   1_565 S
C398   N452    1.158   .     T
C398   C477    1.456   .     S
C399   C416    1.419   .     A
C399   O461    1.388   .     S
C400   N453    1.158   .     T
C401   H447    1.115   .     S
C401   O470    1.411   .     S
C401   C402    1.520   .     S
C402   H448    1.111   .     S
C403   H427    1.114   .     S
C403   O460    1.409   .     S
C403   C122    1.522   1_565 S
C403   H144    1.111   1_565 S
C404   H430    1.111   .     S
C405   N454    1.157   .     T
C406   N455    1.157   .     T
C407   N456    1.157   .     T
C408   N457    1.157   .     T
C409   H431    1.115   .     S
C409   C411    1.521   .     S
C409   O461    1.413   .     S
C409   H432    1.111   .     S
C410   O462    1.393   .     S
C410   C417    1.423   .     A
C411   H433    1.111   .     S
C411   H529    1.110   .     S
C411   H1000   1.111   1_554 S
C412   C413    1.521   .     S
C412   H438    1.110   .     S
C412   O462    1.415   .     S
C412   H437    1.115   .     S
C413   H439    1.110   .     S
C413   H1004   1.111   .     S
C413   H1005   1.110   .     S
C414   C420    1.443   .     S
C414   N1022   1.157   1_554 S
C415   N450    1.157   .     T
C416   N449    1.363   .     A
C416   H442    1.080   .     S
C417   H443    1.069   .     S
C417   N451    1.365   .     A
C418   H444    1.083   .     S
C418   C420    1.408   .     A
C418   N449    1.362   .     A
C419   H445    1.079   .     S
C419   N451    1.367   .     A
Cu421  O469    1.975   .     S
Cu421  Cu422   2.673   .     S
Cu421  O465    1.956   .     S
Cu421  O459    1.958   .     S
Cu421  O466    1.971   .     S
Cu421  N451    2.008   .     S
Cu422  O468    1.975   .     S
Cu422  O464    1.956   .     S
Cu422  O467    1.971   .     S
Cu422  O463    1.958   .     S
Cu422  N449    2.008   .     S
H424   C120    1.110   1_565 S
H425   C120    1.111   1_565 S
H428   C216    1.111   1_565 S
H429   C498    1.110   .     S
H436   C975    1.111   .     S
H440   C977    1.111   1_554 S
H441   C977    1.110   1_554 S
H446   C119    1.112   1_565 S
N458   C978    1.157   .     S
C471   O558    1.293   .     A
C471   C484    1.473   .     S
C471   O553    1.297   .     A
C472   C509    1.444   .     S
C472   C474    1.413   .     A
C472   C513    1.409   .     A
C473   C493    1.415   .     A
C473   C514    1.416   .     A
C473   C1038   1.516   1_554 S
C474   C504    1.412   .     A
C474   C1037   1.516   .     S
C475   O560    1.279   .     A
C475   C477    1.436   .     S
C475   O562    1.292   .     A
C476   C478    1.437   .     S
C476   O563    1.292   .     A
C476   O561    1.279   .     A
C478   C289    1.362   1_655 S
C478   C306    1.456   1_655 S
C479   C490    1.412   .     A
C479   C481    1.399   .     A
C479   O564    1.385   .     S
C480   C491    1.418   .     A
C480   C483    1.402   .     A
C480   O554    1.385   .     S
C481   C484    1.410   .     A
C481   C499    1.445   .     S
C482   O559    1.288   .     A
C482   C485    1.449   .     S
C482   O557    1.288   .     A
C483   C500    1.448   .     S
C483   C485    1.404   .     A
C484   C486    1.403   .     A
C485   C487    1.393   .     A
C486   H517    1.085   .     S
C486   C488    1.391   .     A
C487   C489    1.389   .     A
C487   H528    1.086   .     S
C488   C501    1.446   .     S
C488   C490    1.411   .     A
C489   C491    1.415   .     A
C489   C502    1.445   .     S
C491   C208    1.480   1_565 S
C492   N546    1.158   .     T
C492   C289    1.456   1_655 S
C493   C510    1.419   .     A
C493   O555    1.388   .     S
C494   N547    1.158   .     T
C495   H541    1.115   .     S
C495   O564    1.411   .     S
C495   C496    1.520   .     S
C496   H542    1.111   .     S
C497   H521    1.114   .     S
C497   O554    1.409   .     S
C497   C216    1.522   1_565 S
C497   H238    1.111   1_565 S
C498   H524    1.111   .     S
C499   N548    1.157   .     T
C500   N549    1.157   .     T
C501   N550    1.157   .     T
C502   N551    1.157   .     T
C503   H525    1.115   .     S
C503   C505    1.521   .     S
C503   O555    1.413   .     S
C503   H526    1.111   .     S
C504   O556    1.393   .     S
C504   C511    1.423   .     A
C505   H527    1.111   .     S
C505   H341    1.110   1_655 S
C505   H1094   1.111   1_554 S
C506   C507    1.521   .     S
C506   H532    1.110   .     S
C506   O556    1.415   .     S
C506   H531    1.115   .     S
C507   H533    1.110   .     S
C507   H1098   1.111   .     S
C507   H1099   1.110   .     S
C508   C514    1.443   .     S
C508   N1116   1.157   1_554 S
C509   N544    1.157   .     T
C510   N543    1.363   .     A
C510   H536    1.080   .     S
C511   H537    1.069   .     S
C511   N545    1.365   .     A
C512   H538    1.083   .     S
C512   C514    1.408   .     A
C512   N543    1.362   .     A
C513   H539    1.079   .     S
C513   N545    1.367   .     A
Cu515  O563    1.975   .     S
Cu515  Cu516   2.673   .     S
Cu515  O559    1.956   .     S
Cu515  O553    1.958   .     S
Cu515  O560    1.971   .     S
Cu515  N545    2.008   .     S
Cu516  O562    1.975   .     S
Cu516  O558    1.956   .     S
Cu516  O561    1.971   .     S
Cu516  O557    1.958   .     S
Cu516  N543    2.008   .     S
H518   C214    1.110   1_565 S
H519   C214    1.111   1_565 S
H522   C28     1.111   1_665 S
H523   C310    1.110   1_655 S
H530   C1069   1.111   .     S
H534   C1071   1.111   1_554 S
H535   C1071   1.110   1_554 S
H540   C213    1.112   1_565 S
N552   C1072   1.157   .     S
C565   O652    1.293   .     A
C565   C578    1.473   .     S
C565   O647    1.297   .     A
C566   C603    1.444   .     S
C566   C568    1.413   .     A
C566   C607    1.409   .     A
C567   C587    1.415   .     A
C567   C608    1.416   .     A
C568   C598    1.412   .     A
C568   C3      1.516   1_556 S
C569   O654    1.279   .     A
C569   C571    1.436   .     S
C569   O656    1.292   .     A
C570   C572    1.437   .     S
C570   O657    1.292   .     A
C570   O655    1.279   .     A
C571   C760    1.362   1_455 S
C571   C774    1.456   1_455 S
C572   C665    1.362   .     S
C572   C682    1.456   .     S
C573   C584    1.412   .     A
C573   C575    1.399   .     A
C573   O658    1.385   .     S
C574   C585    1.418   .     A
C574   C577    1.402   .     A
C574   O648    1.385   .     S
C575   C578    1.410   .     A
C575   C593    1.445   .     S
C576   O653    1.288   .     A
C576   C579    1.449   .     S
C576   O651    1.288   .     A
C577   C594    1.448   .     S
C577   C579    1.404   .     A
C578   C580    1.403   .     A
C579   C581    1.393   .     A
C580   H611    1.085   .     S
C580   C582    1.391   .     A
C581   C583    1.389   .     A
C581   H622    1.086   .     S
C582   C595    1.446   .     S
C582   C584    1.411   .     A
C583   C585    1.415   .     A
C583   C596    1.445   .     S
C584   C867    1.480   1_545 S
C585   C866    1.480   .     S
C586   N640    1.158   .     T
C586   C665    1.456   .     S
C587   C604    1.419   .     A
C587   O649    1.388   .     S
C588   N641    1.158   .     T
C588   C760    1.456   1_455 S
C589   H635    1.115   .     S
C589   O658    1.411   .     S
C589   C590    1.520   .     S
C589   H916    1.112   1_545 S
C590   H636    1.111   .     S
C590   H894    1.110   1_545 S
C590   H895    1.111   1_545 S
C591   H615    1.114   .     S
C591   O648    1.409   .     S
C591   C874    1.522   .     S
C591   H896    1.111   .     S
C592   H618    1.111   .     S
C592   C873    1.522   1_545 S
C592   H1086   1.111   1_445 S
C592   H805    1.110   1_455 S
C593   N642    1.157   .     T
C594   N643    1.157   .     T
C595   N644    1.157   .     T
C596   N645    1.157   .     T
C597   H619    1.115   .     S
C597   C599    1.521   .     S
C597   O649    1.413   .     S
C597   H620    1.111   .     S
C598   O650    1.393   .     S
C598   C605    1.423   .     A
C599   H621    1.111   .     S
C599   H717    1.110   .     S
C600   C601    1.521   .     S
C600   H626    1.110   .     S
C600   O650    1.415   .     S
C600   H625    1.115   .     S
C601   H627    1.110   .     S
C601   H64     1.111   1_556 S
C601   H65     1.110   1_556 S
C602   C608    1.443   .     S
C603   N638    1.157   .     T
C604   N637    1.363   .     A
C604   H630    1.080   .     S
C605   H631    1.069   .     S
C605   N639    1.365   .     A
C606   H632    1.083   .     S
C606   C608    1.408   .     A
C606   N637    1.362   .     A
C607   H633    1.079   .     S
C607   N639    1.367   .     A
Cu609  O657    1.975   .     S
Cu609  Cu610   2.673   .     S
Cu609  O653    1.956   .     S
Cu609  O647    1.958   .     S
Cu609  O654    1.971   .     S
Cu609  N639    2.008   .     S
Cu610  O656    1.975   .     S
Cu610  O652    1.956   .     S
Cu610  O655    1.971   .     S
Cu610  O651    1.958   .     S
Cu610  N637    2.008   .     S
H612   C872    1.110   .     S
H613   C872    1.111   .     S
H614   C873    1.111   1_545 S
H616   C968    1.111   .     S
H617   C686    1.110   .     S
H623   C787    1.110   1_455 S
H624   C35     1.111   1_556 S
H634   C871    1.112   .     S
N646   C38     1.157   1_556 S
C659   O746    1.293   .     A
C659   C672    1.473   .     S
C659   O741    1.297   .     A
C660   C697    1.444   .     S
C660   C662    1.413   .     A
C660   C701    1.409   .     A
C661   C681    1.415   .     A
C661   C702    1.416   .     A
C662   C692    1.412   .     A
C662   C97     1.516   1_556 S
C663   O748    1.279   .     A
C663   C665    1.436   .     S
C663   O750    1.292   .     A
C664   C666    1.437   .     S
C664   O751    1.292   .     A
C664   O749    1.279   .     A
C666   C759    1.362   .     S
C666   C776    1.456   .     S
C667   C678    1.412   .     A
C667   C669    1.399   .     A
C667   O752    1.385   .     S
C668   C679    1.418   .     A
C668   C671    1.402   .     A
C668   O742    1.385   .     S
C669   C672    1.410   .     A
C669   C687    1.445   .     S
C670   O747    1.288   .     A
C670   C673    1.449   .     S
C670   O745    1.288   .     A
C671   C688    1.448   .     S
C671   C673    1.404   .     A
C672   C674    1.403   .     A
C673   C675    1.393   .     A
C674   H705    1.085   .     S
C674   C676    1.391   .     A
C675   C677    1.389   .     A
C675   H716    1.086   .     S
C676   C689    1.446   .     S
C676   C678    1.411   .     A
C677   C679    1.415   .     A
C677   C690    1.445   .     S
C678   C961    1.480   1_545 S
C679   C960    1.480   .     S
C680   N734    1.158   .     T
C680   C759    1.456   .     S
C681   C698    1.419   .     A
C681   O743    1.388   .     S
C682   N735    1.158   .     T
C683   H729    1.115   .     S
C683   O752    1.411   .     S
C683   C684    1.520   .     S
C683   H1010   1.112   1_545 S
C684   H730    1.111   .     S
C684   H988    1.110   1_545 S
C684   H989    1.111   1_545 S
C685   H709    1.114   .     S
C685   O742    1.409   .     S
C685   C968    1.522   .     S
C685   H990    1.111   .     S
C686   H712    1.111   .     S
C686   C967    1.522   1_545 S
C686   H898    1.111   1_545 S
C687   N736    1.157   .     T
C688   N737    1.157   .     T
C689   N738    1.157   .     T
C690   N739    1.157   .     T
C691   H713    1.115   .     S
C691   C693    1.521   .     S
C691   O743    1.413   .     S
C691   H714    1.111   .     S
C692   O744    1.393   .     S
C692   C699    1.423   .     A
C693   H715    1.111   .     S
C693   H811    1.110   .     S
C694   C695    1.521   .     S
C694   H720    1.110   .     S
C694   O744    1.415   .     S
C694   H719    1.115   .     S
C695   H721    1.110   .     S
C695   H158    1.111   1_556 S
C695   H159    1.110   1_556 S
C696   C702    1.443   .     S
C697   N732    1.157   .     T
C698   N731    1.363   .     A
C698   H724    1.080   .     S
C699   H725    1.069   .     S
C699   N733    1.365   .     A
C700   H726    1.083   .     S
C700   C702    1.408   .     A
C700   N731    1.362   .     A
C701   H727    1.079   .     S
C701   N733    1.367   .     A
Cu703  O751    1.975   .     S
Cu703  Cu704   2.673   .     S
Cu703  O747    1.956   .     S
Cu703  O741    1.958   .     S
Cu703  O748    1.971   .     S
Cu703  N733    2.008   .     S
Cu704  O750    1.975   .     S
Cu704  O746    1.956   .     S
Cu704  O749    1.971   .     S
Cu704  O745    1.958   .     S
Cu704  N731    2.008   .     S
H706   C966    1.110   .     S
H707   C966    1.111   .     S
H708   C967    1.111   1_545 S
H710   C1062   1.111   .     S
H711   C780    1.110   .     S
H718   C129    1.111   1_556 S
H728   C965    1.112   .     S
N740   C132    1.157   1_556 S
C753   O840    1.293   .     A
C753   C766    1.473   .     S
C753   O835    1.297   .     A
C754   C791    1.444   .     S
C754   C756    1.413   .     A
C754   C795    1.409   .     A
C755   C775    1.415   .     A
C755   C796    1.416   .     A
C756   C786    1.412   .     A
C756   C191    1.516   1_556 S
C757   O842    1.279   .     A
C757   C759    1.436   .     S
C757   O844    1.292   .     A
C758   C760    1.437   .     S
C758   O845    1.292   .     A
C758   O843    1.279   .     A
C760   C571    1.362   1_655 S
C760   C588    1.456   1_655 S
C761   C772    1.412   .     A
C761   C763    1.399   .     A
C761   O846    1.385   .     S
C762   C773    1.418   .     A
C762   C765    1.402   .     A
C762   O836    1.385   .     S
C763   C766    1.410   .     A
C763   C781    1.445   .     S
C764   O841    1.288   .     A
C764   C767    1.449   .     S
C764   O839    1.288   .     A
C765   C782    1.448   .     S
C765   C767    1.404   .     A
C766   C768    1.403   .     A
C767   C769    1.393   .     A
C768   H799    1.085   .     S
C768   C770    1.391   .     A
C769   C771    1.389   .     A
C769   H810    1.086   .     S
C770   C783    1.446   .     S
C770   C772    1.411   .     A
C771   C773    1.415   .     A
C771   C784    1.445   .     S
C772   C1055   1.480   1_545 S
C773   C1054   1.480   .     S
C774   N828    1.158   .     T
C774   C571    1.456   1_655 S
C775   C792    1.419   .     A
C775   O837    1.388   .     S
C776   N829    1.158   .     T
C777   H823    1.115   .     S
C777   O846    1.411   .     S
C777   C778    1.520   .     S
C777   H1104   1.112   1_545 S
C778   H824    1.111   .     S
C778   H1082   1.110   1_545 S
C778   H1083   1.111   1_545 S
C779   H803    1.114   .     S
C779   O836    1.409   .     S
C779   C1062   1.522   .     S
C779   H1084   1.111   .     S
C780   H806    1.111   .     S
C780   C1061   1.522   1_545 S
C780   H992    1.111   1_545 S
C781   N830    1.157   .     T
C782   N831    1.157   .     T
C783   N832    1.157   .     T
C784   N833    1.157   .     T
C785   H807    1.115   .     S
C785   C787    1.521   .     S
C785   O837    1.413   .     S
C785   H808    1.111   .     S
C786   O838    1.393   .     S
C786   C793    1.423   .     A
C787   H809    1.111   .     S
C787   H623    1.110   1_655 S
C788   C789    1.521   .     S
C788   H814    1.110   .     S
C788   O838    1.415   .     S
C788   H813    1.115   .     S
C789   H815    1.110   .     S
C789   H252    1.111   1_556 S
C789   H253    1.110   1_556 S
C790   C796    1.443   .     S
C791   N826    1.157   .     T
C792   N825    1.363   .     A
C792   H818    1.080   .     S
C793   H819    1.069   .     S
C793   N827    1.365   .     A
C794   H820    1.083   .     S
C794   C796    1.408   .     A
C794   N825    1.362   .     A
C795   H821    1.079   .     S
C795   N827    1.367   .     A
Cu797  O845    1.975   .     S
Cu797  Cu798   2.673   .     S
Cu797  O841    1.956   .     S
Cu797  O835    1.958   .     S
Cu797  O842    1.971   .     S
Cu797  N827    2.008   .     S
Cu798  O844    1.975   .     S
Cu798  O840    1.956   .     S
Cu798  O843    1.971   .     S
Cu798  O839    1.958   .     S
Cu798  N825    2.008   .     S
H800   C1060   1.110   .     S
H801   C1060   1.111   .     S
H802   C1061   1.111   1_545 S
H804   C874    1.111   1_655 S
H805   C592    1.110   1_655 S
H812   C223    1.111   1_556 S
H822   C1059   1.112   .     S
N834   C226    1.157   1_556 S
C847   O934    1.293   .     A
C847   C860    1.473   .     S
C847   O929    1.297   .     A
C848   C885    1.444   .     S
C848   C850    1.413   .     A
C848   C889    1.409   .     A
C849   C869    1.415   .     A
C849   C890    1.416   .     A
C850   C880    1.412   .     A
C850   C285    1.516   1_556 S
C851   O936    1.279   .     A
C851   C853    1.436   .     S
C851   O938    1.292   .     A
C852   C854    1.437   .     S
C852   O939    1.292   .     A
C852   O937    1.279   .     A
C853   C1042   1.362   1_455 S
C853   C1056   1.456   1_455 S
C854   C947    1.362   .     S
C854   C964    1.456   .     S
C855   C866    1.412   .     A
C855   C857    1.399   .     A
C855   O940    1.385   .     S
C856   C867    1.418   .     A
C856   C859    1.402   .     A
C856   O930    1.385   .     S
C857   C860    1.410   .     A
C857   C875    1.445   .     S
C858   O935    1.288   .     A
C858   C861    1.449   .     S
C858   O933    1.288   .     A
C859   C876    1.448   .     S
C859   C861    1.404   .     A
C860   C862    1.403   .     A
C861   C863    1.393   .     A
C862   H893    1.085   .     S
C862   C864    1.391   .     A
C863   C865    1.389   .     A
C863   H904    1.086   .     S
C864   C877    1.446   .     S
C864   C866    1.411   .     A
C865   C867    1.415   .     A
C865   C878    1.445   .     S
C867   C584    1.480   1_565 S
C868   N922    1.158   .     T
C868   C947    1.456   .     S
C869   C886    1.419   .     A
C869   O931    1.388   .     S
C870   N923    1.158   .     T
C870   C1042   1.456   1_455 S
C871   H917    1.115   .     S
C871   O940    1.411   .     S
C871   C872    1.520   .     S
C872   H918    1.111   .     S
C873   H897    1.114   .     S
C873   O930    1.409   .     S
C873   C592    1.522   1_565 S
C873   H614    1.111   1_565 S
C874   H900    1.111   .     S
C874   H804    1.111   1_455 S
C874   H1087   1.110   1_455 S
C875   N924    1.157   .     T
C876   N925    1.157   .     T
C877   N926    1.157   .     T
C878   N927    1.157   .     T
C879   H901    1.115   .     S
C879   C881    1.521   .     S
C879   O931    1.413   .     S
C879   H902    1.111   .     S
C880   O932    1.393   .     S
C880   C887    1.423   .     A
C881   H903    1.111   .     S
C881   H999    1.110   .     S
C882   C883    1.521   .     S
C882   H908    1.110   .     S
C882   O932    1.415   .     S
C882   H907    1.115   .     S
C883   H909    1.110   .     S
C883   H346    1.111   1_556 S
C883   H347    1.110   1_556 S
C884   C890    1.443   .     S
C885   N920    1.157   .     T
C886   N919    1.363   .     A
C886   H912    1.080   .     S
C887   H913    1.069   .     S
C887   N921    1.365   .     A
C888   H914    1.083   .     S
C888   C890    1.408   .     A
C888   N919    1.362   .     A
C889   H915    1.079   .     S
C889   N921    1.367   .     A
Cu891  O939    1.975   .     S
Cu891  Cu892   2.673   .     S
Cu891  O935    1.956   .     S
Cu891  O929    1.958   .     S
Cu891  O936    1.971   .     S
Cu891  N921    2.008   .     S
Cu892  O938    1.975   .     S
Cu892  O934    1.956   .     S
Cu892  O937    1.971   .     S
Cu892  O933    1.958   .     S
Cu892  N919    2.008   .     S
H894   C590    1.110   1_565 S
H895   C590    1.111   1_565 S
H898   C686    1.111   1_565 S
H899   C968    1.110   .     S
H905   C1069   1.110   1_455 S
H906   C317    1.111   1_556 S
H916   C589    1.112   1_565 S
N928   C320    1.157   1_556 S
C941   O1028   1.293   .     A
C941   C954    1.473   .     S
C941   O1023   1.297   .     A
C942   C979    1.444   .     S
C942   C944    1.413   .     A
C942   C983    1.409   .     A
C943   C963    1.415   .     A
C943   C984    1.416   .     A
C944   C974    1.412   .     A
C944   C379    1.516   1_556 S
C945   O1030   1.279   .     A
C945   C947    1.436   .     S
C945   O1032   1.292   .     A
C946   C948    1.437   .     S
C946   O1033   1.292   .     A
C946   O1031   1.279   .     A
C948   C1041   1.362   .     S
C948   C1058   1.456   .     S
C949   C960    1.412   .     A
C949   C951    1.399   .     A
C949   O1034   1.385   .     S
C950   C961    1.418   .     A
C950   C953    1.402   .     A
C950   O1024   1.385   .     S
C951   C954    1.410   .     A
C951   C969    1.445   .     S
C952   O1029   1.288   .     A
C952   C955    1.449   .     S
C952   O1027   1.288   .     A
C953   C970    1.448   .     S
C953   C955    1.404   .     A
C954   C956    1.403   .     A
C955   C957    1.393   .     A
C956   H987    1.085   .     S
C956   C958    1.391   .     A
C957   C959    1.389   .     A
C957   H998    1.086   .     S
C958   C971    1.446   .     S
C958   C960    1.411   .     A
C959   C961    1.415   .     A
C959   C972    1.445   .     S
C961   C678    1.480   1_565 S
C962   N1016   1.158   .     T
C962   C1041   1.456   .     S
C963   C980    1.419   .     A
C963   O1025   1.388   .     S
C964   N1017   1.158   .     T
C965   H1011   1.115   .     S
C965   O1034   1.411   .     S
C965   C966    1.520   .     S
C966   H1012   1.111   .     S
C967   H991    1.114   .     S
C967   O1024   1.409   .     S
C967   C686    1.522   1_565 S
C967   H708    1.111   1_565 S
C968   H994    1.111   .     S
C969   N1018   1.157   .     T
C970   N1019   1.157   .     T
C971   N1020   1.157   .     T
C972   N1021   1.157   .     T
C973   H995    1.115   .     S
C973   C975    1.521   .     S
C973   O1025   1.413   .     S
C973   H996    1.111   .     S
C974   O1026   1.393   .     S
C974   C981    1.423   .     A
C975   H997    1.111   .     S
C975   H1093   1.110   .     S
C976   C977    1.521   .     S
C976   H1002   1.110   .     S
C976   O1026   1.415   .     S
C976   H1001   1.115   .     S
C977   H1003   1.110   .     S
C977   H440    1.111   1_556 S
C977   H441    1.110   1_556 S
C978   C984    1.443   .     S
C979   N1014   1.157   .     T
C980   N1013   1.363   .     A
C980   H1006   1.080   .     S
C981   H1007   1.069   .     S
C981   N1015   1.365   .     A
C982   H1008   1.083   .     S
C982   C984    1.408   .     A
C982   N1013   1.362   .     A
C983   H1009   1.079   .     S
C983   N1015   1.367   .     A
Cu985  O1033   1.975   .     S
Cu985  Cu986   2.673   .     S
Cu985  O1029   1.956   .     S
Cu985  O1023   1.958   .     S
Cu985  O1030   1.971   .     S
Cu985  N1015   2.008   .     S
Cu986  O1032   1.975   .     S
Cu986  O1028   1.956   .     S
Cu986  O1031   1.971   .     S
Cu986  O1027   1.958   .     S
Cu986  N1013   2.008   .     S
H988   C684    1.110   1_565 S
H989   C684    1.111   1_565 S
H992   C780    1.111   1_565 S
H993   C1062   1.110   .     S
H1000  C411    1.111   1_556 S
H1010  C683    1.112   1_565 S
N1022  C414    1.157   1_556 S
C1035  O1122   1.293   .     A
C1035  C1048   1.473   .     S
C1035  O1117   1.297   .     A
C1036  C1073   1.444   .     S
C1036  C1038   1.413   .     A
C1036  C1077   1.409   .     A
C1037  C1057   1.415   .     A
C1037  C1078   1.416   .     A
C1038  C1068   1.412   .     A
C1038  C473    1.516   1_556 S
C1039  O1124   1.279   .     A
C1039  C1041   1.436   .     S
C1039  O1126   1.292   .     A
C1040  C1042   1.437   .     S
C1040  O1127   1.292   .     A
C1040  O1125   1.279   .     A
C1042  C853    1.362   1_655 S
C1042  C870    1.456   1_655 S
C1043  C1054   1.412   .     A
C1043  C1045   1.399   .     A
C1043  O1128   1.385   .     S
C1044  C1055   1.418   .     A
C1044  C1047   1.402   .     A
C1044  O1118   1.385   .     S
C1045  C1048   1.410   .     A
C1045  C1063   1.445   .     S
C1046  O1123   1.288   .     A
C1046  C1049   1.449   .     S
C1046  O1121   1.288   .     A
C1047  C1064   1.448   .     S
C1047  C1049   1.404   .     A
C1048  C1050   1.403   .     A
C1049  C1051   1.393   .     A
C1050  H1081   1.085   .     S
C1050  C1052   1.391   .     A
C1051  C1053   1.389   .     A
C1051  H1092   1.086   .     S
C1052  C1065   1.446   .     S
C1052  C1054   1.411   .     A
C1053  C1055   1.415   .     A
C1053  C1066   1.445   .     S
C1055  C772    1.480   1_565 S
C1056  N1110   1.158   .     T
C1056  C853    1.456   1_655 S
C1057  C1074   1.419   .     A
C1057  O1119   1.388   .     S
C1058  N1111   1.158   .     T
C1059  H1105   1.115   .     S
C1059  O1128   1.411   .     S
C1059  C1060   1.520   .     S
C1060  H1106   1.111   .     S
C1061  H1085   1.114   .     S
C1061  O1118   1.409   .     S
C1061  C780    1.522   1_565 S
C1061  H802    1.111   1_565 S
C1062  H1088   1.111   .     S
C1063  N1112   1.157   .     T
C1064  N1113   1.157   .     T
C1065  N1114   1.157   .     T
C1066  N1115   1.157   .     T
C1067  H1089   1.115   .     S
C1067  C1069   1.521   .     S
C1067  O1119   1.413   .     S
C1067  H1090   1.111   .     S
C1068  O1120   1.393   .     S
C1068  C1075   1.423   .     A
C1069  H1091   1.111   .     S
C1069  H905    1.110   1_655 S
C1070  C1071   1.521   .     S
C1070  H1096   1.110   .     S
C1070  O1120   1.415   .     S
C1070  H1095   1.115   .     S
C1071  H1097   1.110   .     S
C1071  H534    1.111   1_556 S
C1071  H535    1.110   1_556 S
C1072  C1078   1.443   .     S
C1073  N1108   1.157   .     T
C1074  N1107   1.363   .     A
C1074  H1100   1.080   .     S
C1075  H1101   1.069   .     S
C1075  N1109   1.365   .     A
C1076  H1102   1.083   .     S
C1076  C1078   1.408   .     A
C1076  N1107   1.362   .     A
C1077  H1103   1.079   .     S
C1077  N1109   1.367   .     A
Cu1079 O1127   1.975   .     S
Cu1079 Cu1080  2.673   .     S
Cu1079 O1123   1.956   .     S
Cu1079 O1117   1.958   .     S
Cu1079 O1124   1.971   .     S
Cu1079 N1109   2.008   .     S
Cu1080 O1126   1.975   .     S
Cu1080 O1122   1.956   .     S
Cu1080 O1125   1.971   .     S
Cu1080 O1121   1.958   .     S
Cu1080 N1107   2.008   .     S
H1082  C778    1.110   1_565 S
H1083  C778    1.111   1_565 S
H1086  C592    1.111   1_665 S
H1087  C874    1.110   1_655 S
H1094  C505    1.111   1_556 S
H1104  C777    1.112   1_565 S
N1116  C508    1.157   1_556 S
