data_str_m2_o2_o10_pcu_sym.207
_audit_creation_date              2020-01-03
_audit_creation_method            'Materials Studio'
_symmetry_space_group_name_H-M    'P1'
_symmetry_Int_Tables_number       1
_symmetry_cell_setting            triclinic
loop_
_symmetry_equiv_pos_as_xyz
  x,y,z
_cell_length_a                    26.3457
_cell_length_b                    30.2727
_cell_length_c                    27.6595
_cell_angle_alpha                 90.4396
_cell_angle_beta                  96.9784
_cell_angle_gamma                 89.4455
loop_
_atom_site_label
_atom_site_type_symbol
_atom_site_fract_x
_atom_site_fract_y
_atom_site_fract_z
_atom_site_U_iso_or_equiv
_atom_site_adp_type
_atom_site_occupancy
C1     C     0.16875   0.16513   0.24997   0.00000  Uiso   1.00
C2     C     0.16479   0.33511   0.24997   0.00000  Uiso   1.00
C3     C     0.19349   0.28396   0.05752   0.00000  Uiso   1.00
C4     C     0.19532   0.21608   0.44868   0.00000  Uiso   1.00
C5     C     0.19162   0.28274   0.10842   0.00000  Uiso   1.00
C6     C     0.19259   0.21733   0.39725   0.00000  Uiso   1.00
C7     C     0.14224   0.21779   0.10099   0.00000  Uiso   1.00
C8     C     0.14069   0.28139   0.39351   0.00000  Uiso   1.00
C9     C     0.14294   0.21732   0.05023   0.00000  Uiso   1.00
C10    C     0.14125   0.28145   0.44439   0.00000  Uiso   1.00
C11    C     0.16887   0.25024   0.02757   0.00000  Uiso   1.00
C12    C     0.16886   0.24902   0.47301   0.00000  Uiso   1.00
C13    C     0.06819   0.25212   0.23820   0.00000  Uiso   1.00
C14    C     0.26515   0.24764   0.26194   0.00000  Uiso   1.00
C15    C     0.01383   0.26063   0.23443   0.00000  Uiso   1.00
C16    C     0.31969   0.23980   0.26645   0.00000  Uiso   1.00
C17    C     0.12555   0.04969   0.26235   0.00000  Uiso   1.00
C18    C     0.18661   0.45171   0.21398   0.00000  Uiso   1.00
C19    C     0.12732   0.09545   0.26265   0.00000  Uiso   1.00
C20    C     0.18543   0.40589   0.21421   0.00000  Uiso   1.00
C21    C     0.17008   0.11714   0.24932   0.00000  Uiso   1.00
C22    C     0.16229   0.38353   0.24987   0.00000  Uiso   1.00
C23    C     0.21256   0.09258   0.23617   0.00000  Uiso   1.00
C24    C     0.13875   0.40802   0.28514   0.00000  Uiso   1.00
C25    C     0.21075   0.04642   0.23780   0.00000  Uiso   1.00
C26    C     0.14231   0.45403   0.28573   0.00000  Uiso   1.00
C27    C     0.16734   0.02478   0.25017   0.00000  Uiso   1.00
C28    C     0.16567   0.47615   0.25010   0.00000  Uiso   1.00
Cu29   Cu    0.16667   0.24999   0.29821   0.00000  Uiso   1.00
Cu30   Cu    0.16667   0.25000   0.20178   0.00000  Uiso   1.00
H31    H     0.09117   0.03389   0.27112   0.00000  Uiso   1.00
H32    H     0.20384   0.46798   0.18537   0.00000  Uiso   1.00
H33    H     0.09472   0.11411   0.27245   0.00000  Uiso   1.00
H34    H     0.20321   0.38786   0.18663   0.00000  Uiso   1.00
H35    H     0.24333   0.02709   0.22920   0.00000  Uiso   1.00
H36    H     0.12577   0.47274   0.31357   0.00000  Uiso   1.00
H37    H     0.21110   0.30777   0.13165   0.00000  Uiso   1.00
H38    H     0.21181   0.19218   0.37824   0.00000  Uiso   1.00
H39    H     0.12210   0.19217   0.11769   0.00000  Uiso   1.00
H40    H     0.11914   0.30645   0.37235   0.00000  Uiso   1.00
H41    H     0.12328   0.19127   0.02862   0.00000  Uiso   1.00
H42    H     0.12021   0.30690   0.46145   0.00000  Uiso   1.00
N43    N     0.16667   0.25001   0.12934   0.00000  Uiso   1.00
N44    N     0.16667   0.24999   0.37065   0.00000  Uiso   1.00
O45    O     0.16667   0.18572   0.29071   0.00000  Uiso   1.00
O46    O     0.16666   0.31427   0.20928   0.00000  Uiso   1.00
O47    O     0.16667   0.18573   0.20928   0.00000  Uiso   1.00
O48    O     0.16666   0.31427   0.29072   0.00000  Uiso   1.00
O49    O     0.09161   0.24999   0.28132   0.00000  Uiso   1.00
O50    O     0.24172   0.25000   0.21868   0.00000  Uiso   1.00
O51    O     0.09161   0.25000   0.19988   0.00000  Uiso   1.00
O52    O     0.24172   0.25000   0.30011   0.00000  Uiso   1.00
C53    C     0.32424   0.29707   0.19952   0.00000  Uiso   1.00
C54    C     0.02942   0.33006   0.18297   0.00000  Uiso   1.00
C55    C     0.00225   0.37005   0.15808   0.00000  Uiso   1.00
H56    H     0.30968   0.35931   0.12558   0.00000  Uiso   1.00
H57    H     0.31309   0.38804   0.18358   0.00000  Uiso   1.00
H58    H     0.03098   0.39292   0.14625   0.00000  Uiso   1.00
H59    H     0.05554   0.34187   0.21477   0.00000  Uiso   1.00
H60    H     0.05232   0.31401   0.15650   0.00000  Uiso   1.00
H61    H     0.30342   0.28135   0.16657   0.00000  Uiso   1.00
H62    H     0.29657   0.31694   0.21819   0.00000  Uiso   1.00
C63    C     0.01007   0.20412   0.30219   0.00000  Uiso   1.00
C64    C     0.30636   0.17691   0.32860   0.00000  Uiso   1.00
C65    C     0.33295   0.13644   0.35309   0.00000  Uiso   1.00
H66    H     0.01331   0.11395   0.32542   0.00000  Uiso   1.00
H67    H     0.03260   0.14664   0.37957   0.00000  Uiso   1.00
H68    H     0.30554   0.11821   0.37284   0.00000  Uiso   1.00
H69    H     0.29234   0.19779   0.35740   0.00000  Uiso   1.00
H70    H     0.27344   0.16564   0.30293   0.00000  Uiso   1.00
H71    H     0.03222   0.18069   0.28149   0.00000  Uiso   1.00
H72    H     0.03641   0.22008   0.33143   0.00000  Uiso   1.00
C73    C     0.25972   0.11304   0.22171   0.00000  Uiso   1.00
O74    O     0.25873   0.15024   0.20481   0.00000  Uiso   1.00
O75    O     0.30573   0.08908   0.22683   0.00000  Uiso   1.00
H76    H     0.00182   0.10636   0.21611   0.00000  Uiso   1.00
C77    C     0.10744   0.38759   0.31983   0.00000  Uiso   1.00
O78    O     0.07807   0.35769   0.30642   0.00000  Uiso   1.00
O79    O     0.10961   0.40416   0.36736   0.00000  Uiso   1.00
H80    H     0.08595   0.38805   0.38741   0.00000  Uiso   1.00
C81    C     0.22191   0.32038   0.03757   0.00000  Uiso   1.00
O82    O     0.24210   0.31496   0.00041   0.00000  Uiso   1.00
O83    O     0.22618   0.36106   0.06194   0.00000  Uiso   1.00
H84    H     0.24654   0.38326   0.04512   0.00000  Uiso   1.00
C85    C     0.22721   0.18089   0.47504   0.00000  Uiso   1.00
O86    O     0.24287   0.18500   0.01827   0.00000  Uiso   1.00
O87    O     0.24059   0.14314   0.44979   0.00000  Uiso   1.00
H88    H     0.26283   0.12181   0.47129   0.00000  Uiso   1.00
C89    C     0.50208   0.16513   0.24997   0.00000  Uiso   1.00
C90    C     0.49812   0.33511   0.24997   0.00000  Uiso   1.00
C91    C     0.52682   0.28396   0.05752   0.00000  Uiso   1.00
C92    C     0.52865   0.21608   0.44868   0.00000  Uiso   1.00
C93    C     0.52495   0.28274   0.10842   0.00000  Uiso   1.00
C94    C     0.52592   0.21733   0.39725   0.00000  Uiso   1.00
C95    C     0.47558   0.21779   0.10099   0.00000  Uiso   1.00
C96    C     0.47403   0.28139   0.39351   0.00000  Uiso   1.00
C97    C     0.47627   0.21732   0.05023   0.00000  Uiso   1.00
C98    C     0.47458   0.28145   0.44439   0.00000  Uiso   1.00
C99    C     0.50220   0.25024   0.02757   0.00000  Uiso   1.00
C100   C     0.50219   0.24902   0.47301   0.00000  Uiso   1.00
C101   C     0.40153   0.25212   0.23820   0.00000  Uiso   1.00
C102   C     0.59848   0.24764   0.26194   0.00000  Uiso   1.00
C103   C     0.34716   0.26063   0.23443   0.00000  Uiso   1.00
C104   C     0.65302   0.23980   0.26645   0.00000  Uiso   1.00
C105   C     0.45889   0.04969   0.26235   0.00000  Uiso   1.00
C106   C     0.51995   0.45171   0.21398   0.00000  Uiso   1.00
C107   C     0.46065   0.09545   0.26265   0.00000  Uiso   1.00
C108   C     0.51876   0.40589   0.21421   0.00000  Uiso   1.00
C109   C     0.50341   0.11714   0.24932   0.00000  Uiso   1.00
C110   C     0.49563   0.38353   0.24987   0.00000  Uiso   1.00
C111   C     0.54590   0.09258   0.23617   0.00000  Uiso   1.00
C112   C     0.47208   0.40802   0.28514   0.00000  Uiso   1.00
C113   C     0.54409   0.04642   0.23780   0.00000  Uiso   1.00
C114   C     0.47565   0.45403   0.28573   0.00000  Uiso   1.00
C115   C     0.50067   0.02478   0.25017   0.00000  Uiso   1.00
C116   C     0.49901   0.47615   0.25010   0.00000  Uiso   1.00
Cu117  Cu    0.50000   0.24999   0.29821   0.00000  Uiso   1.00
Cu118  Cu    0.50000   0.25000   0.20178   0.00000  Uiso   1.00
H119   H     0.42450   0.03389   0.27112   0.00000  Uiso   1.00
H120   H     0.53718   0.46798   0.18537   0.00000  Uiso   1.00
H121   H     0.42805   0.11411   0.27245   0.00000  Uiso   1.00
H122   H     0.53654   0.38786   0.18663   0.00000  Uiso   1.00
H123   H     0.57666   0.02709   0.22920   0.00000  Uiso   1.00
H124   H     0.45910   0.47274   0.31357   0.00000  Uiso   1.00
H125   H     0.54443   0.30777   0.13165   0.00000  Uiso   1.00
H126   H     0.54514   0.19218   0.37824   0.00000  Uiso   1.00
H127   H     0.45544   0.19217   0.11769   0.00000  Uiso   1.00
H128   H     0.45247   0.30645   0.37235   0.00000  Uiso   1.00
H129   H     0.45662   0.19127   0.02862   0.00000  Uiso   1.00
H130   H     0.45354   0.30690   0.46145   0.00000  Uiso   1.00
N131   N     0.50000   0.25001   0.12934   0.00000  Uiso   1.00
N132   N     0.50000   0.24999   0.37065   0.00000  Uiso   1.00
O133   O     0.50000   0.18572   0.29071   0.00000  Uiso   1.00
O134   O     0.50000   0.31427   0.20928   0.00000  Uiso   1.00
O135   O     0.50000   0.18573   0.20928   0.00000  Uiso   1.00
O136   O     0.50000   0.31427   0.29072   0.00000  Uiso   1.00
O137   O     0.42495   0.24999   0.28132   0.00000  Uiso   1.00
O138   O     0.57505   0.25000   0.21868   0.00000  Uiso   1.00
O139   O     0.42495   0.25000   0.19988   0.00000  Uiso   1.00
O140   O     0.57505   0.25000   0.30011   0.00000  Uiso   1.00
C141   C     0.65757   0.29707   0.19952   0.00000  Uiso   1.00
C142   C     0.36275   0.33006   0.18297   0.00000  Uiso   1.00
C143   C     0.33558   0.37005   0.15808   0.00000  Uiso   1.00
H144   H     0.64302   0.35931   0.12558   0.00000  Uiso   1.00
H145   H     0.64643   0.38804   0.18358   0.00000  Uiso   1.00
H146   H     0.36432   0.39292   0.14625   0.00000  Uiso   1.00
H147   H     0.38888   0.34187   0.21477   0.00000  Uiso   1.00
H148   H     0.38566   0.31401   0.15650   0.00000  Uiso   1.00
H149   H     0.63676   0.28135   0.16657   0.00000  Uiso   1.00
H150   H     0.62991   0.31694   0.21819   0.00000  Uiso   1.00
C151   C     0.34341   0.20412   0.30219   0.00000  Uiso   1.00
C152   C     0.63970   0.17691   0.32860   0.00000  Uiso   1.00
C153   C     0.66628   0.13644   0.35309   0.00000  Uiso   1.00
H154   H     0.34664   0.11395   0.32542   0.00000  Uiso   1.00
H155   H     0.36593   0.14664   0.37957   0.00000  Uiso   1.00
H156   H     0.63887   0.11821   0.37284   0.00000  Uiso   1.00
H157   H     0.62568   0.19779   0.35740   0.00000  Uiso   1.00
H158   H     0.60677   0.16564   0.30293   0.00000  Uiso   1.00
H159   H     0.36555   0.18069   0.28149   0.00000  Uiso   1.00
H160   H     0.36974   0.22008   0.33143   0.00000  Uiso   1.00
C161   C     0.59306   0.11304   0.22171   0.00000  Uiso   1.00
O162   O     0.59206   0.15024   0.20481   0.00000  Uiso   1.00
O163   O     0.63906   0.08908   0.22683   0.00000  Uiso   1.00
H164   H     0.33515   0.10636   0.21611   0.00000  Uiso   1.00
C165   C     0.44077   0.38759   0.31983   0.00000  Uiso   1.00
O166   O     0.41140   0.35769   0.30642   0.00000  Uiso   1.00
O167   O     0.44295   0.40416   0.36736   0.00000  Uiso   1.00
H168   H     0.41928   0.38805   0.38741   0.00000  Uiso   1.00
C169   C     0.55524   0.32038   0.03757   0.00000  Uiso   1.00
O170   O     0.57544   0.31496   0.00041   0.00000  Uiso   1.00
O171   O     0.55952   0.36106   0.06194   0.00000  Uiso   1.00
H172   H     0.57987   0.38326   0.04512   0.00000  Uiso   1.00
C173   C     0.56055   0.18089   0.47504   0.00000  Uiso   1.00
O174   O     0.57621   0.18500   0.01827   0.00000  Uiso   1.00
O175   O     0.57393   0.14314   0.44979   0.00000  Uiso   1.00
H176   H     0.59617   0.12181   0.47129   0.00000  Uiso   1.00
C177   C     0.83542   0.16513   0.24997   0.00000  Uiso   1.00
C178   C     0.83145   0.33511   0.24997   0.00000  Uiso   1.00
C179   C     0.86015   0.28396   0.05752   0.00000  Uiso   1.00
C180   C     0.86198   0.21608   0.44868   0.00000  Uiso   1.00
C181   C     0.85829   0.28274   0.10842   0.00000  Uiso   1.00
C182   C     0.85925   0.21733   0.39725   0.00000  Uiso   1.00
C183   C     0.80891   0.21779   0.10099   0.00000  Uiso   1.00
C184   C     0.80736   0.28139   0.39351   0.00000  Uiso   1.00
C185   C     0.80960   0.21732   0.05023   0.00000  Uiso   1.00
C186   C     0.80791   0.28145   0.44439   0.00000  Uiso   1.00
C187   C     0.83554   0.25024   0.02757   0.00000  Uiso   1.00
C188   C     0.83553   0.24902   0.47301   0.00000  Uiso   1.00
C189   C     0.73486   0.25212   0.23820   0.00000  Uiso   1.00
C190   C     0.93181   0.24764   0.26194   0.00000  Uiso   1.00
C191   C     0.68050   0.26063   0.23443   0.00000  Uiso   1.00
C192   C     0.98635   0.23980   0.26645   0.00000  Uiso   1.00
C193   C     0.79222   0.04969   0.26235   0.00000  Uiso   1.00
C194   C     0.85328   0.45171   0.21398   0.00000  Uiso   1.00
C195   C     0.79399   0.09545   0.26265   0.00000  Uiso   1.00
C196   C     0.85210   0.40589   0.21421   0.00000  Uiso   1.00
C197   C     0.83674   0.11714   0.24932   0.00000  Uiso   1.00
C198   C     0.82896   0.38353   0.24987   0.00000  Uiso   1.00
C199   C     0.87923   0.09258   0.23617   0.00000  Uiso   1.00
C200   C     0.80542   0.40802   0.28514   0.00000  Uiso   1.00
C201   C     0.87742   0.04642   0.23780   0.00000  Uiso   1.00
C202   C     0.80898   0.45403   0.28573   0.00000  Uiso   1.00
C203   C     0.83401   0.02478   0.25017   0.00000  Uiso   1.00
C204   C     0.83234   0.47615   0.25010   0.00000  Uiso   1.00
Cu205  Cu    0.83333   0.24999   0.29821   0.00000  Uiso   1.00
Cu206  Cu    0.83333   0.25000   0.20178   0.00000  Uiso   1.00
H207   H     0.75783   0.03389   0.27112   0.00000  Uiso   1.00
H208   H     0.87051   0.46798   0.18537   0.00000  Uiso   1.00
H209   H     0.76138   0.11411   0.27245   0.00000  Uiso   1.00
H210   H     0.86988   0.38786   0.18663   0.00000  Uiso   1.00
H211   H     0.91000   0.02709   0.22920   0.00000  Uiso   1.00
H212   H     0.79243   0.47274   0.31357   0.00000  Uiso   1.00
H213   H     0.87776   0.30777   0.13165   0.00000  Uiso   1.00
H214   H     0.87847   0.19218   0.37824   0.00000  Uiso   1.00
H215   H     0.78877   0.19217   0.11769   0.00000  Uiso   1.00
H216   H     0.78581   0.30645   0.37235   0.00000  Uiso   1.00
H217   H     0.78995   0.19127   0.02862   0.00000  Uiso   1.00
H218   H     0.78687   0.30690   0.46145   0.00000  Uiso   1.00
N219   N     0.83333   0.25001   0.12934   0.00000  Uiso   1.00
N220   N     0.83333   0.24999   0.37065   0.00000  Uiso   1.00
O221   O     0.83334   0.18572   0.29071   0.00000  Uiso   1.00
O222   O     0.83333   0.31427   0.20928   0.00000  Uiso   1.00
O223   O     0.83334   0.18573   0.20928   0.00000  Uiso   1.00
O224   O     0.83333   0.31427   0.29072   0.00000  Uiso   1.00
O225   O     0.75828   0.24999   0.28132   0.00000  Uiso   1.00
O226   O     0.90839   0.25000   0.21868   0.00000  Uiso   1.00
O227   O     0.75828   0.25000   0.19988   0.00000  Uiso   1.00
O228   O     0.90839   0.25000   0.30011   0.00000  Uiso   1.00
C229   C     0.99091   0.29707   0.19952   0.00000  Uiso   1.00
C230   C     0.69608   0.33006   0.18297   0.00000  Uiso   1.00
C231   C     0.66892   0.37005   0.15808   0.00000  Uiso   1.00
H232   H     0.97635   0.35931   0.12558   0.00000  Uiso   1.00
H233   H     0.97976   0.38804   0.18358   0.00000  Uiso   1.00
H234   H     0.69765   0.39292   0.14625   0.00000  Uiso   1.00
H235   H     0.72221   0.34187   0.21477   0.00000  Uiso   1.00
H236   H     0.71899   0.31401   0.15650   0.00000  Uiso   1.00
H237   H     0.97009   0.28135   0.16657   0.00000  Uiso   1.00
H238   H     0.96324   0.31694   0.21819   0.00000  Uiso   1.00
C239   C     0.67674   0.20412   0.30219   0.00000  Uiso   1.00
C240   C     0.97303   0.17691   0.32860   0.00000  Uiso   1.00
C241   C     0.99961   0.13644   0.35309   0.00000  Uiso   1.00
H242   H     0.67998   0.11395   0.32542   0.00000  Uiso   1.00
H243   H     0.69927   0.14664   0.37957   0.00000  Uiso   1.00
H244   H     0.97220   0.11821   0.37284   0.00000  Uiso   1.00
H245   H     0.95901   0.19779   0.35740   0.00000  Uiso   1.00
H246   H     0.94011   0.16564   0.30293   0.00000  Uiso   1.00
H247   H     0.69888   0.18069   0.28149   0.00000  Uiso   1.00
H248   H     0.70307   0.22008   0.33143   0.00000  Uiso   1.00
C249   C     0.92639   0.11304   0.22171   0.00000  Uiso   1.00
O250   O     0.92540   0.15024   0.20481   0.00000  Uiso   1.00
O251   O     0.97239   0.08908   0.22683   0.00000  Uiso   1.00
H252   H     0.66848   0.10636   0.21611   0.00000  Uiso   1.00
C253   C     0.77410   0.38759   0.31983   0.00000  Uiso   1.00
O254   O     0.74473   0.35769   0.30642   0.00000  Uiso   1.00
O255   O     0.77628   0.40416   0.36736   0.00000  Uiso   1.00
H256   H     0.75261   0.38805   0.38741   0.00000  Uiso   1.00
C257   C     0.88858   0.32038   0.03757   0.00000  Uiso   1.00
O258   O     0.90877   0.31496   0.00041   0.00000  Uiso   1.00
O259   O     0.89285   0.36106   0.06194   0.00000  Uiso   1.00
H260   H     0.91320   0.38326   0.04512   0.00000  Uiso   1.00
C261   C     0.89388   0.18089   0.47504   0.00000  Uiso   1.00
O262   O     0.90954   0.18500   0.01827   0.00000  Uiso   1.00
O263   O     0.90726   0.14314   0.44979   0.00000  Uiso   1.00
H264   H     0.92950   0.12181   0.47129   0.00000  Uiso   1.00
C265   C     0.16875   0.66513   0.24997   0.00000  Uiso   1.00
C266   C     0.16479   0.83511   0.24997   0.00000  Uiso   1.00
C267   C     0.19349   0.78396   0.05752   0.00000  Uiso   1.00
C268   C     0.19532   0.71608   0.44868   0.00000  Uiso   1.00
C269   C     0.19162   0.78274   0.10842   0.00000  Uiso   1.00
C270   C     0.19259   0.71733   0.39725   0.00000  Uiso   1.00
C271   C     0.14224   0.71779   0.10099   0.00000  Uiso   1.00
C272   C     0.14069   0.78139   0.39351   0.00000  Uiso   1.00
C273   C     0.14294   0.71732   0.05023   0.00000  Uiso   1.00
C274   C     0.14125   0.78145   0.44439   0.00000  Uiso   1.00
C275   C     0.16887   0.75024   0.02757   0.00000  Uiso   1.00
C276   C     0.16886   0.74902   0.47301   0.00000  Uiso   1.00
C277   C     0.06819   0.75212   0.23820   0.00000  Uiso   1.00
C278   C     0.26515   0.74764   0.26194   0.00000  Uiso   1.00
C279   C     0.01383   0.76063   0.23443   0.00000  Uiso   1.00
C280   C     0.31969   0.73980   0.26645   0.00000  Uiso   1.00
C281   C     0.12555   0.54969   0.26235   0.00000  Uiso   1.00
C282   C     0.18661   0.95171   0.21398   0.00000  Uiso   1.00
C283   C     0.12732   0.59545   0.26265   0.00000  Uiso   1.00
C284   C     0.18543   0.90589   0.21421   0.00000  Uiso   1.00
C285   C     0.17008   0.61714   0.24932   0.00000  Uiso   1.00
C286   C     0.16229   0.88353   0.24987   0.00000  Uiso   1.00
C287   C     0.21256   0.59258   0.23617   0.00000  Uiso   1.00
C288   C     0.13875   0.90802   0.28514   0.00000  Uiso   1.00
C289   C     0.21075   0.54642   0.23780   0.00000  Uiso   1.00
C290   C     0.14231   0.95403   0.28573   0.00000  Uiso   1.00
C291   C     0.16734   0.52478   0.25017   0.00000  Uiso   1.00
C292   C     0.16567   0.97615   0.25010   0.00000  Uiso   1.00
Cu293  Cu    0.16667   0.74999   0.29821   0.00000  Uiso   1.00
Cu294  Cu    0.16667   0.75000   0.20178   0.00000  Uiso   1.00
H295   H     0.09117   0.53389   0.27112   0.00000  Uiso   1.00
H296   H     0.20384   0.96798   0.18537   0.00000  Uiso   1.00
H297   H     0.09472   0.61411   0.27245   0.00000  Uiso   1.00
H298   H     0.20321   0.88786   0.18663   0.00000  Uiso   1.00
H299   H     0.24333   0.52709   0.22920   0.00000  Uiso   1.00
H300   H     0.12577   0.97274   0.31357   0.00000  Uiso   1.00
H301   H     0.21110   0.80777   0.13165   0.00000  Uiso   1.00
H302   H     0.21181   0.69218   0.37824   0.00000  Uiso   1.00
H303   H     0.12210   0.69217   0.11769   0.00000  Uiso   1.00
H304   H     0.11914   0.80645   0.37235   0.00000  Uiso   1.00
H305   H     0.12328   0.69127   0.02862   0.00000  Uiso   1.00
H306   H     0.12021   0.80690   0.46145   0.00000  Uiso   1.00
N307   N     0.16667   0.75001   0.12934   0.00000  Uiso   1.00
N308   N     0.16667   0.74999   0.37065   0.00000  Uiso   1.00
O309   O     0.16667   0.68572   0.29071   0.00000  Uiso   1.00
O310   O     0.16666   0.81427   0.20928   0.00000  Uiso   1.00
O311   O     0.16667   0.68573   0.20928   0.00000  Uiso   1.00
O312   O     0.16666   0.81427   0.29072   0.00000  Uiso   1.00
O313   O     0.09161   0.74999   0.28132   0.00000  Uiso   1.00
O314   O     0.24172   0.75000   0.21868   0.00000  Uiso   1.00
O315   O     0.09161   0.75000   0.19988   0.00000  Uiso   1.00
O316   O     0.24172   0.75000   0.30011   0.00000  Uiso   1.00
C317   C     0.32424   0.79707   0.19952   0.00000  Uiso   1.00
C318   C     0.02942   0.83006   0.18297   0.00000  Uiso   1.00
C319   C     0.00225   0.87005   0.15808   0.00000  Uiso   1.00
H320   H     0.30968   0.85931   0.12558   0.00000  Uiso   1.00
H321   H     0.31309   0.88804   0.18358   0.00000  Uiso   1.00
H322   H     0.03098   0.89292   0.14625   0.00000  Uiso   1.00
H323   H     0.05554   0.84187   0.21477   0.00000  Uiso   1.00
H324   H     0.05232   0.81401   0.15650   0.00000  Uiso   1.00
H325   H     0.30342   0.78135   0.16657   0.00000  Uiso   1.00
H326   H     0.29657   0.81694   0.21819   0.00000  Uiso   1.00
C327   C     0.01007   0.70412   0.30219   0.00000  Uiso   1.00
C328   C     0.30636   0.67691   0.32860   0.00000  Uiso   1.00
C329   C     0.33295   0.63644   0.35309   0.00000  Uiso   1.00
H330   H     0.01331   0.61395   0.32542   0.00000  Uiso   1.00
H331   H     0.03260   0.64664   0.37957   0.00000  Uiso   1.00
H332   H     0.30554   0.61821   0.37284   0.00000  Uiso   1.00
H333   H     0.29234   0.69779   0.35740   0.00000  Uiso   1.00
H334   H     0.27344   0.66564   0.30293   0.00000  Uiso   1.00
H335   H     0.03222   0.68069   0.28149   0.00000  Uiso   1.00
H336   H     0.03641   0.72008   0.33143   0.00000  Uiso   1.00
C337   C     0.25972   0.61304   0.22171   0.00000  Uiso   1.00
O338   O     0.25873   0.65024   0.20481   0.00000  Uiso   1.00
O339   O     0.30573   0.58908   0.22683   0.00000  Uiso   1.00
H340   H     0.00182   0.60636   0.21611   0.00000  Uiso   1.00
C341   C     0.10744   0.88759   0.31983   0.00000  Uiso   1.00
O342   O     0.07807   0.85769   0.30642   0.00000  Uiso   1.00
O343   O     0.10961   0.90416   0.36736   0.00000  Uiso   1.00
H344   H     0.08595   0.88805   0.38741   0.00000  Uiso   1.00
C345   C     0.22191   0.82038   0.03757   0.00000  Uiso   1.00
O346   O     0.24210   0.81496   0.00041   0.00000  Uiso   1.00
O347   O     0.22618   0.86106   0.06194   0.00000  Uiso   1.00
H348   H     0.24654   0.88326   0.04512   0.00000  Uiso   1.00
C349   C     0.22721   0.68089   0.47504   0.00000  Uiso   1.00
O350   O     0.24287   0.68500   0.01827   0.00000  Uiso   1.00
O351   O     0.24059   0.64314   0.44979   0.00000  Uiso   1.00
H352   H     0.26283   0.62181   0.47129   0.00000  Uiso   1.00
C353   C     0.50208   0.66513   0.24997   0.00000  Uiso   1.00
C354   C     0.49812   0.83511   0.24997   0.00000  Uiso   1.00
C355   C     0.52682   0.78396   0.05752   0.00000  Uiso   1.00
C356   C     0.52865   0.71608   0.44868   0.00000  Uiso   1.00
C357   C     0.52495   0.78274   0.10842   0.00000  Uiso   1.00
C358   C     0.52592   0.71733   0.39725   0.00000  Uiso   1.00
C359   C     0.47558   0.71779   0.10099   0.00000  Uiso   1.00
C360   C     0.47403   0.78139   0.39351   0.00000  Uiso   1.00
C361   C     0.47627   0.71732   0.05023   0.00000  Uiso   1.00
C362   C     0.47458   0.78145   0.44439   0.00000  Uiso   1.00
C363   C     0.50220   0.75024   0.02757   0.00000  Uiso   1.00
C364   C     0.50219   0.74902   0.47301   0.00000  Uiso   1.00
C365   C     0.40153   0.75212   0.23820   0.00000  Uiso   1.00
C366   C     0.59848   0.74764   0.26194   0.00000  Uiso   1.00
C367   C     0.34716   0.76063   0.23443   0.00000  Uiso   1.00
C368   C     0.65302   0.73980   0.26645   0.00000  Uiso   1.00
C369   C     0.45889   0.54969   0.26235   0.00000  Uiso   1.00
C370   C     0.51995   0.95171   0.21398   0.00000  Uiso   1.00
C371   C     0.46065   0.59545   0.26265   0.00000  Uiso   1.00
C372   C     0.51876   0.90589   0.21421   0.00000  Uiso   1.00
C373   C     0.50341   0.61714   0.24932   0.00000  Uiso   1.00
C374   C     0.49563   0.88353   0.24987   0.00000  Uiso   1.00
C375   C     0.54590   0.59258   0.23617   0.00000  Uiso   1.00
C376   C     0.47208   0.90802   0.28514   0.00000  Uiso   1.00
C377   C     0.54409   0.54642   0.23780   0.00000  Uiso   1.00
C378   C     0.47565   0.95403   0.28573   0.00000  Uiso   1.00
C379   C     0.50067   0.52478   0.25017   0.00000  Uiso   1.00
C380   C     0.49901   0.97615   0.25010   0.00000  Uiso   1.00
Cu381  Cu    0.50000   0.74999   0.29821   0.00000  Uiso   1.00
Cu382  Cu    0.50000   0.75000   0.20178   0.00000  Uiso   1.00
H383   H     0.42450   0.53389   0.27112   0.00000  Uiso   1.00
H384   H     0.53718   0.96798   0.18537   0.00000  Uiso   1.00
H385   H     0.42805   0.61411   0.27245   0.00000  Uiso   1.00
H386   H     0.53654   0.88786   0.18663   0.00000  Uiso   1.00
H387   H     0.57666   0.52709   0.22920   0.00000  Uiso   1.00
H388   H     0.45910   0.97274   0.31357   0.00000  Uiso   1.00
H389   H     0.54443   0.80777   0.13165   0.00000  Uiso   1.00
H390   H     0.54514   0.69218   0.37824   0.00000  Uiso   1.00
H391   H     0.45544   0.69217   0.11769   0.00000  Uiso   1.00
H392   H     0.45247   0.80645   0.37235   0.00000  Uiso   1.00
H393   H     0.45662   0.69127   0.02862   0.00000  Uiso   1.00
H394   H     0.45354   0.80690   0.46145   0.00000  Uiso   1.00
N395   N     0.50000   0.75001   0.12934   0.00000  Uiso   1.00
N396   N     0.50000   0.74999   0.37065   0.00000  Uiso   1.00
O397   O     0.50000   0.68572   0.29071   0.00000  Uiso   1.00
O398   O     0.50000   0.81427   0.20928   0.00000  Uiso   1.00
O399   O     0.50000   0.68573   0.20928   0.00000  Uiso   1.00
O400   O     0.50000   0.81427   0.29072   0.00000  Uiso   1.00
O401   O     0.42495   0.74999   0.28132   0.00000  Uiso   1.00
O402   O     0.57505   0.75000   0.21868   0.00000  Uiso   1.00
O403   O     0.42495   0.75000   0.19988   0.00000  Uiso   1.00
O404   O     0.57505   0.75000   0.30011   0.00000  Uiso   1.00
C405   C     0.65757   0.79707   0.19952   0.00000  Uiso   1.00
C406   C     0.36275   0.83006   0.18297   0.00000  Uiso   1.00
C407   C     0.33558   0.87005   0.15808   0.00000  Uiso   1.00
H408   H     0.64302   0.85931   0.12558   0.00000  Uiso   1.00
H409   H     0.64643   0.88804   0.18358   0.00000  Uiso   1.00
H410   H     0.36432   0.89292   0.14625   0.00000  Uiso   1.00
H411   H     0.38888   0.84187   0.21477   0.00000  Uiso   1.00
H412   H     0.38566   0.81401   0.15650   0.00000  Uiso   1.00
H413   H     0.63676   0.78135   0.16657   0.00000  Uiso   1.00
H414   H     0.62991   0.81694   0.21819   0.00000  Uiso   1.00
C415   C     0.34341   0.70412   0.30219   0.00000  Uiso   1.00
C416   C     0.63970   0.67691   0.32860   0.00000  Uiso   1.00
C417   C     0.66628   0.63644   0.35309   0.00000  Uiso   1.00
H418   H     0.34664   0.61395   0.32542   0.00000  Uiso   1.00
H419   H     0.36593   0.64664   0.37957   0.00000  Uiso   1.00
H420   H     0.63887   0.61821   0.37284   0.00000  Uiso   1.00
H421   H     0.62568   0.69779   0.35740   0.00000  Uiso   1.00
H422   H     0.60677   0.66564   0.30293   0.00000  Uiso   1.00
H423   H     0.36555   0.68069   0.28149   0.00000  Uiso   1.00
H424   H     0.36974   0.72008   0.33143   0.00000  Uiso   1.00
C425   C     0.59306   0.61304   0.22171   0.00000  Uiso   1.00
O426   O     0.59206   0.65024   0.20481   0.00000  Uiso   1.00
O427   O     0.63906   0.58908   0.22683   0.00000  Uiso   1.00
H428   H     0.33515   0.60636   0.21611   0.00000  Uiso   1.00
C429   C     0.44077   0.88759   0.31983   0.00000  Uiso   1.00
O430   O     0.41140   0.85769   0.30642   0.00000  Uiso   1.00
O431   O     0.44295   0.90416   0.36736   0.00000  Uiso   1.00
H432   H     0.41928   0.88805   0.38741   0.00000  Uiso   1.00
C433   C     0.55524   0.82038   0.03757   0.00000  Uiso   1.00
O434   O     0.57544   0.81496   0.00041   0.00000  Uiso   1.00
O435   O     0.55952   0.86106   0.06194   0.00000  Uiso   1.00
H436   H     0.57987   0.88326   0.04512   0.00000  Uiso   1.00
C437   C     0.56055   0.68089   0.47504   0.00000  Uiso   1.00
O438   O     0.57621   0.68500   0.01827   0.00000  Uiso   1.00
O439   O     0.57393   0.64314   0.44979   0.00000  Uiso   1.00
H440   H     0.59617   0.62181   0.47129   0.00000  Uiso   1.00
C441   C     0.83542   0.66513   0.24997   0.00000  Uiso   1.00
C442   C     0.83145   0.83511   0.24997   0.00000  Uiso   1.00
C443   C     0.86015   0.78396   0.05752   0.00000  Uiso   1.00
C444   C     0.86198   0.71608   0.44868   0.00000  Uiso   1.00
C445   C     0.85829   0.78274   0.10842   0.00000  Uiso   1.00
C446   C     0.85925   0.71733   0.39725   0.00000  Uiso   1.00
C447   C     0.80891   0.71779   0.10099   0.00000  Uiso   1.00
C448   C     0.80736   0.78139   0.39351   0.00000  Uiso   1.00
C449   C     0.80960   0.71732   0.05023   0.00000  Uiso   1.00
C450   C     0.80791   0.78145   0.44439   0.00000  Uiso   1.00
C451   C     0.83554   0.75024   0.02757   0.00000  Uiso   1.00
C452   C     0.83553   0.74902   0.47301   0.00000  Uiso   1.00
C453   C     0.73486   0.75212   0.23820   0.00000  Uiso   1.00
C454   C     0.93181   0.74764   0.26194   0.00000  Uiso   1.00
C455   C     0.68050   0.76063   0.23443   0.00000  Uiso   1.00
C456   C     0.98635   0.73980   0.26645   0.00000  Uiso   1.00
C457   C     0.79222   0.54969   0.26235   0.00000  Uiso   1.00
C458   C     0.85328   0.95171   0.21398   0.00000  Uiso   1.00
C459   C     0.79399   0.59545   0.26265   0.00000  Uiso   1.00
C460   C     0.85210   0.90589   0.21421   0.00000  Uiso   1.00
C461   C     0.83674   0.61714   0.24932   0.00000  Uiso   1.00
C462   C     0.82896   0.88353   0.24987   0.00000  Uiso   1.00
C463   C     0.87923   0.59258   0.23617   0.00000  Uiso   1.00
C464   C     0.80542   0.90802   0.28514   0.00000  Uiso   1.00
C465   C     0.87742   0.54642   0.23780   0.00000  Uiso   1.00
C466   C     0.80898   0.95403   0.28573   0.00000  Uiso   1.00
C467   C     0.83401   0.52478   0.25017   0.00000  Uiso   1.00
C468   C     0.83234   0.97615   0.25010   0.00000  Uiso   1.00
Cu469  Cu    0.83333   0.74999   0.29821   0.00000  Uiso   1.00
Cu470  Cu    0.83333   0.75000   0.20178   0.00000  Uiso   1.00
H471   H     0.75783   0.53389   0.27112   0.00000  Uiso   1.00
H472   H     0.87051   0.96798   0.18537   0.00000  Uiso   1.00
H473   H     0.76138   0.61411   0.27245   0.00000  Uiso   1.00
H474   H     0.86988   0.88786   0.18663   0.00000  Uiso   1.00
H475   H     0.91000   0.52709   0.22920   0.00000  Uiso   1.00
H476   H     0.79243   0.97274   0.31357   0.00000  Uiso   1.00
H477   H     0.87776   0.80777   0.13165   0.00000  Uiso   1.00
H478   H     0.87847   0.69218   0.37824   0.00000  Uiso   1.00
H479   H     0.78877   0.69217   0.11769   0.00000  Uiso   1.00
H480   H     0.78581   0.80645   0.37235   0.00000  Uiso   1.00
H481   H     0.78995   0.69127   0.02862   0.00000  Uiso   1.00
H482   H     0.78687   0.80690   0.46145   0.00000  Uiso   1.00
N483   N     0.83333   0.75001   0.12934   0.00000  Uiso   1.00
N484   N     0.83333   0.74999   0.37065   0.00000  Uiso   1.00
O485   O     0.83334   0.68572   0.29071   0.00000  Uiso   1.00
O486   O     0.83333   0.81427   0.20928   0.00000  Uiso   1.00
O487   O     0.83334   0.68573   0.20928   0.00000  Uiso   1.00
O488   O     0.83333   0.81427   0.29072   0.00000  Uiso   1.00
O489   O     0.75828   0.74999   0.28132   0.00000  Uiso   1.00
O490   O     0.90839   0.75000   0.21868   0.00000  Uiso   1.00
O491   O     0.75828   0.75000   0.19988   0.00000  Uiso   1.00
O492   O     0.90839   0.75000   0.30011   0.00000  Uiso   1.00
C493   C     0.99091   0.79707   0.19952   0.00000  Uiso   1.00
C494   C     0.69608   0.83006   0.18297   0.00000  Uiso   1.00
C495   C     0.66892   0.87005   0.15808   0.00000  Uiso   1.00
H496   H     0.97635   0.85931   0.12558   0.00000  Uiso   1.00
H497   H     0.97976   0.88804   0.18358   0.00000  Uiso   1.00
H498   H     0.69765   0.89292   0.14625   0.00000  Uiso   1.00
H499   H     0.72221   0.84187   0.21477   0.00000  Uiso   1.00
H500   H     0.71899   0.81401   0.15650   0.00000  Uiso   1.00
H501   H     0.97009   0.78135   0.16657   0.00000  Uiso   1.00
H502   H     0.96324   0.81694   0.21819   0.00000  Uiso   1.00
C503   C     0.67674   0.70412   0.30219   0.00000  Uiso   1.00
C504   C     0.97303   0.67691   0.32860   0.00000  Uiso   1.00
C505   C     0.99961   0.63644   0.35309   0.00000  Uiso   1.00
H506   H     0.67998   0.61395   0.32542   0.00000  Uiso   1.00
H507   H     0.69927   0.64664   0.37957   0.00000  Uiso   1.00
H508   H     0.97220   0.61821   0.37284   0.00000  Uiso   1.00
H509   H     0.95901   0.69779   0.35740   0.00000  Uiso   1.00
H510   H     0.94011   0.66564   0.30293   0.00000  Uiso   1.00
H511   H     0.69888   0.68069   0.28149   0.00000  Uiso   1.00
H512   H     0.70307   0.72008   0.33143   0.00000  Uiso   1.00
C513   C     0.92639   0.61304   0.22171   0.00000  Uiso   1.00
O514   O     0.92540   0.65024   0.20481   0.00000  Uiso   1.00
O515   O     0.97239   0.58908   0.22683   0.00000  Uiso   1.00
H516   H     0.66848   0.60636   0.21611   0.00000  Uiso   1.00
C517   C     0.77410   0.88759   0.31983   0.00000  Uiso   1.00
O518   O     0.74473   0.85769   0.30642   0.00000  Uiso   1.00
O519   O     0.77628   0.90416   0.36736   0.00000  Uiso   1.00
H520   H     0.75261   0.88805   0.38741   0.00000  Uiso   1.00
C521   C     0.88858   0.82038   0.03757   0.00000  Uiso   1.00
O522   O     0.90877   0.81496   0.00041   0.00000  Uiso   1.00
O523   O     0.89285   0.86106   0.06194   0.00000  Uiso   1.00
H524   H     0.91320   0.88326   0.04512   0.00000  Uiso   1.00
C525   C     0.89388   0.68089   0.47504   0.00000  Uiso   1.00
O526   O     0.90954   0.68500   0.01827   0.00000  Uiso   1.00
O527   O     0.90726   0.64314   0.44979   0.00000  Uiso   1.00
H528   H     0.92950   0.62181   0.47129   0.00000  Uiso   1.00
C529   C     0.16875   0.16513   0.74997   0.00000  Uiso   1.00
C530   C     0.16479   0.33511   0.74997   0.00000  Uiso   1.00
C531   C     0.19349   0.28396   0.55752   0.00000  Uiso   1.00
C532   C     0.19532   0.21608   0.94868   0.00000  Uiso   1.00
C533   C     0.19162   0.28274   0.60842   0.00000  Uiso   1.00
C534   C     0.19259   0.21733   0.89725   0.00000  Uiso   1.00
C535   C     0.14224   0.21779   0.60099   0.00000  Uiso   1.00
C536   C     0.14069   0.28139   0.89351   0.00000  Uiso   1.00
C537   C     0.14294   0.21732   0.55023   0.00000  Uiso   1.00
C538   C     0.14125   0.28145   0.94439   0.00000  Uiso   1.00
C539   C     0.16887   0.25024   0.52757   0.00000  Uiso   1.00
C540   C     0.16886   0.24902   0.97301   0.00000  Uiso   1.00
C541   C     0.06819   0.25212   0.73820   0.00000  Uiso   1.00
C542   C     0.26515   0.24764   0.76194   0.00000  Uiso   1.00
C543   C     0.01383   0.26063   0.73443   0.00000  Uiso   1.00
C544   C     0.31969   0.23980   0.76645   0.00000  Uiso   1.00
C545   C     0.12555   0.04969   0.76235   0.00000  Uiso   1.00
C546   C     0.18661   0.45171   0.71398   0.00000  Uiso   1.00
C547   C     0.12732   0.09545   0.76265   0.00000  Uiso   1.00
C548   C     0.18543   0.40589   0.71421   0.00000  Uiso   1.00
C549   C     0.17008   0.11714   0.74932   0.00000  Uiso   1.00
C550   C     0.16229   0.38353   0.74987   0.00000  Uiso   1.00
C551   C     0.21256   0.09258   0.73617   0.00000  Uiso   1.00
C552   C     0.13875   0.40802   0.78514   0.00000  Uiso   1.00
C553   C     0.21075   0.04642   0.73780   0.00000  Uiso   1.00
C554   C     0.14231   0.45403   0.78573   0.00000  Uiso   1.00
C555   C     0.16734   0.02478   0.75017   0.00000  Uiso   1.00
C556   C     0.16567   0.47615   0.75010   0.00000  Uiso   1.00
Cu557  Cu    0.16667   0.24999   0.79821   0.00000  Uiso   1.00
Cu558  Cu    0.16667   0.25000   0.70178   0.00000  Uiso   1.00
H559   H     0.09117   0.03389   0.77112   0.00000  Uiso   1.00
H560   H     0.20384   0.46798   0.68537   0.00000  Uiso   1.00
H561   H     0.09472   0.11411   0.77245   0.00000  Uiso   1.00
H562   H     0.20321   0.38786   0.68663   0.00000  Uiso   1.00
H563   H     0.24333   0.02709   0.72920   0.00000  Uiso   1.00
H564   H     0.12577   0.47274   0.81357   0.00000  Uiso   1.00
H565   H     0.21110   0.30777   0.63165   0.00000  Uiso   1.00
H566   H     0.21181   0.19218   0.87824   0.00000  Uiso   1.00
H567   H     0.12210   0.19217   0.61769   0.00000  Uiso   1.00
H568   H     0.11914   0.30645   0.87235   0.00000  Uiso   1.00
H569   H     0.12328   0.19127   0.52862   0.00000  Uiso   1.00
H570   H     0.12021   0.30690   0.96145   0.00000  Uiso   1.00
N571   N     0.16667   0.25001   0.62934   0.00000  Uiso   1.00
N572   N     0.16667   0.24999   0.87065   0.00000  Uiso   1.00
O573   O     0.16667   0.18572   0.79071   0.00000  Uiso   1.00
O574   O     0.16666   0.31427   0.70928   0.00000  Uiso   1.00
O575   O     0.16667   0.18573   0.70928   0.00000  Uiso   1.00
O576   O     0.16666   0.31427   0.79072   0.00000  Uiso   1.00
O577   O     0.09161   0.24999   0.78132   0.00000  Uiso   1.00
O578   O     0.24172   0.25000   0.71868   0.00000  Uiso   1.00
O579   O     0.09161   0.25000   0.69988   0.00000  Uiso   1.00
O580   O     0.24172   0.25000   0.80011   0.00000  Uiso   1.00
C581   C     0.32424   0.29707   0.69952   0.00000  Uiso   1.00
C582   C     0.02942   0.33006   0.68297   0.00000  Uiso   1.00
C583   C     0.00225   0.37005   0.65808   0.00000  Uiso   1.00
H584   H     0.30968   0.35931   0.62558   0.00000  Uiso   1.00
H585   H     0.31309   0.38804   0.68358   0.00000  Uiso   1.00
H586   H     0.03098   0.39292   0.64625   0.00000  Uiso   1.00
H587   H     0.05554   0.34187   0.71477   0.00000  Uiso   1.00
H588   H     0.05232   0.31401   0.65650   0.00000  Uiso   1.00
H589   H     0.30342   0.28135   0.66657   0.00000  Uiso   1.00
H590   H     0.29657   0.31694   0.71819   0.00000  Uiso   1.00
C591   C     0.01007   0.20412   0.80219   0.00000  Uiso   1.00
C592   C     0.30636   0.17691   0.82860   0.00000  Uiso   1.00
C593   C     0.33295   0.13644   0.85309   0.00000  Uiso   1.00
H594   H     0.01331   0.11395   0.82542   0.00000  Uiso   1.00
H595   H     0.03260   0.14664   0.87957   0.00000  Uiso   1.00
H596   H     0.30554   0.11821   0.87284   0.00000  Uiso   1.00
H597   H     0.29234   0.19779   0.85740   0.00000  Uiso   1.00
H598   H     0.27344   0.16564   0.80293   0.00000  Uiso   1.00
H599   H     0.03222   0.18069   0.78149   0.00000  Uiso   1.00
H600   H     0.03641   0.22008   0.83143   0.00000  Uiso   1.00
C601   C     0.25972   0.11304   0.72171   0.00000  Uiso   1.00
O602   O     0.25873   0.15024   0.70481   0.00000  Uiso   1.00
O603   O     0.30573   0.08908   0.72683   0.00000  Uiso   1.00
H604   H     0.00182   0.10636   0.71611   0.00000  Uiso   1.00
C605   C     0.10744   0.38759   0.81983   0.00000  Uiso   1.00
O606   O     0.07807   0.35769   0.80642   0.00000  Uiso   1.00
O607   O     0.10961   0.40416   0.86736   0.00000  Uiso   1.00
H608   H     0.08595   0.38805   0.88741   0.00000  Uiso   1.00
C609   C     0.22191   0.32038   0.53757   0.00000  Uiso   1.00
O610   O     0.24210   0.31496   0.50041   0.00000  Uiso   1.00
O611   O     0.22618   0.36106   0.56194   0.00000  Uiso   1.00
H612   H     0.24654   0.38326   0.54512   0.00000  Uiso   1.00
C613   C     0.22721   0.18089   0.97504   0.00000  Uiso   1.00
O614   O     0.24287   0.18500   0.51827   0.00000  Uiso   1.00
O615   O     0.24059   0.14314   0.94979   0.00000  Uiso   1.00
H616   H     0.26283   0.12181   0.97129   0.00000  Uiso   1.00
C617   C     0.50208   0.16513   0.74997   0.00000  Uiso   1.00
C618   C     0.49812   0.33511   0.74997   0.00000  Uiso   1.00
C619   C     0.52682   0.28396   0.55752   0.00000  Uiso   1.00
C620   C     0.52865   0.21608   0.94868   0.00000  Uiso   1.00
C621   C     0.52495   0.28274   0.60842   0.00000  Uiso   1.00
C622   C     0.52592   0.21733   0.89725   0.00000  Uiso   1.00
C623   C     0.47558   0.21779   0.60099   0.00000  Uiso   1.00
C624   C     0.47403   0.28139   0.89351   0.00000  Uiso   1.00
C625   C     0.47627   0.21732   0.55023   0.00000  Uiso   1.00
C626   C     0.47458   0.28145   0.94439   0.00000  Uiso   1.00
C627   C     0.50220   0.25024   0.52757   0.00000  Uiso   1.00
C628   C     0.50219   0.24902   0.97301   0.00000  Uiso   1.00
C629   C     0.40153   0.25212   0.73820   0.00000  Uiso   1.00
C630   C     0.59848   0.24764   0.76194   0.00000  Uiso   1.00
C631   C     0.34716   0.26063   0.73443   0.00000  Uiso   1.00
C632   C     0.65302   0.23980   0.76645   0.00000  Uiso   1.00
C633   C     0.45889   0.04969   0.76235   0.00000  Uiso   1.00
C634   C     0.51995   0.45171   0.71398   0.00000  Uiso   1.00
C635   C     0.46065   0.09545   0.76265   0.00000  Uiso   1.00
C636   C     0.51876   0.40589   0.71421   0.00000  Uiso   1.00
C637   C     0.50341   0.11714   0.74932   0.00000  Uiso   1.00
C638   C     0.49563   0.38353   0.74987   0.00000  Uiso   1.00
C639   C     0.54590   0.09258   0.73617   0.00000  Uiso   1.00
C640   C     0.47208   0.40802   0.78514   0.00000  Uiso   1.00
C641   C     0.54409   0.04642   0.73780   0.00000  Uiso   1.00
C642   C     0.47565   0.45403   0.78573   0.00000  Uiso   1.00
C643   C     0.50067   0.02478   0.75017   0.00000  Uiso   1.00
C644   C     0.49901   0.47615   0.75010   0.00000  Uiso   1.00
Cu645  Cu    0.50000   0.24999   0.79821   0.00000  Uiso   1.00
Cu646  Cu    0.50000   0.25000   0.70178   0.00000  Uiso   1.00
H647   H     0.42450   0.03389   0.77112   0.00000  Uiso   1.00
H648   H     0.53718   0.46798   0.68537   0.00000  Uiso   1.00
H649   H     0.42805   0.11411   0.77245   0.00000  Uiso   1.00
H650   H     0.53654   0.38786   0.68663   0.00000  Uiso   1.00
H651   H     0.57666   0.02709   0.72920   0.00000  Uiso   1.00
H652   H     0.45910   0.47274   0.81357   0.00000  Uiso   1.00
H653   H     0.54443   0.30777   0.63165   0.00000  Uiso   1.00
H654   H     0.54514   0.19218   0.87824   0.00000  Uiso   1.00
H655   H     0.45544   0.19217   0.61769   0.00000  Uiso   1.00
H656   H     0.45247   0.30645   0.87235   0.00000  Uiso   1.00
H657   H     0.45662   0.19127   0.52862   0.00000  Uiso   1.00
H658   H     0.45354   0.30690   0.96145   0.00000  Uiso   1.00
N659   N     0.50000   0.25001   0.62934   0.00000  Uiso   1.00
N660   N     0.50000   0.24999   0.87065   0.00000  Uiso   1.00
O661   O     0.50000   0.18572   0.79071   0.00000  Uiso   1.00
O662   O     0.50000   0.31427   0.70928   0.00000  Uiso   1.00
O663   O     0.50000   0.18573   0.70928   0.00000  Uiso   1.00
O664   O     0.50000   0.31427   0.79072   0.00000  Uiso   1.00
O665   O     0.42495   0.24999   0.78132   0.00000  Uiso   1.00
O666   O     0.57505   0.25000   0.71868   0.00000  Uiso   1.00
O667   O     0.42495   0.25000   0.69988   0.00000  Uiso   1.00
O668   O     0.57505   0.25000   0.80011   0.00000  Uiso   1.00
C669   C     0.65757   0.29707   0.69952   0.00000  Uiso   1.00
C670   C     0.36275   0.33006   0.68297   0.00000  Uiso   1.00
C671   C     0.33558   0.37005   0.65808   0.00000  Uiso   1.00
H672   H     0.64302   0.35931   0.62558   0.00000  Uiso   1.00
H673   H     0.64643   0.38804   0.68358   0.00000  Uiso   1.00
H674   H     0.36432   0.39292   0.64625   0.00000  Uiso   1.00
H675   H     0.38888   0.34187   0.71477   0.00000  Uiso   1.00
H676   H     0.38566   0.31401   0.65650   0.00000  Uiso   1.00
H677   H     0.63676   0.28135   0.66657   0.00000  Uiso   1.00
H678   H     0.62991   0.31694   0.71819   0.00000  Uiso   1.00
C679   C     0.34341   0.20412   0.80219   0.00000  Uiso   1.00
C680   C     0.63970   0.17691   0.82860   0.00000  Uiso   1.00
C681   C     0.66628   0.13644   0.85309   0.00000  Uiso   1.00
H682   H     0.34664   0.11395   0.82542   0.00000  Uiso   1.00
H683   H     0.36593   0.14664   0.87957   0.00000  Uiso   1.00
H684   H     0.63887   0.11821   0.87284   0.00000  Uiso   1.00
H685   H     0.62568   0.19779   0.85740   0.00000  Uiso   1.00
H686   H     0.60677   0.16564   0.80293   0.00000  Uiso   1.00
H687   H     0.36555   0.18069   0.78149   0.00000  Uiso   1.00
H688   H     0.36974   0.22008   0.83143   0.00000  Uiso   1.00
C689   C     0.59306   0.11304   0.72171   0.00000  Uiso   1.00
O690   O     0.59206   0.15024   0.70481   0.00000  Uiso   1.00
O691   O     0.63906   0.08908   0.72683   0.00000  Uiso   1.00
H692   H     0.33515   0.10636   0.71611   0.00000  Uiso   1.00
C693   C     0.44077   0.38759   0.81983   0.00000  Uiso   1.00
O694   O     0.41140   0.35769   0.80642   0.00000  Uiso   1.00
O695   O     0.44295   0.40416   0.86736   0.00000  Uiso   1.00
H696   H     0.41928   0.38805   0.88741   0.00000  Uiso   1.00
C697   C     0.55524   0.32038   0.53757   0.00000  Uiso   1.00
O698   O     0.57544   0.31496   0.50041   0.00000  Uiso   1.00
O699   O     0.55952   0.36106   0.56194   0.00000  Uiso   1.00
H700   H     0.57987   0.38326   0.54512   0.00000  Uiso   1.00
C701   C     0.56055   0.18089   0.97504   0.00000  Uiso   1.00
O702   O     0.57621   0.18500   0.51827   0.00000  Uiso   1.00
O703   O     0.57393   0.14314   0.94979   0.00000  Uiso   1.00
H704   H     0.59617   0.12181   0.97129   0.00000  Uiso   1.00
C705   C     0.83542   0.16513   0.74997   0.00000  Uiso   1.00
C706   C     0.83145   0.33511   0.74997   0.00000  Uiso   1.00
C707   C     0.86015   0.28396   0.55752   0.00000  Uiso   1.00
C708   C     0.86198   0.21608   0.94868   0.00000  Uiso   1.00
C709   C     0.85829   0.28274   0.60842   0.00000  Uiso   1.00
C710   C     0.85925   0.21733   0.89725   0.00000  Uiso   1.00
C711   C     0.80891   0.21779   0.60099   0.00000  Uiso   1.00
C712   C     0.80736   0.28139   0.89351   0.00000  Uiso   1.00
C713   C     0.80960   0.21732   0.55023   0.00000  Uiso   1.00
C714   C     0.80791   0.28145   0.94439   0.00000  Uiso   1.00
C715   C     0.83554   0.25024   0.52757   0.00000  Uiso   1.00
C716   C     0.83553   0.24902   0.97301   0.00000  Uiso   1.00
C717   C     0.73486   0.25212   0.73820   0.00000  Uiso   1.00
C718   C     0.93181   0.24764   0.76194   0.00000  Uiso   1.00
C719   C     0.68050   0.26063   0.73443   0.00000  Uiso   1.00
C720   C     0.98635   0.23980   0.76645   0.00000  Uiso   1.00
C721   C     0.79222   0.04969   0.76235   0.00000  Uiso   1.00
C722   C     0.85328   0.45171   0.71398   0.00000  Uiso   1.00
C723   C     0.79399   0.09545   0.76265   0.00000  Uiso   1.00
C724   C     0.85210   0.40589   0.71421   0.00000  Uiso   1.00
C725   C     0.83674   0.11714   0.74932   0.00000  Uiso   1.00
C726   C     0.82896   0.38353   0.74987   0.00000  Uiso   1.00
C727   C     0.87923   0.09258   0.73617   0.00000  Uiso   1.00
C728   C     0.80542   0.40802   0.78514   0.00000  Uiso   1.00
C729   C     0.87742   0.04642   0.73780   0.00000  Uiso   1.00
C730   C     0.80898   0.45403   0.78573   0.00000  Uiso   1.00
C731   C     0.83401   0.02478   0.75017   0.00000  Uiso   1.00
C732   C     0.83234   0.47615   0.75010   0.00000  Uiso   1.00
Cu733  Cu    0.83333   0.24999   0.79821   0.00000  Uiso   1.00
Cu734  Cu    0.83333   0.25000   0.70178   0.00000  Uiso   1.00
H735   H     0.75783   0.03389   0.77112   0.00000  Uiso   1.00
H736   H     0.87051   0.46798   0.68537   0.00000  Uiso   1.00
H737   H     0.76138   0.11411   0.77245   0.00000  Uiso   1.00
H738   H     0.86988   0.38786   0.68663   0.00000  Uiso   1.00
H739   H     0.91000   0.02709   0.72920   0.00000  Uiso   1.00
H740   H     0.79243   0.47274   0.81357   0.00000  Uiso   1.00
H741   H     0.87776   0.30777   0.63165   0.00000  Uiso   1.00
H742   H     0.87847   0.19218   0.87824   0.00000  Uiso   1.00
H743   H     0.78877   0.19217   0.61769   0.00000  Uiso   1.00
H744   H     0.78581   0.30645   0.87235   0.00000  Uiso   1.00
H745   H     0.78995   0.19127   0.52862   0.00000  Uiso   1.00
H746   H     0.78687   0.30690   0.96145   0.00000  Uiso   1.00
N747   N     0.83333   0.25001   0.62934   0.00000  Uiso   1.00
N748   N     0.83333   0.24999   0.87065   0.00000  Uiso   1.00
O749   O     0.83334   0.18572   0.79071   0.00000  Uiso   1.00
O750   O     0.83333   0.31427   0.70928   0.00000  Uiso   1.00
O751   O     0.83334   0.18573   0.70928   0.00000  Uiso   1.00
O752   O     0.83333   0.31427   0.79072   0.00000  Uiso   1.00
O753   O     0.75828   0.24999   0.78132   0.00000  Uiso   1.00
O754   O     0.90839   0.25000   0.71868   0.00000  Uiso   1.00
O755   O     0.75828   0.25000   0.69988   0.00000  Uiso   1.00
O756   O     0.90839   0.25000   0.80011   0.00000  Uiso   1.00
C757   C     0.99091   0.29707   0.69952   0.00000  Uiso   1.00
C758   C     0.69608   0.33006   0.68297   0.00000  Uiso   1.00
C759   C     0.66892   0.37005   0.65808   0.00000  Uiso   1.00
H760   H     0.97635   0.35931   0.62558   0.00000  Uiso   1.00
H761   H     0.97976   0.38804   0.68358   0.00000  Uiso   1.00
H762   H     0.69765   0.39292   0.64625   0.00000  Uiso   1.00
H763   H     0.72221   0.34187   0.71477   0.00000  Uiso   1.00
H764   H     0.71899   0.31401   0.65650   0.00000  Uiso   1.00
H765   H     0.97009   0.28135   0.66657   0.00000  Uiso   1.00
H766   H     0.96324   0.31694   0.71819   0.00000  Uiso   1.00
C767   C     0.67674   0.20412   0.80219   0.00000  Uiso   1.00
C768   C     0.97303   0.17691   0.82860   0.00000  Uiso   1.00
C769   C     0.99961   0.13644   0.85309   0.00000  Uiso   1.00
H770   H     0.67998   0.11395   0.82542   0.00000  Uiso   1.00
H771   H     0.69927   0.14664   0.87957   0.00000  Uiso   1.00
H772   H     0.97220   0.11821   0.87284   0.00000  Uiso   1.00
H773   H     0.95901   0.19779   0.85740   0.00000  Uiso   1.00
H774   H     0.94011   0.16564   0.80293   0.00000  Uiso   1.00
H775   H     0.69888   0.18069   0.78149   0.00000  Uiso   1.00
H776   H     0.70307   0.22008   0.83143   0.00000  Uiso   1.00
C777   C     0.92639   0.11304   0.72171   0.00000  Uiso   1.00
O778   O     0.92540   0.15024   0.70481   0.00000  Uiso   1.00
O779   O     0.97239   0.08908   0.72683   0.00000  Uiso   1.00
H780   H     0.66848   0.10636   0.71611   0.00000  Uiso   1.00
C781   C     0.77410   0.38759   0.81983   0.00000  Uiso   1.00
O782   O     0.74473   0.35769   0.80642   0.00000  Uiso   1.00
O783   O     0.77628   0.40416   0.86736   0.00000  Uiso   1.00
H784   H     0.75261   0.38805   0.88741   0.00000  Uiso   1.00
C785   C     0.88858   0.32038   0.53757   0.00000  Uiso   1.00
O786   O     0.90877   0.31496   0.50041   0.00000  Uiso   1.00
O787   O     0.89285   0.36106   0.56194   0.00000  Uiso   1.00
H788   H     0.91320   0.38326   0.54512   0.00000  Uiso   1.00
C789   C     0.89388   0.18089   0.97504   0.00000  Uiso   1.00
O790   O     0.90954   0.18500   0.51827   0.00000  Uiso   1.00
O791   O     0.90726   0.14314   0.94979   0.00000  Uiso   1.00
H792   H     0.92950   0.12181   0.97129   0.00000  Uiso   1.00
C793   C     0.16875   0.66513   0.74997   0.00000  Uiso   1.00
C794   C     0.16479   0.83511   0.74997   0.00000  Uiso   1.00
C795   C     0.19349   0.78396   0.55752   0.00000  Uiso   1.00
C796   C     0.19532   0.71608   0.94868   0.00000  Uiso   1.00
C797   C     0.19162   0.78274   0.60842   0.00000  Uiso   1.00
C798   C     0.19259   0.71733   0.89725   0.00000  Uiso   1.00
C799   C     0.14224   0.71779   0.60099   0.00000  Uiso   1.00
C800   C     0.14069   0.78139   0.89351   0.00000  Uiso   1.00
C801   C     0.14294   0.71732   0.55023   0.00000  Uiso   1.00
C802   C     0.14125   0.78145   0.94439   0.00000  Uiso   1.00
C803   C     0.16887   0.75024   0.52757   0.00000  Uiso   1.00
C804   C     0.16886   0.74902   0.97301   0.00000  Uiso   1.00
C805   C     0.06819   0.75212   0.73820   0.00000  Uiso   1.00
C806   C     0.26515   0.74764   0.76194   0.00000  Uiso   1.00
C807   C     0.01383   0.76063   0.73443   0.00000  Uiso   1.00
C808   C     0.31969   0.73980   0.76645   0.00000  Uiso   1.00
C809   C     0.12555   0.54969   0.76235   0.00000  Uiso   1.00
C810   C     0.18661   0.95171   0.71398   0.00000  Uiso   1.00
C811   C     0.12732   0.59545   0.76265   0.00000  Uiso   1.00
C812   C     0.18543   0.90589   0.71421   0.00000  Uiso   1.00
C813   C     0.17008   0.61714   0.74932   0.00000  Uiso   1.00
C814   C     0.16229   0.88353   0.74987   0.00000  Uiso   1.00
C815   C     0.21256   0.59258   0.73617   0.00000  Uiso   1.00
C816   C     0.13875   0.90802   0.78514   0.00000  Uiso   1.00
C817   C     0.21075   0.54642   0.73780   0.00000  Uiso   1.00
C818   C     0.14231   0.95403   0.78573   0.00000  Uiso   1.00
C819   C     0.16734   0.52478   0.75017   0.00000  Uiso   1.00
C820   C     0.16567   0.97615   0.75010   0.00000  Uiso   1.00
Cu821  Cu    0.16667   0.74999   0.79821   0.00000  Uiso   1.00
Cu822  Cu    0.16667   0.75000   0.70178   0.00000  Uiso   1.00
H823   H     0.09117   0.53389   0.77112   0.00000  Uiso   1.00
H824   H     0.20384   0.96798   0.68537   0.00000  Uiso   1.00
H825   H     0.09472   0.61411   0.77245   0.00000  Uiso   1.00
H826   H     0.20321   0.88786   0.68663   0.00000  Uiso   1.00
H827   H     0.24333   0.52709   0.72920   0.00000  Uiso   1.00
H828   H     0.12577   0.97274   0.81357   0.00000  Uiso   1.00
H829   H     0.21110   0.80777   0.63165   0.00000  Uiso   1.00
H830   H     0.21181   0.69218   0.87824   0.00000  Uiso   1.00
H831   H     0.12210   0.69217   0.61769   0.00000  Uiso   1.00
H832   H     0.11914   0.80645   0.87235   0.00000  Uiso   1.00
H833   H     0.12328   0.69127   0.52862   0.00000  Uiso   1.00
H834   H     0.12021   0.80690   0.96145   0.00000  Uiso   1.00
N835   N     0.16667   0.75001   0.62934   0.00000  Uiso   1.00
N836   N     0.16667   0.74999   0.87065   0.00000  Uiso   1.00
O837   O     0.16667   0.68572   0.79071   0.00000  Uiso   1.00
O838   O     0.16666   0.81427   0.70928   0.00000  Uiso   1.00
O839   O     0.16667   0.68573   0.70928   0.00000  Uiso   1.00
O840   O     0.16666   0.81427   0.79072   0.00000  Uiso   1.00
O841   O     0.09161   0.74999   0.78132   0.00000  Uiso   1.00
O842   O     0.24172   0.75000   0.71868   0.00000  Uiso   1.00
O843   O     0.09161   0.75000   0.69988   0.00000  Uiso   1.00
O844   O     0.24172   0.75000   0.80011   0.00000  Uiso   1.00
C845   C     0.32424   0.79707   0.69952   0.00000  Uiso   1.00
C846   C     0.02942   0.83006   0.68297   0.00000  Uiso   1.00
C847   C     0.00225   0.87005   0.65808   0.00000  Uiso   1.00
H848   H     0.30968   0.85931   0.62558   0.00000  Uiso   1.00
H849   H     0.31309   0.88804   0.68358   0.00000  Uiso   1.00
H850   H     0.03098   0.89292   0.64625   0.00000  Uiso   1.00
H851   H     0.05554   0.84187   0.71477   0.00000  Uiso   1.00
H852   H     0.05232   0.81401   0.65650   0.00000  Uiso   1.00
H853   H     0.30342   0.78135   0.66657   0.00000  Uiso   1.00
H854   H     0.29657   0.81694   0.71819   0.00000  Uiso   1.00
C855   C     0.01007   0.70412   0.80219   0.00000  Uiso   1.00
C856   C     0.30636   0.67691   0.82860   0.00000  Uiso   1.00
C857   C     0.33295   0.63644   0.85309   0.00000  Uiso   1.00
H858   H     0.01331   0.61395   0.82542   0.00000  Uiso   1.00
H859   H     0.03260   0.64664   0.87957   0.00000  Uiso   1.00
H860   H     0.30554   0.61821   0.87284   0.00000  Uiso   1.00
H861   H     0.29234   0.69779   0.85740   0.00000  Uiso   1.00
H862   H     0.27344   0.66564   0.80293   0.00000  Uiso   1.00
H863   H     0.03222   0.68069   0.78149   0.00000  Uiso   1.00
H864   H     0.03641   0.72008   0.83143   0.00000  Uiso   1.00
C865   C     0.25972   0.61304   0.72171   0.00000  Uiso   1.00
O866   O     0.25873   0.65024   0.70481   0.00000  Uiso   1.00
O867   O     0.30573   0.58908   0.72683   0.00000  Uiso   1.00
H868   H     0.00182   0.60636   0.71611   0.00000  Uiso   1.00
C869   C     0.10744   0.88759   0.81983   0.00000  Uiso   1.00
O870   O     0.07807   0.85769   0.80642   0.00000  Uiso   1.00
O871   O     0.10961   0.90416   0.86736   0.00000  Uiso   1.00
H872   H     0.08595   0.88805   0.88741   0.00000  Uiso   1.00
C873   C     0.22191   0.82038   0.53757   0.00000  Uiso   1.00
O874   O     0.24210   0.81496   0.50041   0.00000  Uiso   1.00
O875   O     0.22618   0.86106   0.56194   0.00000  Uiso   1.00
H876   H     0.24654   0.88326   0.54512   0.00000  Uiso   1.00
C877   C     0.22721   0.68089   0.97504   0.00000  Uiso   1.00
O878   O     0.24287   0.68500   0.51827   0.00000  Uiso   1.00
O879   O     0.24059   0.64314   0.94979   0.00000  Uiso   1.00
H880   H     0.26283   0.62181   0.97129   0.00000  Uiso   1.00
C881   C     0.50208   0.66513   0.74997   0.00000  Uiso   1.00
C882   C     0.49812   0.83511   0.74997   0.00000  Uiso   1.00
C883   C     0.52682   0.78396   0.55752   0.00000  Uiso   1.00
C884   C     0.52865   0.71608   0.94868   0.00000  Uiso   1.00
C885   C     0.52495   0.78274   0.60842   0.00000  Uiso   1.00
C886   C     0.52592   0.71733   0.89725   0.00000  Uiso   1.00
C887   C     0.47558   0.71779   0.60099   0.00000  Uiso   1.00
C888   C     0.47403   0.78139   0.89351   0.00000  Uiso   1.00
C889   C     0.47627   0.71732   0.55023   0.00000  Uiso   1.00
C890   C     0.47458   0.78145   0.94439   0.00000  Uiso   1.00
C891   C     0.50220   0.75024   0.52757   0.00000  Uiso   1.00
C892   C     0.50219   0.74902   0.97301   0.00000  Uiso   1.00
C893   C     0.40153   0.75212   0.73820   0.00000  Uiso   1.00
C894   C     0.59848   0.74764   0.76194   0.00000  Uiso   1.00
C895   C     0.34716   0.76063   0.73443   0.00000  Uiso   1.00
C896   C     0.65302   0.73980   0.76645   0.00000  Uiso   1.00
C897   C     0.45889   0.54969   0.76235   0.00000  Uiso   1.00
C898   C     0.51995   0.95171   0.71398   0.00000  Uiso   1.00
C899   C     0.46065   0.59545   0.76265   0.00000  Uiso   1.00
C900   C     0.51876   0.90589   0.71421   0.00000  Uiso   1.00
C901   C     0.50341   0.61714   0.74932   0.00000  Uiso   1.00
C902   C     0.49563   0.88353   0.74987   0.00000  Uiso   1.00
C903   C     0.54590   0.59258   0.73617   0.00000  Uiso   1.00
C904   C     0.47208   0.90802   0.78514   0.00000  Uiso   1.00
C905   C     0.54409   0.54642   0.73780   0.00000  Uiso   1.00
C906   C     0.47565   0.95403   0.78573   0.00000  Uiso   1.00
C907   C     0.50067   0.52478   0.75017   0.00000  Uiso   1.00
C908   C     0.49901   0.97615   0.75010   0.00000  Uiso   1.00
Cu909  Cu    0.50000   0.74999   0.79821   0.00000  Uiso   1.00
Cu910  Cu    0.50000   0.75000   0.70178   0.00000  Uiso   1.00
H911   H     0.42450   0.53389   0.77112   0.00000  Uiso   1.00
H912   H     0.53718   0.96798   0.68537   0.00000  Uiso   1.00
H913   H     0.42805   0.61411   0.77245   0.00000  Uiso   1.00
H914   H     0.53654   0.88786   0.68663   0.00000  Uiso   1.00
H915   H     0.57666   0.52709   0.72920   0.00000  Uiso   1.00
H916   H     0.45910   0.97274   0.81357   0.00000  Uiso   1.00
H917   H     0.54443   0.80777   0.63165   0.00000  Uiso   1.00
H918   H     0.54514   0.69218   0.87824   0.00000  Uiso   1.00
H919   H     0.45544   0.69217   0.61769   0.00000  Uiso   1.00
H920   H     0.45247   0.80645   0.87235   0.00000  Uiso   1.00
H921   H     0.45662   0.69127   0.52862   0.00000  Uiso   1.00
H922   H     0.45354   0.80690   0.96145   0.00000  Uiso   1.00
N923   N     0.50000   0.75001   0.62934   0.00000  Uiso   1.00
N924   N     0.50000   0.74999   0.87065   0.00000  Uiso   1.00
O925   O     0.50000   0.68572   0.79071   0.00000  Uiso   1.00
O926   O     0.50000   0.81427   0.70928   0.00000  Uiso   1.00
O927   O     0.50000   0.68573   0.70928   0.00000  Uiso   1.00
O928   O     0.50000   0.81427   0.79072   0.00000  Uiso   1.00
O929   O     0.42495   0.74999   0.78132   0.00000  Uiso   1.00
O930   O     0.57505   0.75000   0.71868   0.00000  Uiso   1.00
O931   O     0.42495   0.75000   0.69988   0.00000  Uiso   1.00
O932   O     0.57505   0.75000   0.80011   0.00000  Uiso   1.00
C933   C     0.65757   0.79707   0.69952   0.00000  Uiso   1.00
C934   C     0.36275   0.83006   0.68297   0.00000  Uiso   1.00
C935   C     0.33558   0.87005   0.65808   0.00000  Uiso   1.00
H936   H     0.64302   0.85931   0.62558   0.00000  Uiso   1.00
H937   H     0.64643   0.88804   0.68358   0.00000  Uiso   1.00
H938   H     0.36432   0.89292   0.64625   0.00000  Uiso   1.00
H939   H     0.38888   0.84187   0.71477   0.00000  Uiso   1.00
H940   H     0.38566   0.81401   0.65650   0.00000  Uiso   1.00
H941   H     0.63676   0.78135   0.66657   0.00000  Uiso   1.00
H942   H     0.62991   0.81694   0.71819   0.00000  Uiso   1.00
C943   C     0.34341   0.70412   0.80219   0.00000  Uiso   1.00
C944   C     0.63970   0.67691   0.82860   0.00000  Uiso   1.00
C945   C     0.66628   0.63644   0.85309   0.00000  Uiso   1.00
H946   H     0.34664   0.61395   0.82542   0.00000  Uiso   1.00
H947   H     0.36593   0.64664   0.87957   0.00000  Uiso   1.00
H948   H     0.63887   0.61821   0.87284   0.00000  Uiso   1.00
H949   H     0.62568   0.69779   0.85740   0.00000  Uiso   1.00
H950   H     0.60677   0.66564   0.80293   0.00000  Uiso   1.00
H951   H     0.36555   0.68069   0.78149   0.00000  Uiso   1.00
H952   H     0.36974   0.72008   0.83143   0.00000  Uiso   1.00
C953   C     0.59306   0.61304   0.72171   0.00000  Uiso   1.00
O954   O     0.59206   0.65024   0.70481   0.00000  Uiso   1.00
O955   O     0.63906   0.58908   0.72683   0.00000  Uiso   1.00
H956   H     0.33515   0.60636   0.71611   0.00000  Uiso   1.00
C957   C     0.44077   0.88759   0.81983   0.00000  Uiso   1.00
O958   O     0.41140   0.85769   0.80642   0.00000  Uiso   1.00
O959   O     0.44295   0.90416   0.86736   0.00000  Uiso   1.00
H960   H     0.41928   0.88805   0.88741   0.00000  Uiso   1.00
C961   C     0.55524   0.82038   0.53757   0.00000  Uiso   1.00
O962   O     0.57544   0.81496   0.50041   0.00000  Uiso   1.00
O963   O     0.55952   0.86106   0.56194   0.00000  Uiso   1.00
H964   H     0.57987   0.88326   0.54512   0.00000  Uiso   1.00
C965   C     0.56055   0.68089   0.97504   0.00000  Uiso   1.00
O966   O     0.57621   0.68500   0.51827   0.00000  Uiso   1.00
O967   O     0.57393   0.64314   0.94979   0.00000  Uiso   1.00
H968   H     0.59617   0.62181   0.97129   0.00000  Uiso   1.00
C969   C     0.83542   0.66513   0.74997   0.00000  Uiso   1.00
C970   C     0.83145   0.83511   0.74997   0.00000  Uiso   1.00
C971   C     0.86015   0.78396   0.55752   0.00000  Uiso   1.00
C972   C     0.86198   0.71608   0.94868   0.00000  Uiso   1.00
C973   C     0.85829   0.78274   0.60842   0.00000  Uiso   1.00
C974   C     0.85925   0.71733   0.89725   0.00000  Uiso   1.00
C975   C     0.80891   0.71779   0.60099   0.00000  Uiso   1.00
C976   C     0.80736   0.78139   0.89351   0.00000  Uiso   1.00
C977   C     0.80960   0.71732   0.55023   0.00000  Uiso   1.00
C978   C     0.80791   0.78145   0.94439   0.00000  Uiso   1.00
C979   C     0.83554   0.75024   0.52757   0.00000  Uiso   1.00
C980   C     0.83553   0.74902   0.97301   0.00000  Uiso   1.00
C981   C     0.73486   0.75212   0.73820   0.00000  Uiso   1.00
C982   C     0.93181   0.74764   0.76194   0.00000  Uiso   1.00
C983   C     0.68050   0.76063   0.73443   0.00000  Uiso   1.00
C984   C     0.98635   0.73980   0.76645   0.00000  Uiso   1.00
C985   C     0.79222   0.54969   0.76235   0.00000  Uiso   1.00
C986   C     0.85328   0.95171   0.71398   0.00000  Uiso   1.00
C987   C     0.79399   0.59545   0.76265   0.00000  Uiso   1.00
C988   C     0.85210   0.90589   0.71421   0.00000  Uiso   1.00
C989   C     0.83674   0.61714   0.74932   0.00000  Uiso   1.00
C990   C     0.82896   0.88353   0.74987   0.00000  Uiso   1.00
C991   C     0.87923   0.59258   0.73617   0.00000  Uiso   1.00
C992   C     0.80542   0.90802   0.78514   0.00000  Uiso   1.00
C993   C     0.87742   0.54642   0.73780   0.00000  Uiso   1.00
C994   C     0.80898   0.95403   0.78573   0.00000  Uiso   1.00
C995   C     0.83401   0.52478   0.75017   0.00000  Uiso   1.00
C996   C     0.83234   0.97615   0.75010   0.00000  Uiso   1.00
Cu997  Cu    0.83333   0.74999   0.79821   0.00000  Uiso   1.00
Cu998  Cu    0.83333   0.75000   0.70178   0.00000  Uiso   1.00
H999   H     0.75783   0.53389   0.77112   0.00000  Uiso   1.00
H1000  H     0.87051   0.96798   0.68537   0.00000  Uiso   1.00
H1001  H     0.76138   0.61411   0.77245   0.00000  Uiso   1.00
H1002  H     0.86988   0.88786   0.68663   0.00000  Uiso   1.00
H1003  H     0.91000   0.52709   0.72920   0.00000  Uiso   1.00
H1004  H     0.79243   0.97274   0.81357   0.00000  Uiso   1.00
H1005  H     0.87776   0.80777   0.63165   0.00000  Uiso   1.00
H1006  H     0.87847   0.69218   0.87824   0.00000  Uiso   1.00
H1007  H     0.78877   0.69217   0.61769   0.00000  Uiso   1.00
H1008  H     0.78581   0.80645   0.87235   0.00000  Uiso   1.00
H1009  H     0.78995   0.69127   0.52862   0.00000  Uiso   1.00
H1010  H     0.78687   0.80690   0.96145   0.00000  Uiso   1.00
N1011  N     0.83333   0.75001   0.62934   0.00000  Uiso   1.00
N1012  N     0.83333   0.74999   0.87065   0.00000  Uiso   1.00
O1013  O     0.83334   0.68572   0.79071   0.00000  Uiso   1.00
O1014  O     0.83333   0.81427   0.70928   0.00000  Uiso   1.00
O1015  O     0.83334   0.68573   0.70928   0.00000  Uiso   1.00
O1016  O     0.83333   0.81427   0.79072   0.00000  Uiso   1.00
O1017  O     0.75828   0.74999   0.78132   0.00000  Uiso   1.00
O1018  O     0.90839   0.75000   0.71868   0.00000  Uiso   1.00
O1019  O     0.75828   0.75000   0.69988   0.00000  Uiso   1.00
O1020  O     0.90839   0.75000   0.80011   0.00000  Uiso   1.00
C1021  C     0.99091   0.79707   0.69952   0.00000  Uiso   1.00
C1022  C     0.69608   0.83006   0.68297   0.00000  Uiso   1.00
C1023  C     0.66892   0.87005   0.65808   0.00000  Uiso   1.00
H1024  H     0.97635   0.85931   0.62558   0.00000  Uiso   1.00
H1025  H     0.97976   0.88804   0.68358   0.00000  Uiso   1.00
H1026  H     0.69765   0.89292   0.64625   0.00000  Uiso   1.00
H1027  H     0.72221   0.84187   0.71477   0.00000  Uiso   1.00
H1028  H     0.71899   0.81401   0.65650   0.00000  Uiso   1.00
H1029  H     0.97009   0.78135   0.66657   0.00000  Uiso   1.00
H1030  H     0.96324   0.81694   0.71819   0.00000  Uiso   1.00
C1031  C     0.67674   0.70412   0.80219   0.00000  Uiso   1.00
C1032  C     0.97303   0.67691   0.82860   0.00000  Uiso   1.00
C1033  C     0.99961   0.63644   0.85309   0.00000  Uiso   1.00
H1034  H     0.67998   0.61395   0.82542   0.00000  Uiso   1.00
H1035  H     0.69927   0.64664   0.87957   0.00000  Uiso   1.00
H1036  H     0.97220   0.61821   0.87284   0.00000  Uiso   1.00
H1037  H     0.95901   0.69779   0.85740   0.00000  Uiso   1.00
H1038  H     0.94011   0.66564   0.80293   0.00000  Uiso   1.00
H1039  H     0.69888   0.68069   0.78149   0.00000  Uiso   1.00
H1040  H     0.70307   0.72008   0.83143   0.00000  Uiso   1.00
C1041  C     0.92639   0.61304   0.72171   0.00000  Uiso   1.00
O1042  O     0.92540   0.65024   0.70481   0.00000  Uiso   1.00
O1043  O     0.97239   0.58908   0.72683   0.00000  Uiso   1.00
H1044  H     0.66848   0.60636   0.71611   0.00000  Uiso   1.00
C1045  C     0.77410   0.88759   0.81983   0.00000  Uiso   1.00
O1046  O     0.74473   0.85769   0.80642   0.00000  Uiso   1.00
O1047  O     0.77628   0.90416   0.86736   0.00000  Uiso   1.00
H1048  H     0.75261   0.88805   0.88741   0.00000  Uiso   1.00
C1049  C     0.88858   0.82038   0.53757   0.00000  Uiso   1.00
O1050  O     0.90877   0.81496   0.50041   0.00000  Uiso   1.00
O1051  O     0.89285   0.86106   0.56194   0.00000  Uiso   1.00
H1052  H     0.91320   0.88326   0.54512   0.00000  Uiso   1.00
C1053  C     0.89388   0.68089   0.97504   0.00000  Uiso   1.00
O1054  O     0.90954   0.68500   0.51827   0.00000  Uiso   1.00
O1055  O     0.90726   0.64314   0.94979   0.00000  Uiso   1.00
H1056  H     0.92950   0.62181   0.97129   0.00000  Uiso   1.00
loop_
_geom_bond_atom_site_label_1
_geom_bond_atom_site_label_2
_geom_bond_distance
_geom_bond_site_symmetry_2
_ccdc_geom_bond_type
C1     C21     1.453   .     S
C1     O47     1.286   .     A
C1     O45     1.290   .     A
C2     O46     1.292   .     A
C2     C22     1.467   .     S
C2     O48     1.291   .     A
C3     C81     1.485   .     S
C3     C5      1.415   .     A
C3     C11     1.421   .     A
C4     C12     1.422   .     A
C4     C6      1.416   .     A
C4     C85     1.489   .     S
C5     H37     1.082   .     S
C5     N43     1.365   .     A
C6     H38     1.079   .     S
C6     N44     1.364   .     A
C7     N43     1.363   .     A
C7     C9      1.406   .     A
C7     H39     1.081   .     S
C8     N44     1.362   .     A
C8     C10     1.405   .     A
C8     H40     1.076   .     S
C9     C11     1.407   .     A
C9     H41     1.083   .     S
C10    H42     1.083   .     S
C10    C12     1.406   .     A
C11    C540    1.509   1_554 S
C12    C539    1.509   .     S
C13    O51     1.290   .     A
C13    O49     1.276   .     A
C13    C15     1.444   .     S
C14    O52     1.287   .     A
C14    C16     1.445   .     S
C14    O50     1.280   .     A
C15    C192    1.371   1_455 S
C15    C229    1.541   1_455 S
C16    C103    1.371   .     S
C16    C151    1.545   .     S
C17    C27     1.402   .     A
C17    H31     1.083   .     S
C17    C19     1.386   .     A
C18    C28     1.402   .     A
C18    H32     1.083   .     S
C18    C20     1.388   .     A
C19    C21     1.398   .     A
C19    H33     1.084   .     S
C20    H34     1.084   .     S
C20    C22     1.403   .     A
C21    C23     1.420   .     A
C22    C24     1.419   .     A
C23    C73     1.492   .     S
C23    C25     1.400   .     A
C24    C26     1.397   .     A
C24    C77     1.482   .     S
C25    H35     1.083   .     S
C25    C27     1.403   .     A
C26    H36     1.084   .     S
C26    C28     1.401   .     A
C27    C292    1.473   1_545 S
C28    C291    1.473   .     S
Cu29   O48     1.958   .     S
Cu29   O49     1.976   .     S
Cu29   O45     1.955   .     S
Cu29   Cu30    2.667   .     S
Cu29   N44     2.004   .     S
Cu29   O52     1.972   .     S
Cu30   O51     1.972   .     S
Cu30   O50     1.976   .     S
Cu30   O47     1.958   .     S
Cu30   N43     2.004   .     S
Cu30   O46     1.955   .     S
C53    H61     1.111   .     S
C53    H62     1.113   .     S
C53    C103    1.541   .     S
C53    C142    1.541   .     S
C54    H60     1.110   .     S
C54    H59     1.108   .     S
C54    C55     1.526   .     S
C54    C229    1.541   1_455 S
C55    H58     1.111   .     S
C55    H232    1.109   1_455 S
C55    H233    1.111   1_455 S
H56    C143    1.109   .     S
H57    C143    1.111   .     S
C63    H71     1.113   .     S
C63    H72     1.111   .     S
C63    C192    1.545   1_455 S
C63    C240    1.537   1_455 S
C64    H70     1.107   .     S
C64    H69     1.109   .     S
C64    C65     1.527   .     S
C64    C151    1.537   .     S
C65    H68     1.110   .     S
C65    H154    1.111   .     S
C65    H155    1.111   .     S
H66    C241    1.111   1_455 S
H67    C241    1.111   1_455 S
C73    O74     1.221   .     D
C73    O75     1.399   .     S
O75    H164    1.014   .     S
H76    O251    1.014   1_455 S
C77    O78     1.222   .     D
C77    O79     1.398   .     S
O79    H80     1.014   .     S
C81    O82     1.223   .     D
C81    O83     1.398   .     S
O83    H84     1.014   .     S
C85    O87     1.399   .     S
C85    O614    1.223   .     S
O86    C613    1.223   1_554 S
O87    H88     1.014   .     S
C89    C109    1.453   .     S
C89    O135    1.286   .     A
C89    O133    1.290   .     A
C90    O134    1.292   .     A
C90    C110    1.467   .     S
C90    O136    1.291   .     A
C91    C169    1.485   .     S
C91    C93     1.415   .     A
C91    C99     1.421   .     A
C92    C100    1.422   .     A
C92    C94     1.416   .     A
C92    C173    1.489   .     S
C93    H125    1.082   .     S
C93    N131    1.365   .     A
C94    H126    1.079   .     S
C94    N132    1.364   .     A
C95    N131    1.363   .     A
C95    C97     1.406   .     A
C95    H127    1.081   .     S
C96    N132    1.362   .     A
C96    C98     1.405   .     A
C96    H128    1.076   .     S
C97    C99     1.407   .     A
C97    H129    1.083   .     S
C98    H130    1.083   .     S
C98    C100    1.406   .     A
C99    C628    1.509   1_554 S
C100   C627    1.509   .     S
C101   O139    1.290   .     A
C101   O137    1.276   .     A
C101   C103    1.444   .     S
C102   O140    1.287   .     A
C102   C104    1.445   .     S
C102   O138    1.280   .     A
C104   C191    1.371   .     S
C104   C239    1.545   .     S
C105   C115    1.402   .     A
C105   H119    1.083   .     S
C105   C107    1.386   .     A
C106   C116    1.402   .     A
C106   H120    1.083   .     S
C106   C108    1.388   .     A
C107   C109    1.398   .     A
C107   H121    1.084   .     S
C108   H122    1.084   .     S
C108   C110    1.403   .     A
C109   C111    1.420   .     A
C110   C112    1.419   .     A
C111   C161    1.492   .     S
C111   C113    1.400   .     A
C112   C114    1.397   .     A
C112   C165    1.482   .     S
C113   H123    1.083   .     S
C113   C115    1.403   .     A
C114   H124    1.084   .     S
C114   C116    1.401   .     A
C115   C380    1.473   1_545 S
C116   C379    1.473   .     S
Cu117  O136    1.958   .     S
Cu117  O137    1.976   .     S
Cu117  O133    1.955   .     S
Cu117  Cu118   2.667   .     S
Cu117  N132    2.004   .     S
Cu117  O140    1.972   .     S
Cu118  O139    1.972   .     S
Cu118  O138    1.976   .     S
Cu118  O135    1.958   .     S
Cu118  N131    2.004   .     S
Cu118  O134    1.955   .     S
C141   H149    1.111   .     S
C141   H150    1.113   .     S
C141   C191    1.541   .     S
C141   C230    1.541   .     S
C142   H148    1.110   .     S
C142   H147    1.108   .     S
C142   C143    1.526   .     S
C143   H146    1.111   .     S
H144   C231    1.109   .     S
H145   C231    1.111   .     S
C151   H159    1.113   .     S
C151   H160    1.111   .     S
C152   H158    1.107   .     S
C152   H157    1.109   .     S
C152   C153    1.527   .     S
C152   C239    1.537   .     S
C153   H156    1.110   .     S
C153   H242    1.111   .     S
C153   H243    1.111   .     S
C161   O162    1.221   .     D
C161   O163    1.399   .     S
O163   H252    1.014   .     S
C165   O166    1.222   .     D
C165   O167    1.398   .     S
O167   H168    1.014   .     S
C169   O170    1.223   .     D
C169   O171    1.398   .     S
O171   H172    1.014   .     S
C173   O175    1.399   .     S
C173   O702    1.223   .     S
O174   C701    1.223   1_554 S
O175   H176    1.014   .     S
C177   C197    1.453   .     S
C177   O223    1.286   .     A
C177   O221    1.290   .     A
C178   O222    1.292   .     A
C178   C198    1.467   .     S
C178   O224    1.291   .     A
C179   C257    1.485   .     S
C179   C181    1.415   .     A
C179   C187    1.421   .     A
C180   C188    1.422   .     A
C180   C182    1.416   .     A
C180   C261    1.489   .     S
C181   H213    1.082   .     S
C181   N219    1.365   .     A
C182   H214    1.079   .     S
C182   N220    1.364   .     A
C183   N219    1.363   .     A
C183   C185    1.406   .     A
C183   H215    1.081   .     S
C184   N220    1.362   .     A
C184   C186    1.405   .     A
C184   H216    1.076   .     S
C185   C187    1.407   .     A
C185   H217    1.083   .     S
C186   H218    1.083   .     S
C186   C188    1.406   .     A
C187   C716    1.509   1_554 S
C188   C715    1.509   .     S
C189   O227    1.290   .     A
C189   O225    1.276   .     A
C189   C191    1.444   .     S
C190   O228    1.287   .     A
C190   C192    1.445   .     S
C190   O226    1.280   .     A
C192   C15     1.371   1_655 S
C192   C63     1.545   1_655 S
C193   C203    1.402   .     A
C193   H207    1.083   .     S
C193   C195    1.386   .     A
C194   C204    1.402   .     A
C194   H208    1.083   .     S
C194   C196    1.388   .     A
C195   C197    1.398   .     A
C195   H209    1.084   .     S
C196   H210    1.084   .     S
C196   C198    1.403   .     A
C197   C199    1.420   .     A
C198   C200    1.419   .     A
C199   C249    1.492   .     S
C199   C201    1.400   .     A
C200   C202    1.397   .     A
C200   C253    1.482   .     S
C201   H211    1.083   .     S
C201   C203    1.403   .     A
C202   H212    1.084   .     S
C202   C204    1.401   .     A
C203   C468    1.473   1_545 S
C204   C467    1.473   .     S
Cu205  O224    1.958   .     S
Cu205  O225    1.976   .     S
Cu205  O221    1.955   .     S
Cu205  Cu206   2.667   .     S
Cu205  N220    2.004   .     S
Cu205  O228    1.972   .     S
Cu206  O227    1.972   .     S
Cu206  O226    1.976   .     S
Cu206  O223    1.958   .     S
Cu206  N219    2.004   .     S
Cu206  O222    1.955   .     S
C229   H237    1.111   .     S
C229   H238    1.113   .     S
C229   C15     1.541   1_655 S
C229   C54     1.541   1_655 S
C230   H236    1.110   .     S
C230   H235    1.108   .     S
C230   C231    1.526   .     S
C231   H234    1.111   .     S
H232   C55     1.109   1_655 S
H233   C55     1.111   1_655 S
C239   H247    1.113   .     S
C239   H248    1.111   .     S
C240   H246    1.107   .     S
C240   H245    1.109   .     S
C240   C241    1.527   .     S
C240   C63     1.537   1_655 S
C241   H244    1.110   .     S
C241   H66     1.111   1_655 S
C241   H67     1.111   1_655 S
C249   O250    1.221   .     D
C249   O251    1.399   .     S
O251   H76     1.014   1_655 S
C253   O254    1.222   .     D
C253   O255    1.398   .     S
O255   H256    1.014   .     S
C257   O258    1.223   .     D
C257   O259    1.398   .     S
O259   H260    1.014   .     S
C261   O263    1.399   .     S
C261   O790    1.223   .     S
O262   C789    1.223   1_554 S
O263   H264    1.014   .     S
C265   C285    1.453   .     S
C265   O311    1.286   .     A
C265   O309    1.290   .     A
C266   O310    1.292   .     A
C266   C286    1.467   .     S
C266   O312    1.291   .     A
C267   C345    1.485   .     S
C267   C269    1.415   .     A
C267   C275    1.421   .     A
C268   C276    1.422   .     A
C268   C270    1.416   .     A
C268   C349    1.489   .     S
C269   H301    1.082   .     S
C269   N307    1.365   .     A
C270   H302    1.079   .     S
C270   N308    1.364   .     A
C271   N307    1.363   .     A
C271   C273    1.406   .     A
C271   H303    1.081   .     S
C272   N308    1.362   .     A
C272   C274    1.405   .     A
C272   H304    1.076   .     S
C273   C275    1.407   .     A
C273   H305    1.083   .     S
C274   H306    1.083   .     S
C274   C276    1.406   .     A
C275   C804    1.509   1_554 S
C276   C803    1.509   .     S
C277   O315    1.290   .     A
C277   O313    1.276   .     A
C277   C279    1.444   .     S
C278   O316    1.287   .     A
C278   C280    1.445   .     S
C278   O314    1.280   .     A
C279   C456    1.371   1_455 S
C279   C493    1.541   1_455 S
C280   C367    1.371   .     S
C280   C415    1.545   .     S
C281   C291    1.402   .     A
C281   H295    1.083   .     S
C281   C283    1.386   .     A
C282   C292    1.402   .     A
C282   H296    1.083   .     S
C282   C284    1.388   .     A
C283   C285    1.398   .     A
C283   H297    1.084   .     S
C284   H298    1.084   .     S
C284   C286    1.403   .     A
C285   C287    1.420   .     A
C286   C288    1.419   .     A
C287   C337    1.492   .     S
C287   C289    1.400   .     A
C288   C290    1.397   .     A
C288   C341    1.482   .     S
C289   H299    1.083   .     S
C289   C291    1.403   .     A
C290   H300    1.084   .     S
C290   C292    1.401   .     A
C292   C27     1.473   1_565 S
Cu293  O312    1.958   .     S
Cu293  O313    1.976   .     S
Cu293  O309    1.955   .     S
Cu293  Cu294   2.667   .     S
Cu293  N308    2.004   .     S
Cu293  O316    1.972   .     S
Cu294  O315    1.972   .     S
Cu294  O314    1.976   .     S
Cu294  O311    1.958   .     S
Cu294  N307    2.004   .     S
Cu294  O310    1.955   .     S
C317   H325    1.111   .     S
C317   H326    1.113   .     S
C317   C367    1.541   .     S
C317   C406    1.541   .     S
C318   H324    1.110   .     S
C318   H323    1.108   .     S
C318   C319    1.526   .     S
C318   C493    1.541   1_455 S
C319   H322    1.111   .     S
C319   H496    1.109   1_455 S
C319   H497    1.111   1_455 S
H320   C407    1.109   .     S
H321   C407    1.111   .     S
C327   H335    1.113   .     S
C327   H336    1.111   .     S
C327   C456    1.545   1_455 S
C327   C504    1.537   1_455 S
C328   H334    1.107   .     S
C328   H333    1.109   .     S
C328   C329    1.527   .     S
C328   C415    1.537   .     S
C329   H332    1.110   .     S
C329   H418    1.111   .     S
C329   H419    1.111   .     S
H330   C505    1.111   1_455 S
H331   C505    1.111   1_455 S
C337   O338    1.221   .     D
C337   O339    1.399   .     S
O339   H428    1.014   .     S
H340   O515    1.014   1_455 S
C341   O342    1.222   .     D
C341   O343    1.398   .     S
O343   H344    1.014   .     S
C345   O346    1.223   .     D
C345   O347    1.398   .     S
O347   H348    1.014   .     S
C349   O351    1.399   .     S
C349   O878    1.223   .     S
O350   C877    1.223   1_554 S
O351   H352    1.014   .     S
C353   C373    1.453   .     S
C353   O399    1.286   .     A
C353   O397    1.290   .     A
C354   O398    1.292   .     A
C354   C374    1.467   .     S
C354   O400    1.291   .     A
C355   C433    1.485   .     S
C355   C357    1.415   .     A
C355   C363    1.421   .     A
C356   C364    1.422   .     A
C356   C358    1.416   .     A
C356   C437    1.489   .     S
C357   H389    1.082   .     S
C357   N395    1.365   .     A
C358   H390    1.079   .     S
C358   N396    1.364   .     A
C359   N395    1.363   .     A
C359   C361    1.406   .     A
C359   H391    1.081   .     S
C360   N396    1.362   .     A
C360   C362    1.405   .     A
C360   H392    1.076   .     S
C361   C363    1.407   .     A
C361   H393    1.083   .     S
C362   H394    1.083   .     S
C362   C364    1.406   .     A
C363   C892    1.509   1_554 S
C364   C891    1.509   .     S
C365   O403    1.290   .     A
C365   O401    1.276   .     A
C365   C367    1.444   .     S
C366   O404    1.287   .     A
C366   C368    1.445   .     S
C366   O402    1.280   .     A
C368   C455    1.371   .     S
C368   C503    1.545   .     S
C369   C379    1.402   .     A
C369   H383    1.083   .     S
C369   C371    1.386   .     A
C370   C380    1.402   .     A
C370   H384    1.083   .     S
C370   C372    1.388   .     A
C371   C373    1.398   .     A
C371   H385    1.084   .     S
C372   H386    1.084   .     S
C372   C374    1.403   .     A
C373   C375    1.420   .     A
C374   C376    1.419   .     A
C375   C425    1.492   .     S
C375   C377    1.400   .     A
C376   C378    1.397   .     A
C376   C429    1.482   .     S
C377   H387    1.083   .     S
C377   C379    1.403   .     A
C378   H388    1.084   .     S
C378   C380    1.401   .     A
C380   C115    1.473   1_565 S
Cu381  O400    1.958   .     S
Cu381  O401    1.976   .     S
Cu381  O397    1.955   .     S
Cu381  Cu382   2.667   .     S
Cu381  N396    2.004   .     S
Cu381  O404    1.972   .     S
Cu382  O403    1.972   .     S
Cu382  O402    1.976   .     S
Cu382  O399    1.958   .     S
Cu382  N395    2.004   .     S
Cu382  O398    1.955   .     S
C405   H413    1.111   .     S
C405   H414    1.113   .     S
C405   C455    1.541   .     S
C405   C494    1.541   .     S
C406   H412    1.110   .     S
C406   H411    1.108   .     S
C406   C407    1.526   .     S
C407   H410    1.111   .     S
H408   C495    1.109   .     S
H409   C495    1.111   .     S
C415   H423    1.113   .     S
C415   H424    1.111   .     S
C416   H422    1.107   .     S
C416   H421    1.109   .     S
C416   C417    1.527   .     S
C416   C503    1.537   .     S
C417   H420    1.110   .     S
C417   H506    1.111   .     S
C417   H507    1.111   .     S
C425   O426    1.221   .     D
C425   O427    1.399   .     S
O427   H516    1.014   .     S
C429   O430    1.222   .     D
C429   O431    1.398   .     S
O431   H432    1.014   .     S
C433   O434    1.223   .     D
C433   O435    1.398   .     S
O435   H436    1.014   .     S
C437   O439    1.399   .     S
C437   O966    1.223   .     S
O438   C965    1.223   1_554 S
O439   H440    1.014   .     S
C441   C461    1.453   .     S
C441   O487    1.286   .     A
C441   O485    1.290   .     A
C442   O486    1.292   .     A
C442   C462    1.467   .     S
C442   O488    1.291   .     A
C443   C521    1.485   .     S
C443   C445    1.415   .     A
C443   C451    1.421   .     A
C444   C452    1.422   .     A
C444   C446    1.416   .     A
C444   C525    1.489   .     S
C445   H477    1.082   .     S
C445   N483    1.365   .     A
C446   H478    1.079   .     S
C446   N484    1.364   .     A
C447   N483    1.363   .     A
C447   C449    1.406   .     A
C447   H479    1.081   .     S
C448   N484    1.362   .     A
C448   C450    1.405   .     A
C448   H480    1.076   .     S
C449   C451    1.407   .     A
C449   H481    1.083   .     S
C450   H482    1.083   .     S
C450   C452    1.406   .     A
C451   C980    1.509   1_554 S
C452   C979    1.509   .     S
C453   O491    1.290   .     A
C453   O489    1.276   .     A
C453   C455    1.444   .     S
C454   O492    1.287   .     A
C454   C456    1.445   .     S
C454   O490    1.280   .     A
C456   C279    1.371   1_655 S
C456   C327    1.545   1_655 S
C457   C467    1.402   .     A
C457   H471    1.083   .     S
C457   C459    1.386   .     A
C458   C468    1.402   .     A
C458   H472    1.083   .     S
C458   C460    1.388   .     A
C459   C461    1.398   .     A
C459   H473    1.084   .     S
C460   H474    1.084   .     S
C460   C462    1.403   .     A
C461   C463    1.420   .     A
C462   C464    1.419   .     A
C463   C513    1.492   .     S
C463   C465    1.400   .     A
C464   C466    1.397   .     A
C464   C517    1.482   .     S
C465   H475    1.083   .     S
C465   C467    1.403   .     A
C466   H476    1.084   .     S
C466   C468    1.401   .     A
C468   C203    1.473   1_565 S
Cu469  O488    1.958   .     S
Cu469  O489    1.976   .     S
Cu469  O485    1.955   .     S
Cu469  Cu470   2.667   .     S
Cu469  N484    2.004   .     S
Cu469  O492    1.972   .     S
Cu470  O491    1.972   .     S
Cu470  O490    1.976   .     S
Cu470  O487    1.958   .     S
Cu470  N483    2.004   .     S
Cu470  O486    1.955   .     S
C493   H501    1.111   .     S
C493   H502    1.113   .     S
C493   C279    1.541   1_655 S
C493   C318    1.541   1_655 S
C494   H500    1.110   .     S
C494   H499    1.108   .     S
C494   C495    1.526   .     S
C495   H498    1.111   .     S
H496   C319    1.109   1_655 S
H497   C319    1.111   1_655 S
C503   H511    1.113   .     S
C503   H512    1.111   .     S
C504   H510    1.107   .     S
C504   H509    1.109   .     S
C504   C505    1.527   .     S
C504   C327    1.537   1_655 S
C505   H508    1.110   .     S
C505   H330    1.111   1_655 S
C505   H331    1.111   1_655 S
C513   O514    1.221   .     D
C513   O515    1.399   .     S
O515   H340    1.014   1_655 S
C517   O518    1.222   .     D
C517   O519    1.398   .     S
O519   H520    1.014   .     S
C521   O522    1.223   .     D
C521   O523    1.398   .     S
O523   H524    1.014   .     S
C525   O527    1.399   .     S
C525   O1054   1.223   .     S
O526   C1053   1.223   1_554 S
O527   H528    1.014   .     S
C529   C549    1.453   .     S
C529   O575    1.286   .     A
C529   O573    1.290   .     A
C530   O574    1.292   .     A
C530   C550    1.467   .     S
C530   O576    1.291   .     A
C531   C609    1.485   .     S
C531   C533    1.415   .     A
C531   C539    1.421   .     A
C532   C540    1.422   .     A
C532   C534    1.416   .     A
C532   C613    1.489   .     S
C533   H565    1.082   .     S
C533   N571    1.365   .     A
C534   H566    1.079   .     S
C534   N572    1.364   .     A
C535   N571    1.363   .     A
C535   C537    1.406   .     A
C535   H567    1.081   .     S
C536   N572    1.362   .     A
C536   C538    1.405   .     A
C536   H568    1.076   .     S
C537   C539    1.407   .     A
C537   H569    1.083   .     S
C538   H570    1.083   .     S
C538   C540    1.406   .     A
C540   C11     1.509   1_556 S
C541   O579    1.290   .     A
C541   O577    1.276   .     A
C541   C543    1.444   .     S
C542   O580    1.287   .     A
C542   C544    1.445   .     S
C542   O578    1.280   .     A
C543   C720    1.371   1_455 S
C543   C757    1.541   1_455 S
C544   C631    1.371   .     S
C544   C679    1.545   .     S
C545   C555    1.402   .     A
C545   H559    1.083   .     S
C545   C547    1.386   .     A
C546   C556    1.402   .     A
C546   H560    1.083   .     S
C546   C548    1.388   .     A
C547   C549    1.398   .     A
C547   H561    1.084   .     S
C548   H562    1.084   .     S
C548   C550    1.403   .     A
C549   C551    1.420   .     A
C550   C552    1.419   .     A
C551   C601    1.492   .     S
C551   C553    1.400   .     A
C552   C554    1.397   .     A
C552   C605    1.482   .     S
C553   H563    1.083   .     S
C553   C555    1.403   .     A
C554   H564    1.084   .     S
C554   C556    1.401   .     A
C555   C820    1.473   1_545 S
C556   C819    1.473   .     S
Cu557  O576    1.958   .     S
Cu557  O577    1.976   .     S
Cu557  O573    1.955   .     S
Cu557  Cu558   2.667   .     S
Cu557  N572    2.004   .     S
Cu557  O580    1.972   .     S
Cu558  O579    1.972   .     S
Cu558  O578    1.976   .     S
Cu558  O575    1.958   .     S
Cu558  N571    2.004   .     S
Cu558  O574    1.955   .     S
C581   H589    1.111   .     S
C581   H590    1.113   .     S
C581   C631    1.541   .     S
C581   C670    1.541   .     S
C582   H588    1.110   .     S
C582   H587    1.108   .     S
C582   C583    1.526   .     S
C582   C757    1.541   1_455 S
C583   H586    1.111   .     S
C583   H760    1.109   1_455 S
C583   H761    1.111   1_455 S
H584   C671    1.109   .     S
H585   C671    1.111   .     S
C591   H599    1.113   .     S
C591   H600    1.111   .     S
C591   C720    1.545   1_455 S
C591   C768    1.537   1_455 S
C592   H598    1.107   .     S
C592   H597    1.109   .     S
C592   C593    1.527   .     S
C592   C679    1.537   .     S
C593   H596    1.110   .     S
C593   H682    1.111   .     S
C593   H683    1.111   .     S
H594   C769    1.111   1_455 S
H595   C769    1.111   1_455 S
C601   O602    1.221   .     D
C601   O603    1.399   .     S
O603   H692    1.014   .     S
H604   O779    1.014   1_455 S
C605   O606    1.222   .     D
C605   O607    1.398   .     S
O607   H608    1.014   .     S
C609   O610    1.223   .     D
C609   O611    1.398   .     S
O611   H612    1.014   .     S
C613   O615    1.399   .     S
C613   O86     1.223   1_556 S
O615   H616    1.014   .     S
C617   C637    1.453   .     S
C617   O663    1.286   .     A
C617   O661    1.290   .     A
C618   O662    1.292   .     A
C618   C638    1.467   .     S
C618   O664    1.291   .     A
C619   C697    1.485   .     S
C619   C621    1.415   .     A
C619   C627    1.421   .     A
C620   C628    1.422   .     A
C620   C622    1.416   .     A
C620   C701    1.489   .     S
C621   H653    1.082   .     S
C621   N659    1.365   .     A
C622   H654    1.079   .     S
C622   N660    1.364   .     A
C623   N659    1.363   .     A
C623   C625    1.406   .     A
C623   H655    1.081   .     S
C624   N660    1.362   .     A
C624   C626    1.405   .     A
C624   H656    1.076   .     S
C625   C627    1.407   .     A
C625   H657    1.083   .     S
C626   H658    1.083   .     S
C626   C628    1.406   .     A
C628   C99     1.509   1_556 S
C629   O667    1.290   .     A
C629   O665    1.276   .     A
C629   C631    1.444   .     S
C630   O668    1.287   .     A
C630   C632    1.445   .     S
C630   O666    1.280   .     A
C632   C719    1.371   .     S
C632   C767    1.545   .     S
C633   C643    1.402   .     A
C633   H647    1.083   .     S
C633   C635    1.386   .     A
C634   C644    1.402   .     A
C634   H648    1.083   .     S
C634   C636    1.388   .     A
C635   C637    1.398   .     A
C635   H649    1.084   .     S
C636   H650    1.084   .     S
C636   C638    1.403   .     A
C637   C639    1.420   .     A
C638   C640    1.419   .     A
C639   C689    1.492   .     S
C639   C641    1.400   .     A
C640   C642    1.397   .     A
C640   C693    1.482   .     S
C641   H651    1.083   .     S
C641   C643    1.403   .     A
C642   H652    1.084   .     S
C642   C644    1.401   .     A
C643   C908    1.473   1_545 S
C644   C907    1.473   .     S
Cu645  O664    1.958   .     S
Cu645  O665    1.976   .     S
Cu645  O661    1.955   .     S
Cu645  Cu646   2.667   .     S
Cu645  N660    2.004   .     S
Cu645  O668    1.972   .     S
Cu646  O667    1.972   .     S
Cu646  O666    1.976   .     S
Cu646  O663    1.958   .     S
Cu646  N659    2.004   .     S
Cu646  O662    1.955   .     S
C669   H677    1.111   .     S
C669   H678    1.113   .     S
C669   C719    1.541   .     S
C669   C758    1.541   .     S
C670   H676    1.110   .     S
C670   H675    1.108   .     S
C670   C671    1.526   .     S
C671   H674    1.111   .     S
H672   C759    1.109   .     S
H673   C759    1.111   .     S
C679   H687    1.113   .     S
C679   H688    1.111   .     S
C680   H686    1.107   .     S
C680   H685    1.109   .     S
C680   C681    1.527   .     S
C680   C767    1.537   .     S
C681   H684    1.110   .     S
C681   H770    1.111   .     S
C681   H771    1.111   .     S
C689   O690    1.221   .     D
C689   O691    1.399   .     S
O691   H780    1.014   .     S
C693   O694    1.222   .     D
C693   O695    1.398   .     S
O695   H696    1.014   .     S
C697   O698    1.223   .     D
C697   O699    1.398   .     S
O699   H700    1.014   .     S
C701   O703    1.399   .     S
C701   O174    1.223   1_556 S
O703   H704    1.014   .     S
C705   C725    1.453   .     S
C705   O751    1.286   .     A
C705   O749    1.290   .     A
C706   O750    1.292   .     A
C706   C726    1.467   .     S
C706   O752    1.291   .     A
C707   C785    1.485   .     S
C707   C709    1.415   .     A
C707   C715    1.421   .     A
C708   C716    1.422   .     A
C708   C710    1.416   .     A
C708   C789    1.489   .     S
C709   H741    1.082   .     S
C709   N747    1.365   .     A
C710   H742    1.079   .     S
C710   N748    1.364   .     A
C711   N747    1.363   .     A
C711   C713    1.406   .     A
C711   H743    1.081   .     S
C712   N748    1.362   .     A
C712   C714    1.405   .     A
C712   H744    1.076   .     S
C713   C715    1.407   .     A
C713   H745    1.083   .     S
C714   H746    1.083   .     S
C714   C716    1.406   .     A
C716   C187    1.509   1_556 S
C717   O755    1.290   .     A
C717   O753    1.276   .     A
C717   C719    1.444   .     S
C718   O756    1.287   .     A
C718   C720    1.445   .     S
C718   O754    1.280   .     A
C720   C543    1.371   1_655 S
C720   C591    1.545   1_655 S
C721   C731    1.402   .     A
C721   H735    1.083   .     S
C721   C723    1.386   .     A
C722   C732    1.402   .     A
C722   H736    1.083   .     S
C722   C724    1.388   .     A
C723   C725    1.398   .     A
C723   H737    1.084   .     S
C724   H738    1.084   .     S
C724   C726    1.403   .     A
C725   C727    1.420   .     A
C726   C728    1.419   .     A
C727   C777    1.492   .     S
C727   C729    1.400   .     A
C728   C730    1.397   .     A
C728   C781    1.482   .     S
C729   H739    1.083   .     S
C729   C731    1.403   .     A
C730   H740    1.084   .     S
C730   C732    1.401   .     A
C731   C996    1.473   1_545 S
C732   C995    1.473   .     S
Cu733  O752    1.958   .     S
Cu733  O753    1.976   .     S
Cu733  O749    1.955   .     S
Cu733  Cu734   2.667   .     S
Cu733  N748    2.004   .     S
Cu733  O756    1.972   .     S
Cu734  O755    1.972   .     S
Cu734  O754    1.976   .     S
Cu734  O751    1.958   .     S
Cu734  N747    2.004   .     S
Cu734  O750    1.955   .     S
C757   H765    1.111   .     S
C757   H766    1.113   .     S
C757   C543    1.541   1_655 S
C757   C582    1.541   1_655 S
C758   H764    1.110   .     S
C758   H763    1.108   .     S
C758   C759    1.526   .     S
C759   H762    1.111   .     S
H760   C583    1.109   1_655 S
H761   C583    1.111   1_655 S
C767   H775    1.113   .     S
C767   H776    1.111   .     S
C768   H774    1.107   .     S
C768   H773    1.109   .     S
C768   C769    1.527   .     S
C768   C591    1.537   1_655 S
C769   H772    1.110   .     S
C769   H594    1.111   1_655 S
C769   H595    1.111   1_655 S
C777   O778    1.221   .     D
C777   O779    1.399   .     S
O779   H604    1.014   1_655 S
C781   O782    1.222   .     D
C781   O783    1.398   .     S
O783   H784    1.014   .     S
C785   O786    1.223   .     D
C785   O787    1.398   .     S
O787   H788    1.014   .     S
C789   O791    1.399   .     S
C789   O262    1.223   1_556 S
O791   H792    1.014   .     S
C793   C813    1.453   .     S
C793   O839    1.286   .     A
C793   O837    1.290   .     A
C794   O838    1.292   .     A
C794   C814    1.467   .     S
C794   O840    1.291   .     A
C795   C873    1.485   .     S
C795   C797    1.415   .     A
C795   C803    1.421   .     A
C796   C804    1.422   .     A
C796   C798    1.416   .     A
C796   C877    1.489   .     S
C797   H829    1.082   .     S
C797   N835    1.365   .     A
C798   H830    1.079   .     S
C798   N836    1.364   .     A
C799   N835    1.363   .     A
C799   C801    1.406   .     A
C799   H831    1.081   .     S
C800   N836    1.362   .     A
C800   C802    1.405   .     A
C800   H832    1.076   .     S
C801   C803    1.407   .     A
C801   H833    1.083   .     S
C802   H834    1.083   .     S
C802   C804    1.406   .     A
C804   C275    1.509   1_556 S
C805   O843    1.290   .     A
C805   O841    1.276   .     A
C805   C807    1.444   .     S
C806   O844    1.287   .     A
C806   C808    1.445   .     S
C806   O842    1.280   .     A
C807   C984    1.371   1_455 S
C807   C1021   1.541   1_455 S
C808   C895    1.371   .     S
C808   C943    1.545   .     S
C809   C819    1.402   .     A
C809   H823    1.083   .     S
C809   C811    1.386   .     A
C810   C820    1.402   .     A
C810   H824    1.083   .     S
C810   C812    1.388   .     A
C811   C813    1.398   .     A
C811   H825    1.084   .     S
C812   H826    1.084   .     S
C812   C814    1.403   .     A
C813   C815    1.420   .     A
C814   C816    1.419   .     A
C815   C865    1.492   .     S
C815   C817    1.400   .     A
C816   C818    1.397   .     A
C816   C869    1.482   .     S
C817   H827    1.083   .     S
C817   C819    1.403   .     A
C818   H828    1.084   .     S
C818   C820    1.401   .     A
C820   C555    1.473   1_565 S
Cu821  O840    1.958   .     S
Cu821  O841    1.976   .     S
Cu821  O837    1.955   .     S
Cu821  Cu822   2.667   .     S
Cu821  N836    2.004   .     S
Cu821  O844    1.972   .     S
Cu822  O843    1.972   .     S
Cu822  O842    1.976   .     S
Cu822  O839    1.958   .     S
Cu822  N835    2.004   .     S
Cu822  O838    1.955   .     S
C845   H853    1.111   .     S
C845   H854    1.113   .     S
C845   C895    1.541   .     S
C845   C934    1.541   .     S
C846   H852    1.110   .     S
C846   H851    1.108   .     S
C846   C847    1.526   .     S
C846   C1021   1.541   1_455 S
C847   H850    1.111   .     S
C847   H1024   1.109   1_455 S
C847   H1025   1.111   1_455 S
H848   C935    1.109   .     S
H849   C935    1.111   .     S
C855   H863    1.113   .     S
C855   H864    1.111   .     S
C855   C984    1.545   1_455 S
C855   C1032   1.537   1_455 S
C856   H862    1.107   .     S
C856   H861    1.109   .     S
C856   C857    1.527   .     S
C856   C943    1.537   .     S
C857   H860    1.110   .     S
C857   H946    1.111   .     S
C857   H947    1.111   .     S
H858   C1033   1.111   1_455 S
H859   C1033   1.111   1_455 S
C865   O866    1.221   .     D
C865   O867    1.399   .     S
O867   H956    1.014   .     S
H868   O1043   1.014   1_455 S
C869   O870    1.222   .     D
C869   O871    1.398   .     S
O871   H872    1.014   .     S
C873   O874    1.223   .     D
C873   O875    1.398   .     S
O875   H876    1.014   .     S
C877   O879    1.399   .     S
C877   O350    1.223   1_556 S
O879   H880    1.014   .     S
C881   C901    1.453   .     S
C881   O927    1.286   .     A
C881   O925    1.290   .     A
C882   O926    1.292   .     A
C882   C902    1.467   .     S
C882   O928    1.291   .     A
C883   C961    1.485   .     S
C883   C885    1.415   .     A
C883   C891    1.421   .     A
C884   C892    1.422   .     A
C884   C886    1.416   .     A
C884   C965    1.489   .     S
C885   H917    1.082   .     S
C885   N923    1.365   .     A
C886   H918    1.079   .     S
C886   N924    1.364   .     A
C887   N923    1.363   .     A
C887   C889    1.406   .     A
C887   H919    1.081   .     S
C888   N924    1.362   .     A
C888   C890    1.405   .     A
C888   H920    1.076   .     S
C889   C891    1.407   .     A
C889   H921    1.083   .     S
C890   H922    1.083   .     S
C890   C892    1.406   .     A
C892   C363    1.509   1_556 S
C893   O931    1.290   .     A
C893   O929    1.276   .     A
C893   C895    1.444   .     S
C894   O932    1.287   .     A
C894   C896    1.445   .     S
C894   O930    1.280   .     A
C896   C983    1.371   .     S
C896   C1031   1.545   .     S
C897   C907    1.402   .     A
C897   H911    1.083   .     S
C897   C899    1.386   .     A
C898   C908    1.402   .     A
C898   H912    1.083   .     S
C898   C900    1.388   .     A
C899   C901    1.398   .     A
C899   H913    1.084   .     S
C900   H914    1.084   .     S
C900   C902    1.403   .     A
C901   C903    1.420   .     A
C902   C904    1.419   .     A
C903   C953    1.492   .     S
C903   C905    1.400   .     A
C904   C906    1.397   .     A
C904   C957    1.482   .     S
C905   H915    1.083   .     S
C905   C907    1.403   .     A
C906   H916    1.084   .     S
C906   C908    1.401   .     A
C908   C643    1.473   1_565 S
Cu909  O928    1.958   .     S
Cu909  O929    1.976   .     S
Cu909  O925    1.955   .     S
Cu909  Cu910   2.667   .     S
Cu909  N924    2.004   .     S
Cu909  O932    1.972   .     S
Cu910  O931    1.972   .     S
Cu910  O930    1.976   .     S
Cu910  O927    1.958   .     S
Cu910  N923    2.004   .     S
Cu910  O926    1.955   .     S
C933   H941    1.111   .     S
C933   H942    1.113   .     S
C933   C983    1.541   .     S
C933   C1022   1.541   .     S
C934   H940    1.110   .     S
C934   H939    1.108   .     S
C934   C935    1.526   .     S
C935   H938    1.111   .     S
H936   C1023   1.109   .     S
H937   C1023   1.111   .     S
C943   H951    1.113   .     S
C943   H952    1.111   .     S
C944   H950    1.107   .     S
C944   H949    1.109   .     S
C944   C945    1.527   .     S
C944   C1031   1.537   .     S
C945   H948    1.110   .     S
C945   H1034   1.111   .     S
C945   H1035   1.111   .     S
C953   O954    1.221   .     D
C953   O955    1.399   .     S
O955   H1044   1.014   .     S
C957   O958    1.222   .     D
C957   O959    1.398   .     S
O959   H960    1.014   .     S
C961   O962    1.223   .     D
C961   O963    1.398   .     S
O963   H964    1.014   .     S
C965   O967    1.399   .     S
C965   O438    1.223   1_556 S
O967   H968    1.014   .     S
C969   C989    1.453   .     S
C969   O1015   1.286   .     A
C969   O1013   1.290   .     A
C970   O1014   1.292   .     A
C970   C990    1.467   .     S
C970   O1016   1.291   .     A
C971   C1049   1.485   .     S
C971   C973    1.415   .     A
C971   C979    1.421   .     A
C972   C980    1.422   .     A
C972   C974    1.416   .     A
C972   C1053   1.489   .     S
C973   H1005   1.082   .     S
C973   N1011   1.365   .     A
C974   H1006   1.079   .     S
C974   N1012   1.364   .     A
C975   N1011   1.363   .     A
C975   C977    1.406   .     A
C975   H1007   1.081   .     S
C976   N1012   1.362   .     A
C976   C978    1.405   .     A
C976   H1008   1.076   .     S
C977   C979    1.407   .     A
C977   H1009   1.083   .     S
C978   H1010   1.083   .     S
C978   C980    1.406   .     A
C980   C451    1.509   1_556 S
C981   O1019   1.290   .     A
C981   O1017   1.276   .     A
C981   C983    1.444   .     S
C982   O1020   1.287   .     A
C982   C984    1.445   .     S
C982   O1018   1.280   .     A
C984   C807    1.371   1_655 S
C984   C855    1.545   1_655 S
C985   C995    1.402   .     A
C985   H999    1.083   .     S
C985   C987    1.386   .     A
C986   C996    1.402   .     A
C986   H1000   1.083   .     S
C986   C988    1.388   .     A
C987   C989    1.398   .     A
C987   H1001   1.084   .     S
C988   H1002   1.084   .     S
C988   C990    1.403   .     A
C989   C991    1.420   .     A
C990   C992    1.419   .     A
C991   C1041   1.492   .     S
C991   C993    1.400   .     A
C992   C994    1.397   .     A
C992   C1045   1.482   .     S
C993   H1003   1.083   .     S
C993   C995    1.403   .     A
C994   H1004   1.084   .     S
C994   C996    1.401   .     A
C996   C731    1.473   1_565 S
Cu997  O1016   1.958   .     S
Cu997  O1017   1.976   .     S
Cu997  O1013   1.955   .     S
Cu997  Cu998   2.667   .     S
Cu997  N1012   2.004   .     S
Cu997  O1020   1.972   .     S
Cu998  O1019   1.972   .     S
Cu998  O1018   1.976   .     S
Cu998  O1015   1.958   .     S
Cu998  N1011   2.004   .     S
Cu998  O1014   1.955   .     S
C1021  H1029   1.111   .     S
C1021  H1030   1.113   .     S
C1021  C807    1.541   1_655 S
C1021  C846    1.541   1_655 S
C1022  H1028   1.110   .     S
C1022  H1027   1.108   .     S
C1022  C1023   1.526   .     S
C1023  H1026   1.111   .     S
H1024  C847    1.109   1_655 S
H1025  C847    1.111   1_655 S
C1031  H1039   1.113   .     S
C1031  H1040   1.111   .     S
C1032  H1038   1.107   .     S
C1032  H1037   1.109   .     S
C1032  C1033   1.527   .     S
C1032  C855    1.537   1_655 S
C1033  H1036   1.110   .     S
C1033  H858    1.111   1_655 S
C1033  H859    1.111   1_655 S
C1041  O1042   1.221   .     D
C1041  O1043   1.399   .     S
O1043  H868    1.014   1_655 S
C1045  O1046   1.222   .     D
C1045  O1047   1.398   .     S
O1047  H1048   1.014   .     S
C1049  O1050   1.223   .     D
C1049  O1051   1.398   .     S
O1051  H1052   1.014   .     S
C1053  O1055   1.399   .     S
C1053  O526    1.223   1_556 S
O1055  H1056   1.014   .     S
