data_str_m2_o10_o17_pcu_sym.43
_audit_creation_date              2020-01-03
_audit_creation_method            'Materials Studio'
_symmetry_space_group_name_H-M    'P1'
_symmetry_Int_Tables_number       1
_symmetry_cell_setting            triclinic
loop_
_symmetry_equiv_pos_as_xyz
  x,y,z
_cell_length_a                    29.9313
_cell_length_b                    26.0296
_cell_length_c                    22.3591
_cell_angle_alpha                 102.8426
_cell_angle_beta                  93.9167
_cell_angle_gamma                 92.3638
loop_
_atom_site_label
_atom_site_type_symbol
_atom_site_fract_x
_atom_site_fract_y
_atom_site_fract_z
_atom_site_U_iso_or_equiv
_atom_site_adp_type
_atom_site_occupancy
C1     C     0.24865   0.06661   0.15113   0.00000  Uiso   1.00
C2     C     0.09037   0.12149   0.13657   0.00000  Uiso   1.00
C3     C     0.38355   0.16761   0.16386   0.00000  Uiso   1.00
C4     C     0.11645   0.16572   0.16947   0.00000  Uiso   1.00
C5     C     0.40326   0.12349   0.13122   0.00000  Uiso   1.00
C6     C     0.09674   0.20984   0.20211   0.00000  Uiso   1.00
C7     C     0.44983   0.12254   0.13282   0.00000  Uiso   1.00
C8     C     0.05017   0.21079   0.20051   0.00000  Uiso   1.00
C9     C     0.47658   0.16716   0.16588   0.00000  Uiso   1.00
C10    C     0.02342   0.16618   0.16746   0.00000  Uiso   1.00
C11    C     0.45641   0.21268   0.19730   0.00000  Uiso   1.00
C12    C     0.25135   0.26673   0.18221   0.00000  Uiso   1.00
C13    C     0.04359   0.12065   0.13603   0.00000  Uiso   1.00
C14    C     0.46985   0.07733   0.10272   0.00000  Uiso   1.00
C15    C     0.03015   0.25600   0.23061   0.00000  Uiso   1.00
C16    C     0.01665   0.07564   0.10457   0.00000  Uiso   1.00
C17    C     0.48335   0.25769   0.22877   0.00000  Uiso   1.00
C18    C     0.24800   0.01065   0.14237   0.00000  Uiso   1.00
C19    C     0.25200   0.32269   0.19096   0.00000  Uiso   1.00
C20    C     0.16455   0.16641   0.16759   0.00000  Uiso   1.00
C21    C     0.33545   0.16692   0.16574   0.00000  Uiso   1.00
C22    C     0.40963   0.21184   0.19676   0.00000  Uiso   1.00
Cu23   Cu    0.25501   0.17246   0.22813   0.00000  Uiso   1.00
Cu24   Cu    0.24500   0.16087   0.10521   0.00000  Uiso   1.00
H25    H     0.39305   0.24538   0.22163   0.00000  Uiso   1.00
H26    H     0.05289   0.01301   0.10990   0.00000  Uiso   1.00
H27    H     0.48775   0.00048   0.28053   0.00000  Uiso   1.00
H28    H     0.44711   0.32032   0.22344   0.00000  Uiso   1.00
H29    H     0.21506   0.12594   0.31628   0.00000  Uiso   1.00
H30    H     0.28494   0.20739   0.01705   0.00000  Uiso   1.00
H31    H     0.10695   0.08796   0.11170   0.00000  Uiso   1.00
H32    H     0.38229   0.08941   0.10633   0.00000  Uiso   1.00
H33    H     0.11771   0.24392   0.22700   0.00000  Uiso   1.00
H34    H     0.44897   0.04307   0.07824   0.00000  Uiso   1.00
H35    H     0.05103   0.29027   0.25509   0.00000  Uiso   1.00
H36    H     0.24423   0.32018   0.09552   0.00000  Uiso   1.00
H37    H     0.25577   0.01315   0.23781   0.00000  Uiso   1.00
H38    H     0.01226   0.33285   0.05280   0.00000  Uiso   1.00
N39    N     0.23745   0.15214   0.01284   0.00000  Uiso   1.00
N40    N     0.26256   0.18119   0.32049   0.00000  Uiso   1.00
N41    N     0.03687   0.02832   0.07519   0.00000  Uiso   1.00
N42    N     0.46314   0.30501   0.25815   0.00000  Uiso   1.00
O43    O     0.25326   0.09538   0.20659   0.00000  Uiso   1.00
O44    O     0.24675   0.23796   0.12674   0.00000  Uiso   1.00
O45    O     0.24480   0.08559   0.10279   0.00000  Uiso   1.00
O46    O     0.25520   0.24774   0.23055   0.00000  Uiso   1.00
O47    O     0.18936   0.17155   0.21857   0.00000  Uiso   1.00
O48    O     0.31065   0.16179   0.11476   0.00000  Uiso   1.00
O49    O     0.18090   0.16176   0.11477   0.00000  Uiso   1.00
O50    O     0.31910   0.17157   0.21857   0.00000  Uiso   1.00
C51    C     0.74865   0.06661   0.15113   0.00000  Uiso   1.00
C52    C     0.59037   0.12149   0.13657   0.00000  Uiso   1.00
C53    C     0.88355   0.16761   0.16386   0.00000  Uiso   1.00
C54    C     0.61645   0.16572   0.16947   0.00000  Uiso   1.00
C55    C     0.90326   0.12349   0.13122   0.00000  Uiso   1.00
C56    C     0.59674   0.20984   0.20211   0.00000  Uiso   1.00
C57    C     0.94983   0.12254   0.13282   0.00000  Uiso   1.00
C58    C     0.55017   0.21079   0.20051   0.00000  Uiso   1.00
C59    C     0.97658   0.16716   0.16588   0.00000  Uiso   1.00
C60    C     0.52342   0.16618   0.16746   0.00000  Uiso   1.00
C61    C     0.95641   0.21268   0.19730   0.00000  Uiso   1.00
C62    C     0.75135   0.26673   0.18221   0.00000  Uiso   1.00
C63    C     0.54359   0.12065   0.13603   0.00000  Uiso   1.00
C64    C     0.96985   0.07733   0.10272   0.00000  Uiso   1.00
C65    C     0.53015   0.25600   0.23061   0.00000  Uiso   1.00
C66    C     0.51665   0.07564   0.10457   0.00000  Uiso   1.00
C67    C     0.98335   0.25769   0.22877   0.00000  Uiso   1.00
C68    C     0.74800   0.01065   0.14237   0.00000  Uiso   1.00
C69    C     0.75200   0.32269   0.19096   0.00000  Uiso   1.00
C70    C     0.66455   0.16641   0.16759   0.00000  Uiso   1.00
C71    C     0.83545   0.16692   0.16574   0.00000  Uiso   1.00
C72    C     0.90963   0.21184   0.19676   0.00000  Uiso   1.00
Cu73   Cu    0.75501   0.17246   0.22813   0.00000  Uiso   1.00
Cu74   Cu    0.74500   0.16087   0.10521   0.00000  Uiso   1.00
H75    H     0.89305   0.24538   0.22163   0.00000  Uiso   1.00
H76    H     0.55289   0.01301   0.10990   0.00000  Uiso   1.00
H77    H     0.98775   0.00048   0.28053   0.00000  Uiso   1.00
H78    H     0.94711   0.32032   0.22344   0.00000  Uiso   1.00
H79    H     0.71506   0.12594   0.31628   0.00000  Uiso   1.00
H80    H     0.78494   0.20739   0.01705   0.00000  Uiso   1.00
H81    H     0.60695   0.08796   0.11170   0.00000  Uiso   1.00
H82    H     0.88229   0.08941   0.10633   0.00000  Uiso   1.00
H83    H     0.61771   0.24392   0.22700   0.00000  Uiso   1.00
H84    H     0.94897   0.04307   0.07824   0.00000  Uiso   1.00
H85    H     0.55103   0.29027   0.25509   0.00000  Uiso   1.00
H86    H     0.74423   0.32018   0.09552   0.00000  Uiso   1.00
H87    H     0.75577   0.01315   0.23781   0.00000  Uiso   1.00
H88    H     0.51226   0.33285   0.05280   0.00000  Uiso   1.00
N89    N     0.73745   0.15214   0.01284   0.00000  Uiso   1.00
N90    N     0.76256   0.18119   0.32049   0.00000  Uiso   1.00
N91    N     0.53687   0.02832   0.07519   0.00000  Uiso   1.00
N92    N     0.96314   0.30501   0.25815   0.00000  Uiso   1.00
O93    O     0.75326   0.09538   0.20659   0.00000  Uiso   1.00
O94    O     0.74675   0.23796   0.12674   0.00000  Uiso   1.00
O95    O     0.74480   0.08559   0.10279   0.00000  Uiso   1.00
O96    O     0.75520   0.24774   0.23055   0.00000  Uiso   1.00
O97    O     0.68936   0.17155   0.21857   0.00000  Uiso   1.00
O98    O     0.81065   0.16179   0.11476   0.00000  Uiso   1.00
O99    O     0.68090   0.16176   0.11477   0.00000  Uiso   1.00
O100   O     0.81910   0.17157   0.21857   0.00000  Uiso   1.00
C101   C     0.24865   0.39994   0.15113   0.00000  Uiso   1.00
C102   C     0.09037   0.45483   0.13657   0.00000  Uiso   1.00
C103   C     0.38355   0.50095   0.16386   0.00000  Uiso   1.00
C104   C     0.11645   0.49905   0.16947   0.00000  Uiso   1.00
C105   C     0.40326   0.45682   0.13122   0.00000  Uiso   1.00
C106   C     0.09674   0.54318   0.20211   0.00000  Uiso   1.00
C107   C     0.44983   0.45588   0.13282   0.00000  Uiso   1.00
C108   C     0.05017   0.54412   0.20051   0.00000  Uiso   1.00
C109   C     0.47658   0.50049   0.16588   0.00000  Uiso   1.00
C110   C     0.02342   0.49951   0.16746   0.00000  Uiso   1.00
C111   C     0.45641   0.54601   0.19730   0.00000  Uiso   1.00
C112   C     0.25135   0.60006   0.18221   0.00000  Uiso   1.00
C113   C     0.04359   0.45399   0.13603   0.00000  Uiso   1.00
C114   C     0.46985   0.41066   0.10272   0.00000  Uiso   1.00
C115   C     0.03015   0.58934   0.23061   0.00000  Uiso   1.00
C116   C     0.01665   0.40898   0.10457   0.00000  Uiso   1.00
C117   C     0.48335   0.59102   0.22877   0.00000  Uiso   1.00
C118   C     0.24800   0.34398   0.14237   0.00000  Uiso   1.00
C119   C     0.25200   0.65602   0.19096   0.00000  Uiso   1.00
C120   C     0.16455   0.49974   0.16759   0.00000  Uiso   1.00
C121   C     0.33545   0.50026   0.16574   0.00000  Uiso   1.00
C122   C     0.40963   0.54517   0.19676   0.00000  Uiso   1.00
Cu123  Cu    0.25501   0.50579   0.22813   0.00000  Uiso   1.00
Cu124  Cu    0.24500   0.49421   0.10521   0.00000  Uiso   1.00
H125   H     0.39305   0.57871   0.22163   0.00000  Uiso   1.00
H126   H     0.05289   0.34635   0.10990   0.00000  Uiso   1.00
H127   H     0.48775   0.33382   0.28053   0.00000  Uiso   1.00
H128   H     0.44711   0.65365   0.22344   0.00000  Uiso   1.00
H129   H     0.21506   0.45928   0.31628   0.00000  Uiso   1.00
H130   H     0.28494   0.54073   0.01705   0.00000  Uiso   1.00
H131   H     0.10695   0.42129   0.11170   0.00000  Uiso   1.00
H132   H     0.38229   0.42275   0.10633   0.00000  Uiso   1.00
H133   H     0.11771   0.57725   0.22700   0.00000  Uiso   1.00
H134   H     0.44897   0.37640   0.07824   0.00000  Uiso   1.00
H135   H     0.05103   0.62360   0.25509   0.00000  Uiso   1.00
H136   H     0.24423   0.65352   0.09552   0.00000  Uiso   1.00
H137   H     0.25577   0.34648   0.23781   0.00000  Uiso   1.00
H138   H     0.01226   0.66618   0.05280   0.00000  Uiso   1.00
N139   N     0.23745   0.48547   0.01284   0.00000  Uiso   1.00
N140   N     0.26256   0.51453   0.32049   0.00000  Uiso   1.00
N141   N     0.03687   0.36166   0.07519   0.00000  Uiso   1.00
N142   N     0.46314   0.63835   0.25815   0.00000  Uiso   1.00
O143   O     0.25326   0.42871   0.20659   0.00000  Uiso   1.00
O144   O     0.24675   0.57129   0.12674   0.00000  Uiso   1.00
O145   O     0.24480   0.41892   0.10279   0.00000  Uiso   1.00
O146   O     0.25520   0.58108   0.23055   0.00000  Uiso   1.00
O147   O     0.18936   0.50488   0.21857   0.00000  Uiso   1.00
O148   O     0.31065   0.49512   0.11476   0.00000  Uiso   1.00
O149   O     0.18090   0.49510   0.11477   0.00000  Uiso   1.00
O150   O     0.31910   0.50490   0.21857   0.00000  Uiso   1.00
C151   C     0.74865   0.39994   0.15113   0.00000  Uiso   1.00
C152   C     0.59037   0.45483   0.13657   0.00000  Uiso   1.00
C153   C     0.88355   0.50095   0.16386   0.00000  Uiso   1.00
C154   C     0.61645   0.49905   0.16947   0.00000  Uiso   1.00
C155   C     0.90326   0.45682   0.13122   0.00000  Uiso   1.00
C156   C     0.59674   0.54318   0.20211   0.00000  Uiso   1.00
C157   C     0.94983   0.45588   0.13282   0.00000  Uiso   1.00
C158   C     0.55017   0.54412   0.20051   0.00000  Uiso   1.00
C159   C     0.97658   0.50049   0.16588   0.00000  Uiso   1.00
C160   C     0.52342   0.49951   0.16746   0.00000  Uiso   1.00
C161   C     0.95641   0.54601   0.19730   0.00000  Uiso   1.00
C162   C     0.75135   0.60006   0.18221   0.00000  Uiso   1.00
C163   C     0.54359   0.45399   0.13603   0.00000  Uiso   1.00
C164   C     0.96985   0.41066   0.10272   0.00000  Uiso   1.00
C165   C     0.53015   0.58934   0.23061   0.00000  Uiso   1.00
C166   C     0.51665   0.40898   0.10457   0.00000  Uiso   1.00
C167   C     0.98335   0.59102   0.22877   0.00000  Uiso   1.00
C168   C     0.74800   0.34398   0.14237   0.00000  Uiso   1.00
C169   C     0.75200   0.65602   0.19096   0.00000  Uiso   1.00
C170   C     0.66455   0.49974   0.16759   0.00000  Uiso   1.00
C171   C     0.83545   0.50026   0.16574   0.00000  Uiso   1.00
C172   C     0.90963   0.54517   0.19676   0.00000  Uiso   1.00
Cu173  Cu    0.75501   0.50579   0.22813   0.00000  Uiso   1.00
Cu174  Cu    0.74500   0.49421   0.10521   0.00000  Uiso   1.00
H175   H     0.89305   0.57871   0.22163   0.00000  Uiso   1.00
H176   H     0.55289   0.34635   0.10990   0.00000  Uiso   1.00
H177   H     0.98775   0.33382   0.28053   0.00000  Uiso   1.00
H178   H     0.94711   0.65365   0.22344   0.00000  Uiso   1.00
H179   H     0.71506   0.45928   0.31628   0.00000  Uiso   1.00
H180   H     0.78494   0.54073   0.01705   0.00000  Uiso   1.00
H181   H     0.60695   0.42129   0.11170   0.00000  Uiso   1.00
H182   H     0.88229   0.42275   0.10633   0.00000  Uiso   1.00
H183   H     0.61771   0.57725   0.22700   0.00000  Uiso   1.00
H184   H     0.94897   0.37640   0.07824   0.00000  Uiso   1.00
H185   H     0.55103   0.62360   0.25509   0.00000  Uiso   1.00
H186   H     0.74423   0.65352   0.09552   0.00000  Uiso   1.00
H187   H     0.75577   0.34648   0.23781   0.00000  Uiso   1.00
H188   H     0.51226   0.66618   0.05280   0.00000  Uiso   1.00
N189   N     0.73745   0.48547   0.01284   0.00000  Uiso   1.00
N190   N     0.76256   0.51453   0.32049   0.00000  Uiso   1.00
N191   N     0.53687   0.36166   0.07519   0.00000  Uiso   1.00
N192   N     0.96314   0.63835   0.25815   0.00000  Uiso   1.00
O193   O     0.75326   0.42871   0.20659   0.00000  Uiso   1.00
O194   O     0.74675   0.57129   0.12674   0.00000  Uiso   1.00
O195   O     0.74480   0.41892   0.10279   0.00000  Uiso   1.00
O196   O     0.75520   0.58108   0.23055   0.00000  Uiso   1.00
O197   O     0.68936   0.50488   0.21857   0.00000  Uiso   1.00
O198   O     0.81065   0.49512   0.11476   0.00000  Uiso   1.00
O199   O     0.68090   0.49510   0.11477   0.00000  Uiso   1.00
O200   O     0.81910   0.50490   0.21857   0.00000  Uiso   1.00
C201   C     0.24865   0.73327   0.15113   0.00000  Uiso   1.00
C202   C     0.09037   0.78816   0.13657   0.00000  Uiso   1.00
C203   C     0.38355   0.83428   0.16386   0.00000  Uiso   1.00
C204   C     0.11645   0.83239   0.16947   0.00000  Uiso   1.00
C205   C     0.40326   0.79016   0.13122   0.00000  Uiso   1.00
C206   C     0.09674   0.87651   0.20211   0.00000  Uiso   1.00
C207   C     0.44983   0.78921   0.13282   0.00000  Uiso   1.00
C208   C     0.05017   0.87746   0.20051   0.00000  Uiso   1.00
C209   C     0.47658   0.83382   0.16588   0.00000  Uiso   1.00
C210   C     0.02342   0.83284   0.16746   0.00000  Uiso   1.00
C211   C     0.45641   0.87935   0.19730   0.00000  Uiso   1.00
C212   C     0.25135   0.93339   0.18221   0.00000  Uiso   1.00
C213   C     0.04359   0.78732   0.13603   0.00000  Uiso   1.00
C214   C     0.46985   0.74400   0.10272   0.00000  Uiso   1.00
C215   C     0.03015   0.92267   0.23061   0.00000  Uiso   1.00
C216   C     0.01665   0.74231   0.10457   0.00000  Uiso   1.00
C217   C     0.48335   0.92436   0.22877   0.00000  Uiso   1.00
C218   C     0.24800   0.67731   0.14237   0.00000  Uiso   1.00
C219   C     0.25200   0.98935   0.19096   0.00000  Uiso   1.00
C220   C     0.16455   0.83308   0.16759   0.00000  Uiso   1.00
C221   C     0.33545   0.83359   0.16574   0.00000  Uiso   1.00
C222   C     0.40963   0.87851   0.19676   0.00000  Uiso   1.00
Cu223  Cu    0.25501   0.83913   0.22813   0.00000  Uiso   1.00
Cu224  Cu    0.24500   0.82754   0.10521   0.00000  Uiso   1.00
H225   H     0.39305   0.91204   0.22163   0.00000  Uiso   1.00
H226   H     0.05289   0.67968   0.10990   0.00000  Uiso   1.00
H227   H     0.48775   0.66715   0.28053   0.00000  Uiso   1.00
H228   H     0.44711   0.98699   0.22344   0.00000  Uiso   1.00
H229   H     0.21506   0.79261   0.31628   0.00000  Uiso   1.00
H230   H     0.28494   0.87406   0.01705   0.00000  Uiso   1.00
H231   H     0.10695   0.75462   0.11170   0.00000  Uiso   1.00
H232   H     0.38229   0.75608   0.10633   0.00000  Uiso   1.00
H233   H     0.11771   0.91059   0.22700   0.00000  Uiso   1.00
H234   H     0.44897   0.70973   0.07824   0.00000  Uiso   1.00
H235   H     0.05103   0.95693   0.25509   0.00000  Uiso   1.00
H236   H     0.24423   0.98685   0.09552   0.00000  Uiso   1.00
H237   H     0.25577   0.67982   0.23781   0.00000  Uiso   1.00
H238   H     0.01226   0.99952   0.05280   0.00000  Uiso   1.00
N239   N     0.23745   0.81881   0.01284   0.00000  Uiso   1.00
N240   N     0.26256   0.84786   0.32049   0.00000  Uiso   1.00
N241   N     0.03687   0.69499   0.07519   0.00000  Uiso   1.00
N242   N     0.46314   0.97168   0.25815   0.00000  Uiso   1.00
O243   O     0.25326   0.76204   0.20659   0.00000  Uiso   1.00
O244   O     0.24675   0.90462   0.12674   0.00000  Uiso   1.00
O245   O     0.24480   0.75226   0.10279   0.00000  Uiso   1.00
O246   O     0.25520   0.91441   0.23055   0.00000  Uiso   1.00
O247   O     0.18936   0.83821   0.21857   0.00000  Uiso   1.00
O248   O     0.31065   0.82845   0.11476   0.00000  Uiso   1.00
O249   O     0.18090   0.82843   0.11477   0.00000  Uiso   1.00
O250   O     0.31910   0.83824   0.21857   0.00000  Uiso   1.00
C251   C     0.74865   0.73327   0.15113   0.00000  Uiso   1.00
C252   C     0.59037   0.78816   0.13657   0.00000  Uiso   1.00
C253   C     0.88355   0.83428   0.16386   0.00000  Uiso   1.00
C254   C     0.61645   0.83239   0.16947   0.00000  Uiso   1.00
C255   C     0.90326   0.79016   0.13122   0.00000  Uiso   1.00
C256   C     0.59674   0.87651   0.20211   0.00000  Uiso   1.00
C257   C     0.94983   0.78921   0.13282   0.00000  Uiso   1.00
C258   C     0.55017   0.87746   0.20051   0.00000  Uiso   1.00
C259   C     0.97658   0.83382   0.16588   0.00000  Uiso   1.00
C260   C     0.52342   0.83284   0.16746   0.00000  Uiso   1.00
C261   C     0.95641   0.87935   0.19730   0.00000  Uiso   1.00
C262   C     0.75135   0.93339   0.18221   0.00000  Uiso   1.00
C263   C     0.54359   0.78732   0.13603   0.00000  Uiso   1.00
C264   C     0.96985   0.74400   0.10272   0.00000  Uiso   1.00
C265   C     0.53015   0.92267   0.23061   0.00000  Uiso   1.00
C266   C     0.51665   0.74231   0.10457   0.00000  Uiso   1.00
C267   C     0.98335   0.92436   0.22877   0.00000  Uiso   1.00
C268   C     0.74800   0.67731   0.14237   0.00000  Uiso   1.00
C269   C     0.75200   0.98935   0.19096   0.00000  Uiso   1.00
C270   C     0.66455   0.83308   0.16759   0.00000  Uiso   1.00
C271   C     0.83545   0.83359   0.16574   0.00000  Uiso   1.00
C272   C     0.90963   0.87851   0.19676   0.00000  Uiso   1.00
Cu273  Cu    0.75501   0.83913   0.22813   0.00000  Uiso   1.00
Cu274  Cu    0.74500   0.82754   0.10521   0.00000  Uiso   1.00
H275   H     0.89305   0.91204   0.22163   0.00000  Uiso   1.00
H276   H     0.55289   0.67968   0.10990   0.00000  Uiso   1.00
H277   H     0.98775   0.66715   0.28053   0.00000  Uiso   1.00
H278   H     0.94711   0.98699   0.22344   0.00000  Uiso   1.00
H279   H     0.71506   0.79261   0.31628   0.00000  Uiso   1.00
H280   H     0.78494   0.87406   0.01705   0.00000  Uiso   1.00
H281   H     0.60695   0.75462   0.11170   0.00000  Uiso   1.00
H282   H     0.88229   0.75608   0.10633   0.00000  Uiso   1.00
H283   H     0.61771   0.91059   0.22700   0.00000  Uiso   1.00
H284   H     0.94897   0.70973   0.07824   0.00000  Uiso   1.00
H285   H     0.55103   0.95693   0.25509   0.00000  Uiso   1.00
H286   H     0.74423   0.98685   0.09552   0.00000  Uiso   1.00
H287   H     0.75577   0.67982   0.23781   0.00000  Uiso   1.00
H288   H     0.51226   0.99952   0.05280   0.00000  Uiso   1.00
N289   N     0.73745   0.81881   0.01284   0.00000  Uiso   1.00
N290   N     0.76256   0.84786   0.32049   0.00000  Uiso   1.00
N291   N     0.53687   0.69499   0.07519   0.00000  Uiso   1.00
N292   N     0.96314   0.97168   0.25815   0.00000  Uiso   1.00
O293   O     0.75326   0.76204   0.20659   0.00000  Uiso   1.00
O294   O     0.74675   0.90462   0.12674   0.00000  Uiso   1.00
O295   O     0.74480   0.75226   0.10279   0.00000  Uiso   1.00
O296   O     0.75520   0.91441   0.23055   0.00000  Uiso   1.00
O297   O     0.68936   0.83821   0.21857   0.00000  Uiso   1.00
O298   O     0.81065   0.82845   0.11476   0.00000  Uiso   1.00
O299   O     0.68090   0.82843   0.11477   0.00000  Uiso   1.00
O300   O     0.81910   0.83824   0.21857   0.00000  Uiso   1.00
C301   C     0.24865   0.06661   0.48446   0.00000  Uiso   1.00
C302   C     0.09037   0.12149   0.46991   0.00000  Uiso   1.00
C303   C     0.38355   0.16761   0.49720   0.00000  Uiso   1.00
C304   C     0.11645   0.16572   0.50280   0.00000  Uiso   1.00
C305   C     0.40326   0.12349   0.46456   0.00000  Uiso   1.00
C306   C     0.09674   0.20984   0.53544   0.00000  Uiso   1.00
C307   C     0.44983   0.12254   0.46616   0.00000  Uiso   1.00
C308   C     0.05017   0.21079   0.53384   0.00000  Uiso   1.00
C309   C     0.47658   0.16716   0.49921   0.00000  Uiso   1.00
C310   C     0.02342   0.16618   0.50079   0.00000  Uiso   1.00
C311   C     0.45641   0.21268   0.53064   0.00000  Uiso   1.00
C312   C     0.25135   0.26673   0.51554   0.00000  Uiso   1.00
C313   C     0.04359   0.12065   0.46936   0.00000  Uiso   1.00
C314   C     0.46985   0.07733   0.43605   0.00000  Uiso   1.00
C315   C     0.03015   0.25600   0.56395   0.00000  Uiso   1.00
C316   C     0.01665   0.07564   0.43790   0.00000  Uiso   1.00
C317   C     0.48335   0.25769   0.56210   0.00000  Uiso   1.00
C318   C     0.24800   0.01065   0.47570   0.00000  Uiso   1.00
C319   C     0.25200   0.32269   0.52430   0.00000  Uiso   1.00
C320   C     0.16455   0.16641   0.50093   0.00000  Uiso   1.00
C321   C     0.33545   0.16692   0.49907   0.00000  Uiso   1.00
C322   C     0.40963   0.21184   0.53009   0.00000  Uiso   1.00
Cu323  Cu    0.25501   0.17246   0.56146   0.00000  Uiso   1.00
Cu324  Cu    0.24500   0.16087   0.43854   0.00000  Uiso   1.00
H325   H     0.39305   0.24538   0.55496   0.00000  Uiso   1.00
H326   H     0.05289   0.01301   0.44323   0.00000  Uiso   1.00
H327   H     0.48775   0.00048   0.61386   0.00000  Uiso   1.00
H328   H     0.44711   0.32032   0.55677   0.00000  Uiso   1.00
H329   H     0.21506   0.12594   0.64962   0.00000  Uiso   1.00
H330   H     0.28494   0.20739   0.35038   0.00000  Uiso   1.00
H331   H     0.10695   0.08796   0.44504   0.00000  Uiso   1.00
H332   H     0.38229   0.08941   0.43966   0.00000  Uiso   1.00
H333   H     0.11771   0.24392   0.56034   0.00000  Uiso   1.00
H334   H     0.44897   0.04307   0.41157   0.00000  Uiso   1.00
H335   H     0.05103   0.29027   0.58843   0.00000  Uiso   1.00
H336   H     0.24423   0.32018   0.42886   0.00000  Uiso   1.00
H337   H     0.25577   0.01315   0.57114   0.00000  Uiso   1.00
H338   H     0.01226   0.33285   0.38614   0.00000  Uiso   1.00
N339   N     0.23745   0.15214   0.34617   0.00000  Uiso   1.00
N340   N     0.26256   0.18119   0.65383   0.00000  Uiso   1.00
N341   N     0.03687   0.02832   0.40852   0.00000  Uiso   1.00
N342   N     0.46314   0.30501   0.59148   0.00000  Uiso   1.00
O343   O     0.25326   0.09538   0.53992   0.00000  Uiso   1.00
O344   O     0.24675   0.23796   0.46008   0.00000  Uiso   1.00
O345   O     0.24480   0.08559   0.43612   0.00000  Uiso   1.00
O346   O     0.25520   0.24774   0.56388   0.00000  Uiso   1.00
O347   O     0.18936   0.17155   0.55191   0.00000  Uiso   1.00
O348   O     0.31065   0.16179   0.44809   0.00000  Uiso   1.00
O349   O     0.18090   0.16176   0.44810   0.00000  Uiso   1.00
O350   O     0.31910   0.17157   0.55190   0.00000  Uiso   1.00
C351   C     0.74865   0.06661   0.48446   0.00000  Uiso   1.00
C352   C     0.59037   0.12149   0.46991   0.00000  Uiso   1.00
C353   C     0.88355   0.16761   0.49720   0.00000  Uiso   1.00
C354   C     0.61645   0.16572   0.50280   0.00000  Uiso   1.00
C355   C     0.90326   0.12349   0.46456   0.00000  Uiso   1.00
C356   C     0.59674   0.20984   0.53544   0.00000  Uiso   1.00
C357   C     0.94983   0.12254   0.46616   0.00000  Uiso   1.00
C358   C     0.55017   0.21079   0.53384   0.00000  Uiso   1.00
C359   C     0.97658   0.16716   0.49921   0.00000  Uiso   1.00
C360   C     0.52342   0.16618   0.50079   0.00000  Uiso   1.00
C361   C     0.95641   0.21268   0.53064   0.00000  Uiso   1.00
C362   C     0.75135   0.26673   0.51554   0.00000  Uiso   1.00
C363   C     0.54359   0.12065   0.46936   0.00000  Uiso   1.00
C364   C     0.96985   0.07733   0.43605   0.00000  Uiso   1.00
C365   C     0.53015   0.25600   0.56395   0.00000  Uiso   1.00
C366   C     0.51665   0.07564   0.43790   0.00000  Uiso   1.00
C367   C     0.98335   0.25769   0.56210   0.00000  Uiso   1.00
C368   C     0.74800   0.01065   0.47570   0.00000  Uiso   1.00
C369   C     0.75200   0.32269   0.52430   0.00000  Uiso   1.00
C370   C     0.66455   0.16641   0.50093   0.00000  Uiso   1.00
C371   C     0.83545   0.16692   0.49907   0.00000  Uiso   1.00
C372   C     0.90963   0.21184   0.53009   0.00000  Uiso   1.00
Cu373  Cu    0.75501   0.17246   0.56146   0.00000  Uiso   1.00
Cu374  Cu    0.74500   0.16087   0.43854   0.00000  Uiso   1.00
H375   H     0.89305   0.24538   0.55496   0.00000  Uiso   1.00
H376   H     0.55289   0.01301   0.44323   0.00000  Uiso   1.00
H377   H     0.98775   0.00048   0.61386   0.00000  Uiso   1.00
H378   H     0.94711   0.32032   0.55677   0.00000  Uiso   1.00
H379   H     0.71506   0.12594   0.64962   0.00000  Uiso   1.00
H380   H     0.78494   0.20739   0.35038   0.00000  Uiso   1.00
H381   H     0.60695   0.08796   0.44504   0.00000  Uiso   1.00
H382   H     0.88229   0.08941   0.43966   0.00000  Uiso   1.00
H383   H     0.61771   0.24392   0.56034   0.00000  Uiso   1.00
H384   H     0.94897   0.04307   0.41157   0.00000  Uiso   1.00
H385   H     0.55103   0.29027   0.58843   0.00000  Uiso   1.00
H386   H     0.74423   0.32018   0.42886   0.00000  Uiso   1.00
H387   H     0.75577   0.01315   0.57114   0.00000  Uiso   1.00
H388   H     0.51226   0.33285   0.38614   0.00000  Uiso   1.00
N389   N     0.73745   0.15214   0.34617   0.00000  Uiso   1.00
N390   N     0.76256   0.18119   0.65383   0.00000  Uiso   1.00
N391   N     0.53687   0.02832   0.40852   0.00000  Uiso   1.00
N392   N     0.96314   0.30501   0.59148   0.00000  Uiso   1.00
O393   O     0.75326   0.09538   0.53992   0.00000  Uiso   1.00
O394   O     0.74675   0.23796   0.46008   0.00000  Uiso   1.00
O395   O     0.74480   0.08559   0.43612   0.00000  Uiso   1.00
O396   O     0.75520   0.24774   0.56388   0.00000  Uiso   1.00
O397   O     0.68936   0.17155   0.55191   0.00000  Uiso   1.00
O398   O     0.81065   0.16179   0.44809   0.00000  Uiso   1.00
O399   O     0.68090   0.16176   0.44810   0.00000  Uiso   1.00
O400   O     0.81910   0.17157   0.55190   0.00000  Uiso   1.00
C401   C     0.24865   0.39994   0.48446   0.00000  Uiso   1.00
C402   C     0.09037   0.45483   0.46991   0.00000  Uiso   1.00
C403   C     0.38355   0.50095   0.49720   0.00000  Uiso   1.00
C404   C     0.11645   0.49905   0.50280   0.00000  Uiso   1.00
C405   C     0.40326   0.45682   0.46456   0.00000  Uiso   1.00
C406   C     0.09674   0.54318   0.53544   0.00000  Uiso   1.00
C407   C     0.44983   0.45588   0.46616   0.00000  Uiso   1.00
C408   C     0.05017   0.54412   0.53384   0.00000  Uiso   1.00
C409   C     0.47658   0.50049   0.49921   0.00000  Uiso   1.00
C410   C     0.02342   0.49951   0.50079   0.00000  Uiso   1.00
C411   C     0.45641   0.54601   0.53064   0.00000  Uiso   1.00
C412   C     0.25135   0.60006   0.51554   0.00000  Uiso   1.00
C413   C     0.04359   0.45399   0.46936   0.00000  Uiso   1.00
C414   C     0.46985   0.41066   0.43605   0.00000  Uiso   1.00
C415   C     0.03015   0.58934   0.56395   0.00000  Uiso   1.00
C416   C     0.01665   0.40898   0.43790   0.00000  Uiso   1.00
C417   C     0.48335   0.59102   0.56210   0.00000  Uiso   1.00
C418   C     0.24800   0.34398   0.47570   0.00000  Uiso   1.00
C419   C     0.25200   0.65602   0.52430   0.00000  Uiso   1.00
C420   C     0.16455   0.49974   0.50093   0.00000  Uiso   1.00
C421   C     0.33545   0.50026   0.49907   0.00000  Uiso   1.00
C422   C     0.40963   0.54517   0.53009   0.00000  Uiso   1.00
Cu423  Cu    0.25501   0.50579   0.56146   0.00000  Uiso   1.00
Cu424  Cu    0.24500   0.49421   0.43854   0.00000  Uiso   1.00
H425   H     0.39305   0.57871   0.55496   0.00000  Uiso   1.00
H426   H     0.05289   0.34635   0.44323   0.00000  Uiso   1.00
H427   H     0.48775   0.33382   0.61386   0.00000  Uiso   1.00
H428   H     0.44711   0.65365   0.55677   0.00000  Uiso   1.00
H429   H     0.21506   0.45928   0.64962   0.00000  Uiso   1.00
H430   H     0.28494   0.54073   0.35038   0.00000  Uiso   1.00
H431   H     0.10695   0.42129   0.44504   0.00000  Uiso   1.00
H432   H     0.38229   0.42275   0.43966   0.00000  Uiso   1.00
H433   H     0.11771   0.57725   0.56034   0.00000  Uiso   1.00
H434   H     0.44897   0.37640   0.41157   0.00000  Uiso   1.00
H435   H     0.05103   0.62360   0.58843   0.00000  Uiso   1.00
H436   H     0.24423   0.65352   0.42886   0.00000  Uiso   1.00
H437   H     0.25577   0.34648   0.57114   0.00000  Uiso   1.00
H438   H     0.01226   0.66618   0.38614   0.00000  Uiso   1.00
N439   N     0.23745   0.48547   0.34617   0.00000  Uiso   1.00
N440   N     0.26256   0.51453   0.65383   0.00000  Uiso   1.00
N441   N     0.03687   0.36166   0.40852   0.00000  Uiso   1.00
N442   N     0.46314   0.63835   0.59148   0.00000  Uiso   1.00
O443   O     0.25326   0.42871   0.53992   0.00000  Uiso   1.00
O444   O     0.24675   0.57129   0.46008   0.00000  Uiso   1.00
O445   O     0.24480   0.41892   0.43612   0.00000  Uiso   1.00
O446   O     0.25520   0.58108   0.56388   0.00000  Uiso   1.00
O447   O     0.18936   0.50488   0.55191   0.00000  Uiso   1.00
O448   O     0.31065   0.49512   0.44809   0.00000  Uiso   1.00
O449   O     0.18090   0.49510   0.44810   0.00000  Uiso   1.00
O450   O     0.31910   0.50490   0.55190   0.00000  Uiso   1.00
C451   C     0.74865   0.39994   0.48446   0.00000  Uiso   1.00
C452   C     0.59037   0.45483   0.46991   0.00000  Uiso   1.00
C453   C     0.88355   0.50095   0.49720   0.00000  Uiso   1.00
C454   C     0.61645   0.49905   0.50280   0.00000  Uiso   1.00
C455   C     0.90326   0.45682   0.46456   0.00000  Uiso   1.00
C456   C     0.59674   0.54318   0.53544   0.00000  Uiso   1.00
C457   C     0.94983   0.45588   0.46616   0.00000  Uiso   1.00
C458   C     0.55017   0.54412   0.53384   0.00000  Uiso   1.00
C459   C     0.97658   0.50049   0.49921   0.00000  Uiso   1.00
C460   C     0.52342   0.49951   0.50079   0.00000  Uiso   1.00
C461   C     0.95641   0.54601   0.53064   0.00000  Uiso   1.00
C462   C     0.75135   0.60006   0.51554   0.00000  Uiso   1.00
C463   C     0.54359   0.45399   0.46936   0.00000  Uiso   1.00
C464   C     0.96985   0.41066   0.43605   0.00000  Uiso   1.00
C465   C     0.53015   0.58934   0.56395   0.00000  Uiso   1.00
C466   C     0.51665   0.40898   0.43790   0.00000  Uiso   1.00
C467   C     0.98335   0.59102   0.56210   0.00000  Uiso   1.00
C468   C     0.74800   0.34398   0.47570   0.00000  Uiso   1.00
C469   C     0.75200   0.65602   0.52430   0.00000  Uiso   1.00
C470   C     0.66455   0.49974   0.50093   0.00000  Uiso   1.00
C471   C     0.83545   0.50026   0.49907   0.00000  Uiso   1.00
C472   C     0.90963   0.54517   0.53009   0.00000  Uiso   1.00
Cu473  Cu    0.75501   0.50579   0.56146   0.00000  Uiso   1.00
Cu474  Cu    0.74500   0.49421   0.43854   0.00000  Uiso   1.00
H475   H     0.89305   0.57871   0.55496   0.00000  Uiso   1.00
H476   H     0.55289   0.34635   0.44323   0.00000  Uiso   1.00
H477   H     0.98775   0.33382   0.61386   0.00000  Uiso   1.00
H478   H     0.94711   0.65365   0.55677   0.00000  Uiso   1.00
H479   H     0.71506   0.45928   0.64962   0.00000  Uiso   1.00
H480   H     0.78494   0.54073   0.35038   0.00000  Uiso   1.00
H481   H     0.60695   0.42129   0.44504   0.00000  Uiso   1.00
H482   H     0.88229   0.42275   0.43966   0.00000  Uiso   1.00
H483   H     0.61771   0.57725   0.56034   0.00000  Uiso   1.00
H484   H     0.94897   0.37640   0.41157   0.00000  Uiso   1.00
H485   H     0.55103   0.62360   0.58843   0.00000  Uiso   1.00
H486   H     0.74423   0.65352   0.42886   0.00000  Uiso   1.00
H487   H     0.75577   0.34648   0.57114   0.00000  Uiso   1.00
H488   H     0.51226   0.66618   0.38614   0.00000  Uiso   1.00
N489   N     0.73745   0.48547   0.34617   0.00000  Uiso   1.00
N490   N     0.76256   0.51453   0.65383   0.00000  Uiso   1.00
N491   N     0.53687   0.36166   0.40852   0.00000  Uiso   1.00
N492   N     0.96314   0.63835   0.59148   0.00000  Uiso   1.00
O493   O     0.75326   0.42871   0.53992   0.00000  Uiso   1.00
O494   O     0.74675   0.57129   0.46008   0.00000  Uiso   1.00
O495   O     0.74480   0.41892   0.43612   0.00000  Uiso   1.00
O496   O     0.75520   0.58108   0.56388   0.00000  Uiso   1.00
O497   O     0.68936   0.50488   0.55191   0.00000  Uiso   1.00
O498   O     0.81065   0.49512   0.44809   0.00000  Uiso   1.00
O499   O     0.68090   0.49510   0.44810   0.00000  Uiso   1.00
O500   O     0.81910   0.50490   0.55190   0.00000  Uiso   1.00
C501   C     0.24865   0.73327   0.48446   0.00000  Uiso   1.00
C502   C     0.09037   0.78816   0.46991   0.00000  Uiso   1.00
C503   C     0.38355   0.83428   0.49720   0.00000  Uiso   1.00
C504   C     0.11645   0.83239   0.50280   0.00000  Uiso   1.00
C505   C     0.40326   0.79016   0.46456   0.00000  Uiso   1.00
C506   C     0.09674   0.87651   0.53544   0.00000  Uiso   1.00
C507   C     0.44983   0.78921   0.46616   0.00000  Uiso   1.00
C508   C     0.05017   0.87746   0.53384   0.00000  Uiso   1.00
C509   C     0.47658   0.83382   0.49921   0.00000  Uiso   1.00
C510   C     0.02342   0.83284   0.50079   0.00000  Uiso   1.00
C511   C     0.45641   0.87935   0.53064   0.00000  Uiso   1.00
C512   C     0.25135   0.93339   0.51554   0.00000  Uiso   1.00
C513   C     0.04359   0.78732   0.46936   0.00000  Uiso   1.00
C514   C     0.46985   0.74400   0.43605   0.00000  Uiso   1.00
C515   C     0.03015   0.92267   0.56395   0.00000  Uiso   1.00
C516   C     0.01665   0.74231   0.43790   0.00000  Uiso   1.00
C517   C     0.48335   0.92436   0.56210   0.00000  Uiso   1.00
C518   C     0.24800   0.67731   0.47570   0.00000  Uiso   1.00
C519   C     0.25200   0.98935   0.52430   0.00000  Uiso   1.00
C520   C     0.16455   0.83308   0.50093   0.00000  Uiso   1.00
C521   C     0.33545   0.83359   0.49907   0.00000  Uiso   1.00
C522   C     0.40963   0.87851   0.53009   0.00000  Uiso   1.00
Cu523  Cu    0.25501   0.83913   0.56146   0.00000  Uiso   1.00
Cu524  Cu    0.24500   0.82754   0.43854   0.00000  Uiso   1.00
H525   H     0.39305   0.91204   0.55496   0.00000  Uiso   1.00
H526   H     0.05289   0.67968   0.44323   0.00000  Uiso   1.00
H527   H     0.48775   0.66715   0.61386   0.00000  Uiso   1.00
H528   H     0.44711   0.98699   0.55677   0.00000  Uiso   1.00
H529   H     0.21506   0.79261   0.64962   0.00000  Uiso   1.00
H530   H     0.28494   0.87406   0.35038   0.00000  Uiso   1.00
H531   H     0.10695   0.75462   0.44504   0.00000  Uiso   1.00
H532   H     0.38229   0.75608   0.43966   0.00000  Uiso   1.00
H533   H     0.11771   0.91059   0.56034   0.00000  Uiso   1.00
H534   H     0.44897   0.70973   0.41157   0.00000  Uiso   1.00
H535   H     0.05103   0.95693   0.58843   0.00000  Uiso   1.00
H536   H     0.24423   0.98685   0.42886   0.00000  Uiso   1.00
H537   H     0.25577   0.67982   0.57114   0.00000  Uiso   1.00
H538   H     0.01226   0.99952   0.38614   0.00000  Uiso   1.00
N539   N     0.23745   0.81881   0.34617   0.00000  Uiso   1.00
N540   N     0.26256   0.84786   0.65383   0.00000  Uiso   1.00
N541   N     0.03687   0.69499   0.40852   0.00000  Uiso   1.00
N542   N     0.46314   0.97168   0.59148   0.00000  Uiso   1.00
O543   O     0.25326   0.76204   0.53992   0.00000  Uiso   1.00
O544   O     0.24675   0.90462   0.46008   0.00000  Uiso   1.00
O545   O     0.24480   0.75226   0.43612   0.00000  Uiso   1.00
O546   O     0.25520   0.91441   0.56388   0.00000  Uiso   1.00
O547   O     0.18936   0.83821   0.55191   0.00000  Uiso   1.00
O548   O     0.31065   0.82845   0.44809   0.00000  Uiso   1.00
O549   O     0.18090   0.82843   0.44810   0.00000  Uiso   1.00
O550   O     0.31910   0.83824   0.55190   0.00000  Uiso   1.00
C551   C     0.74865   0.73327   0.48446   0.00000  Uiso   1.00
C552   C     0.59037   0.78816   0.46991   0.00000  Uiso   1.00
C553   C     0.88355   0.83428   0.49720   0.00000  Uiso   1.00
C554   C     0.61645   0.83239   0.50280   0.00000  Uiso   1.00
C555   C     0.90326   0.79016   0.46456   0.00000  Uiso   1.00
C556   C     0.59674   0.87651   0.53544   0.00000  Uiso   1.00
C557   C     0.94983   0.78921   0.46616   0.00000  Uiso   1.00
C558   C     0.55017   0.87746   0.53384   0.00000  Uiso   1.00
C559   C     0.97658   0.83382   0.49921   0.00000  Uiso   1.00
C560   C     0.52342   0.83284   0.50079   0.00000  Uiso   1.00
C561   C     0.95641   0.87935   0.53064   0.00000  Uiso   1.00
C562   C     0.75135   0.93339   0.51554   0.00000  Uiso   1.00
C563   C     0.54359   0.78732   0.46936   0.00000  Uiso   1.00
C564   C     0.96985   0.74400   0.43605   0.00000  Uiso   1.00
C565   C     0.53015   0.92267   0.56395   0.00000  Uiso   1.00
C566   C     0.51665   0.74231   0.43790   0.00000  Uiso   1.00
C567   C     0.98335   0.92436   0.56210   0.00000  Uiso   1.00
C568   C     0.74800   0.67731   0.47570   0.00000  Uiso   1.00
C569   C     0.75200   0.98935   0.52430   0.00000  Uiso   1.00
C570   C     0.66455   0.83308   0.50093   0.00000  Uiso   1.00
C571   C     0.83545   0.83359   0.49907   0.00000  Uiso   1.00
C572   C     0.90963   0.87851   0.53009   0.00000  Uiso   1.00
Cu573  Cu    0.75501   0.83913   0.56146   0.00000  Uiso   1.00
Cu574  Cu    0.74500   0.82754   0.43854   0.00000  Uiso   1.00
H575   H     0.89305   0.91204   0.55496   0.00000  Uiso   1.00
H576   H     0.55289   0.67968   0.44323   0.00000  Uiso   1.00
H577   H     0.98775   0.66715   0.61386   0.00000  Uiso   1.00
H578   H     0.94711   0.98699   0.55677   0.00000  Uiso   1.00
H579   H     0.71506   0.79261   0.64962   0.00000  Uiso   1.00
H580   H     0.78494   0.87406   0.35038   0.00000  Uiso   1.00
H581   H     0.60695   0.75462   0.44504   0.00000  Uiso   1.00
H582   H     0.88229   0.75608   0.43966   0.00000  Uiso   1.00
H583   H     0.61771   0.91059   0.56034   0.00000  Uiso   1.00
H584   H     0.94897   0.70973   0.41157   0.00000  Uiso   1.00
H585   H     0.55103   0.95693   0.58843   0.00000  Uiso   1.00
H586   H     0.74423   0.98685   0.42886   0.00000  Uiso   1.00
H587   H     0.75577   0.67982   0.57114   0.00000  Uiso   1.00
H588   H     0.51226   0.99952   0.38614   0.00000  Uiso   1.00
N589   N     0.73745   0.81881   0.34617   0.00000  Uiso   1.00
N590   N     0.76256   0.84786   0.65383   0.00000  Uiso   1.00
N591   N     0.53687   0.69499   0.40852   0.00000  Uiso   1.00
N592   N     0.96314   0.97168   0.59148   0.00000  Uiso   1.00
O593   O     0.75326   0.76204   0.53992   0.00000  Uiso   1.00
O594   O     0.74675   0.90462   0.46008   0.00000  Uiso   1.00
O595   O     0.74480   0.75226   0.43612   0.00000  Uiso   1.00
O596   O     0.75520   0.91441   0.56388   0.00000  Uiso   1.00
O597   O     0.68936   0.83821   0.55191   0.00000  Uiso   1.00
O598   O     0.81065   0.82845   0.44809   0.00000  Uiso   1.00
O599   O     0.68090   0.82843   0.44810   0.00000  Uiso   1.00
O600   O     0.81910   0.83824   0.55190   0.00000  Uiso   1.00
C601   C     0.24865   0.06661   0.81779   0.00000  Uiso   1.00
C602   C     0.09037   0.12149   0.80324   0.00000  Uiso   1.00
C603   C     0.38355   0.16761   0.83053   0.00000  Uiso   1.00
C604   C     0.11645   0.16572   0.83614   0.00000  Uiso   1.00
C605   C     0.40326   0.12349   0.79789   0.00000  Uiso   1.00
C606   C     0.09674   0.20984   0.86878   0.00000  Uiso   1.00
C607   C     0.44983   0.12254   0.79949   0.00000  Uiso   1.00
C608   C     0.05017   0.21079   0.86718   0.00000  Uiso   1.00
C609   C     0.47658   0.16716   0.83254   0.00000  Uiso   1.00
C610   C     0.02342   0.16618   0.83412   0.00000  Uiso   1.00
C611   C     0.45641   0.21268   0.86397   0.00000  Uiso   1.00
C612   C     0.25135   0.26673   0.84887   0.00000  Uiso   1.00
C613   C     0.04359   0.12065   0.80270   0.00000  Uiso   1.00
C614   C     0.46985   0.07733   0.76938   0.00000  Uiso   1.00
C615   C     0.03015   0.25600   0.89728   0.00000  Uiso   1.00
C616   C     0.01665   0.07564   0.77123   0.00000  Uiso   1.00
C617   C     0.48335   0.25769   0.89543   0.00000  Uiso   1.00
C618   C     0.24800   0.01065   0.80904   0.00000  Uiso   1.00
C619   C     0.25200   0.32269   0.85763   0.00000  Uiso   1.00
C620   C     0.16455   0.16641   0.83426   0.00000  Uiso   1.00
C621   C     0.33545   0.16692   0.83241   0.00000  Uiso   1.00
C622   C     0.40963   0.21184   0.86343   0.00000  Uiso   1.00
Cu623  Cu    0.25501   0.17246   0.89479   0.00000  Uiso   1.00
Cu624  Cu    0.24500   0.16087   0.77187   0.00000  Uiso   1.00
H625   H     0.39305   0.24538   0.88830   0.00000  Uiso   1.00
H626   H     0.05289   0.01301   0.77656   0.00000  Uiso   1.00
H627   H     0.48775   0.00048   0.94719   0.00000  Uiso   1.00
H628   H     0.44711   0.32032   0.89010   0.00000  Uiso   1.00
H629   H     0.21506   0.12594   0.98295   0.00000  Uiso   1.00
H630   H     0.28494   0.20739   0.68372   0.00000  Uiso   1.00
H631   H     0.10695   0.08796   0.77837   0.00000  Uiso   1.00
H632   H     0.38229   0.08941   0.77300   0.00000  Uiso   1.00
H633   H     0.11771   0.24392   0.89367   0.00000  Uiso   1.00
H634   H     0.44897   0.04307   0.74491   0.00000  Uiso   1.00
H635   H     0.05103   0.29027   0.92176   0.00000  Uiso   1.00
H636   H     0.24423   0.32018   0.76219   0.00000  Uiso   1.00
H637   H     0.25577   0.01315   0.90448   0.00000  Uiso   1.00
H638   H     0.01226   0.33285   0.71947   0.00000  Uiso   1.00
N639   N     0.23745   0.15214   0.67951   0.00000  Uiso   1.00
N640   N     0.26256   0.18119   0.98716   0.00000  Uiso   1.00
N641   N     0.03687   0.02832   0.74185   0.00000  Uiso   1.00
N642   N     0.46314   0.30501   0.92481   0.00000  Uiso   1.00
O643   O     0.25326   0.09538   0.87326   0.00000  Uiso   1.00
O644   O     0.24675   0.23796   0.79341   0.00000  Uiso   1.00
O645   O     0.24480   0.08559   0.76945   0.00000  Uiso   1.00
O646   O     0.25520   0.24774   0.89721   0.00000  Uiso   1.00
O647   O     0.18936   0.17155   0.88524   0.00000  Uiso   1.00
O648   O     0.31065   0.16179   0.78143   0.00000  Uiso   1.00
O649   O     0.18090   0.16176   0.78143   0.00000  Uiso   1.00
O650   O     0.31910   0.17157   0.88523   0.00000  Uiso   1.00
C651   C     0.74865   0.06661   0.81779   0.00000  Uiso   1.00
C652   C     0.59037   0.12149   0.80324   0.00000  Uiso   1.00
C653   C     0.88355   0.16761   0.83053   0.00000  Uiso   1.00
C654   C     0.61645   0.16572   0.83614   0.00000  Uiso   1.00
C655   C     0.90326   0.12349   0.79789   0.00000  Uiso   1.00
C656   C     0.59674   0.20984   0.86878   0.00000  Uiso   1.00
C657   C     0.94983   0.12254   0.79949   0.00000  Uiso   1.00
C658   C     0.55017   0.21079   0.86718   0.00000  Uiso   1.00
C659   C     0.97658   0.16716   0.83254   0.00000  Uiso   1.00
C660   C     0.52342   0.16618   0.83412   0.00000  Uiso   1.00
C661   C     0.95641   0.21268   0.86397   0.00000  Uiso   1.00
C662   C     0.75135   0.26673   0.84887   0.00000  Uiso   1.00
C663   C     0.54359   0.12065   0.80270   0.00000  Uiso   1.00
C664   C     0.96985   0.07733   0.76938   0.00000  Uiso   1.00
C665   C     0.53015   0.25600   0.89728   0.00000  Uiso   1.00
C666   C     0.51665   0.07564   0.77123   0.00000  Uiso   1.00
C667   C     0.98335   0.25769   0.89543   0.00000  Uiso   1.00
C668   C     0.74800   0.01065   0.80904   0.00000  Uiso   1.00
C669   C     0.75200   0.32269   0.85763   0.00000  Uiso   1.00
C670   C     0.66455   0.16641   0.83426   0.00000  Uiso   1.00
C671   C     0.83545   0.16692   0.83241   0.00000  Uiso   1.00
C672   C     0.90963   0.21184   0.86343   0.00000  Uiso   1.00
Cu673  Cu    0.75501   0.17246   0.89479   0.00000  Uiso   1.00
Cu674  Cu    0.74500   0.16087   0.77187   0.00000  Uiso   1.00
H675   H     0.89305   0.24538   0.88830   0.00000  Uiso   1.00
H676   H     0.55289   0.01301   0.77656   0.00000  Uiso   1.00
H677   H     0.98775   0.00048   0.94719   0.00000  Uiso   1.00
H678   H     0.94711   0.32032   0.89010   0.00000  Uiso   1.00
H679   H     0.71506   0.12594   0.98295   0.00000  Uiso   1.00
H680   H     0.78494   0.20739   0.68372   0.00000  Uiso   1.00
H681   H     0.60695   0.08796   0.77837   0.00000  Uiso   1.00
H682   H     0.88229   0.08941   0.77300   0.00000  Uiso   1.00
H683   H     0.61771   0.24392   0.89367   0.00000  Uiso   1.00
H684   H     0.94897   0.04307   0.74491   0.00000  Uiso   1.00
H685   H     0.55103   0.29027   0.92176   0.00000  Uiso   1.00
H686   H     0.74423   0.32018   0.76219   0.00000  Uiso   1.00
H687   H     0.75577   0.01315   0.90448   0.00000  Uiso   1.00
H688   H     0.51226   0.33285   0.71947   0.00000  Uiso   1.00
N689   N     0.73745   0.15214   0.67951   0.00000  Uiso   1.00
N690   N     0.76256   0.18119   0.98716   0.00000  Uiso   1.00
N691   N     0.53687   0.02832   0.74185   0.00000  Uiso   1.00
N692   N     0.96314   0.30501   0.92481   0.00000  Uiso   1.00
O693   O     0.75326   0.09538   0.87326   0.00000  Uiso   1.00
O694   O     0.74675   0.23796   0.79341   0.00000  Uiso   1.00
O695   O     0.74480   0.08559   0.76945   0.00000  Uiso   1.00
O696   O     0.75520   0.24774   0.89721   0.00000  Uiso   1.00
O697   O     0.68936   0.17155   0.88524   0.00000  Uiso   1.00
O698   O     0.81065   0.16179   0.78143   0.00000  Uiso   1.00
O699   O     0.68090   0.16176   0.78143   0.00000  Uiso   1.00
O700   O     0.81910   0.17157   0.88523   0.00000  Uiso   1.00
C701   C     0.24865   0.39994   0.81779   0.00000  Uiso   1.00
C702   C     0.09037   0.45483   0.80324   0.00000  Uiso   1.00
C703   C     0.38355   0.50095   0.83053   0.00000  Uiso   1.00
C704   C     0.11645   0.49905   0.83614   0.00000  Uiso   1.00
C705   C     0.40326   0.45682   0.79789   0.00000  Uiso   1.00
C706   C     0.09674   0.54318   0.86878   0.00000  Uiso   1.00
C707   C     0.44983   0.45588   0.79949   0.00000  Uiso   1.00
C708   C     0.05017   0.54412   0.86718   0.00000  Uiso   1.00
C709   C     0.47658   0.50049   0.83254   0.00000  Uiso   1.00
C710   C     0.02342   0.49951   0.83412   0.00000  Uiso   1.00
C711   C     0.45641   0.54601   0.86397   0.00000  Uiso   1.00
C712   C     0.25135   0.60006   0.84887   0.00000  Uiso   1.00
C713   C     0.04359   0.45399   0.80270   0.00000  Uiso   1.00
C714   C     0.46985   0.41066   0.76938   0.00000  Uiso   1.00
C715   C     0.03015   0.58934   0.89728   0.00000  Uiso   1.00
C716   C     0.01665   0.40898   0.77123   0.00000  Uiso   1.00
C717   C     0.48335   0.59102   0.89543   0.00000  Uiso   1.00
C718   C     0.24800   0.34398   0.80904   0.00000  Uiso   1.00
C719   C     0.25200   0.65602   0.85763   0.00000  Uiso   1.00
C720   C     0.16455   0.49974   0.83426   0.00000  Uiso   1.00
C721   C     0.33545   0.50026   0.83241   0.00000  Uiso   1.00
C722   C     0.40963   0.54517   0.86343   0.00000  Uiso   1.00
Cu723  Cu    0.25501   0.50579   0.89479   0.00000  Uiso   1.00
Cu724  Cu    0.24500   0.49421   0.77187   0.00000  Uiso   1.00
H725   H     0.39305   0.57871   0.88830   0.00000  Uiso   1.00
H726   H     0.05289   0.34635   0.77656   0.00000  Uiso   1.00
H727   H     0.48775   0.33382   0.94719   0.00000  Uiso   1.00
H728   H     0.44711   0.65365   0.89010   0.00000  Uiso   1.00
H729   H     0.21506   0.45928   0.98295   0.00000  Uiso   1.00
H730   H     0.28494   0.54073   0.68372   0.00000  Uiso   1.00
H731   H     0.10695   0.42129   0.77837   0.00000  Uiso   1.00
H732   H     0.38229   0.42275   0.77300   0.00000  Uiso   1.00
H733   H     0.11771   0.57725   0.89367   0.00000  Uiso   1.00
H734   H     0.44897   0.37640   0.74491   0.00000  Uiso   1.00
H735   H     0.05103   0.62360   0.92176   0.00000  Uiso   1.00
H736   H     0.24423   0.65352   0.76219   0.00000  Uiso   1.00
H737   H     0.25577   0.34648   0.90448   0.00000  Uiso   1.00
H738   H     0.01226   0.66618   0.71947   0.00000  Uiso   1.00
N739   N     0.23745   0.48547   0.67951   0.00000  Uiso   1.00
N740   N     0.26256   0.51453   0.98716   0.00000  Uiso   1.00
N741   N     0.03687   0.36166   0.74185   0.00000  Uiso   1.00
N742   N     0.46314   0.63835   0.92481   0.00000  Uiso   1.00
O743   O     0.25326   0.42871   0.87326   0.00000  Uiso   1.00
O744   O     0.24675   0.57129   0.79341   0.00000  Uiso   1.00
O745   O     0.24480   0.41892   0.76945   0.00000  Uiso   1.00
O746   O     0.25520   0.58108   0.89721   0.00000  Uiso   1.00
O747   O     0.18936   0.50488   0.88524   0.00000  Uiso   1.00
O748   O     0.31065   0.49512   0.78143   0.00000  Uiso   1.00
O749   O     0.18090   0.49510   0.78143   0.00000  Uiso   1.00
O750   O     0.31910   0.50490   0.88523   0.00000  Uiso   1.00
C751   C     0.74865   0.39994   0.81779   0.00000  Uiso   1.00
C752   C     0.59037   0.45483   0.80324   0.00000  Uiso   1.00
C753   C     0.88355   0.50095   0.83053   0.00000  Uiso   1.00
C754   C     0.61645   0.49905   0.83614   0.00000  Uiso   1.00
C755   C     0.90326   0.45682   0.79789   0.00000  Uiso   1.00
C756   C     0.59674   0.54318   0.86878   0.00000  Uiso   1.00
C757   C     0.94983   0.45588   0.79949   0.00000  Uiso   1.00
C758   C     0.55017   0.54412   0.86718   0.00000  Uiso   1.00
C759   C     0.97658   0.50049   0.83254   0.00000  Uiso   1.00
C760   C     0.52342   0.49951   0.83412   0.00000  Uiso   1.00
C761   C     0.95641   0.54601   0.86397   0.00000  Uiso   1.00
C762   C     0.75135   0.60006   0.84887   0.00000  Uiso   1.00
C763   C     0.54359   0.45399   0.80270   0.00000  Uiso   1.00
C764   C     0.96985   0.41066   0.76938   0.00000  Uiso   1.00
C765   C     0.53015   0.58934   0.89728   0.00000  Uiso   1.00
C766   C     0.51665   0.40898   0.77123   0.00000  Uiso   1.00
C767   C     0.98335   0.59102   0.89543   0.00000  Uiso   1.00
C768   C     0.74800   0.34398   0.80904   0.00000  Uiso   1.00
C769   C     0.75200   0.65602   0.85763   0.00000  Uiso   1.00
C770   C     0.66455   0.49974   0.83426   0.00000  Uiso   1.00
C771   C     0.83545   0.50026   0.83241   0.00000  Uiso   1.00
C772   C     0.90963   0.54517   0.86343   0.00000  Uiso   1.00
Cu773  Cu    0.75501   0.50579   0.89479   0.00000  Uiso   1.00
Cu774  Cu    0.74500   0.49421   0.77187   0.00000  Uiso   1.00
H775   H     0.89305   0.57871   0.88830   0.00000  Uiso   1.00
H776   H     0.55289   0.34635   0.77656   0.00000  Uiso   1.00
H777   H     0.98775   0.33382   0.94719   0.00000  Uiso   1.00
H778   H     0.94711   0.65365   0.89010   0.00000  Uiso   1.00
H779   H     0.71506   0.45928   0.98295   0.00000  Uiso   1.00
H780   H     0.78494   0.54073   0.68372   0.00000  Uiso   1.00
H781   H     0.60695   0.42129   0.77837   0.00000  Uiso   1.00
H782   H     0.88229   0.42275   0.77300   0.00000  Uiso   1.00
H783   H     0.61771   0.57725   0.89367   0.00000  Uiso   1.00
H784   H     0.94897   0.37640   0.74491   0.00000  Uiso   1.00
H785   H     0.55103   0.62360   0.92176   0.00000  Uiso   1.00
H786   H     0.74423   0.65352   0.76219   0.00000  Uiso   1.00
H787   H     0.75577   0.34648   0.90448   0.00000  Uiso   1.00
H788   H     0.51226   0.66618   0.71947   0.00000  Uiso   1.00
N789   N     0.73745   0.48547   0.67951   0.00000  Uiso   1.00
N790   N     0.76256   0.51453   0.98716   0.00000  Uiso   1.00
N791   N     0.53687   0.36166   0.74185   0.00000  Uiso   1.00
N792   N     0.96314   0.63835   0.92481   0.00000  Uiso   1.00
O793   O     0.75326   0.42871   0.87326   0.00000  Uiso   1.00
O794   O     0.74675   0.57129   0.79341   0.00000  Uiso   1.00
O795   O     0.74480   0.41892   0.76945   0.00000  Uiso   1.00
O796   O     0.75520   0.58108   0.89721   0.00000  Uiso   1.00
O797   O     0.68936   0.50488   0.88524   0.00000  Uiso   1.00
O798   O     0.81065   0.49512   0.78143   0.00000  Uiso   1.00
O799   O     0.68090   0.49510   0.78143   0.00000  Uiso   1.00
O800   O     0.81910   0.50490   0.88523   0.00000  Uiso   1.00
C801   C     0.24865   0.73327   0.81779   0.00000  Uiso   1.00
C802   C     0.09037   0.78816   0.80324   0.00000  Uiso   1.00
C803   C     0.38355   0.83428   0.83053   0.00000  Uiso   1.00
C804   C     0.11645   0.83239   0.83614   0.00000  Uiso   1.00
C805   C     0.40326   0.79016   0.79789   0.00000  Uiso   1.00
C806   C     0.09674   0.87651   0.86878   0.00000  Uiso   1.00
C807   C     0.44983   0.78921   0.79949   0.00000  Uiso   1.00
C808   C     0.05017   0.87746   0.86718   0.00000  Uiso   1.00
C809   C     0.47658   0.83382   0.83254   0.00000  Uiso   1.00
C810   C     0.02342   0.83284   0.83412   0.00000  Uiso   1.00
C811   C     0.45641   0.87935   0.86397   0.00000  Uiso   1.00
C812   C     0.25135   0.93339   0.84887   0.00000  Uiso   1.00
C813   C     0.04359   0.78732   0.80270   0.00000  Uiso   1.00
C814   C     0.46985   0.74400   0.76938   0.00000  Uiso   1.00
C815   C     0.03015   0.92267   0.89728   0.00000  Uiso   1.00
C816   C     0.01665   0.74231   0.77123   0.00000  Uiso   1.00
C817   C     0.48335   0.92436   0.89543   0.00000  Uiso   1.00
C818   C     0.24800   0.67731   0.80904   0.00000  Uiso   1.00
C819   C     0.25200   0.98935   0.85763   0.00000  Uiso   1.00
C820   C     0.16455   0.83308   0.83426   0.00000  Uiso   1.00
C821   C     0.33545   0.83359   0.83241   0.00000  Uiso   1.00
C822   C     0.40963   0.87851   0.86343   0.00000  Uiso   1.00
Cu823  Cu    0.25501   0.83913   0.89479   0.00000  Uiso   1.00
Cu824  Cu    0.24500   0.82754   0.77187   0.00000  Uiso   1.00
H825   H     0.39305   0.91204   0.88830   0.00000  Uiso   1.00
H826   H     0.05289   0.67968   0.77656   0.00000  Uiso   1.00
H827   H     0.48775   0.66715   0.94719   0.00000  Uiso   1.00
H828   H     0.44711   0.98699   0.89010   0.00000  Uiso   1.00
H829   H     0.21506   0.79261   0.98295   0.00000  Uiso   1.00
H830   H     0.28494   0.87406   0.68372   0.00000  Uiso   1.00
H831   H     0.10695   0.75462   0.77837   0.00000  Uiso   1.00
H832   H     0.38229   0.75608   0.77300   0.00000  Uiso   1.00
H833   H     0.11771   0.91059   0.89367   0.00000  Uiso   1.00
H834   H     0.44897   0.70973   0.74491   0.00000  Uiso   1.00
H835   H     0.05103   0.95693   0.92176   0.00000  Uiso   1.00
H836   H     0.24423   0.98685   0.76219   0.00000  Uiso   1.00
H837   H     0.25577   0.67982   0.90448   0.00000  Uiso   1.00
H838   H     0.01226   0.99952   0.71947   0.00000  Uiso   1.00
N839   N     0.23745   0.81881   0.67951   0.00000  Uiso   1.00
N840   N     0.26256   0.84786   0.98716   0.00000  Uiso   1.00
N841   N     0.03687   0.69499   0.74185   0.00000  Uiso   1.00
N842   N     0.46314   0.97168   0.92481   0.00000  Uiso   1.00
O843   O     0.25326   0.76204   0.87326   0.00000  Uiso   1.00
O844   O     0.24675   0.90462   0.79341   0.00000  Uiso   1.00
O845   O     0.24480   0.75226   0.76945   0.00000  Uiso   1.00
O846   O     0.25520   0.91441   0.89721   0.00000  Uiso   1.00
O847   O     0.18936   0.83821   0.88524   0.00000  Uiso   1.00
O848   O     0.31065   0.82845   0.78143   0.00000  Uiso   1.00
O849   O     0.18090   0.82843   0.78143   0.00000  Uiso   1.00
O850   O     0.31910   0.83824   0.88523   0.00000  Uiso   1.00
C851   C     0.74865   0.73327   0.81779   0.00000  Uiso   1.00
C852   C     0.59037   0.78816   0.80324   0.00000  Uiso   1.00
C853   C     0.88355   0.83428   0.83053   0.00000  Uiso   1.00
C854   C     0.61645   0.83239   0.83614   0.00000  Uiso   1.00
C855   C     0.90326   0.79016   0.79789   0.00000  Uiso   1.00
C856   C     0.59674   0.87651   0.86878   0.00000  Uiso   1.00
C857   C     0.94983   0.78921   0.79949   0.00000  Uiso   1.00
C858   C     0.55017   0.87746   0.86718   0.00000  Uiso   1.00
C859   C     0.97658   0.83382   0.83254   0.00000  Uiso   1.00
C860   C     0.52342   0.83284   0.83412   0.00000  Uiso   1.00
C861   C     0.95641   0.87935   0.86397   0.00000  Uiso   1.00
C862   C     0.75135   0.93339   0.84887   0.00000  Uiso   1.00
C863   C     0.54359   0.78732   0.80270   0.00000  Uiso   1.00
C864   C     0.96985   0.74400   0.76938   0.00000  Uiso   1.00
C865   C     0.53015   0.92267   0.89728   0.00000  Uiso   1.00
C866   C     0.51665   0.74231   0.77123   0.00000  Uiso   1.00
C867   C     0.98335   0.92436   0.89543   0.00000  Uiso   1.00
C868   C     0.74800   0.67731   0.80904   0.00000  Uiso   1.00
C869   C     0.75200   0.98935   0.85763   0.00000  Uiso   1.00
C870   C     0.66455   0.83308   0.83426   0.00000  Uiso   1.00
C871   C     0.83545   0.83359   0.83241   0.00000  Uiso   1.00
C872   C     0.90963   0.87851   0.86343   0.00000  Uiso   1.00
Cu873  Cu    0.75501   0.83913   0.89479   0.00000  Uiso   1.00
Cu874  Cu    0.74500   0.82754   0.77187   0.00000  Uiso   1.00
H875   H     0.89305   0.91204   0.88830   0.00000  Uiso   1.00
H876   H     0.55289   0.67968   0.77656   0.00000  Uiso   1.00
H877   H     0.98775   0.66715   0.94719   0.00000  Uiso   1.00
H878   H     0.94711   0.98699   0.89010   0.00000  Uiso   1.00
H879   H     0.71506   0.79261   0.98295   0.00000  Uiso   1.00
H880   H     0.78494   0.87406   0.68372   0.00000  Uiso   1.00
H881   H     0.60695   0.75462   0.77837   0.00000  Uiso   1.00
H882   H     0.88229   0.75608   0.77300   0.00000  Uiso   1.00
H883   H     0.61771   0.91059   0.89367   0.00000  Uiso   1.00
H884   H     0.94897   0.70973   0.74491   0.00000  Uiso   1.00
H885   H     0.55103   0.95693   0.92176   0.00000  Uiso   1.00
H886   H     0.74423   0.98685   0.76219   0.00000  Uiso   1.00
H887   H     0.75577   0.67982   0.90448   0.00000  Uiso   1.00
H888   H     0.51226   0.99952   0.71947   0.00000  Uiso   1.00
N889   N     0.73745   0.81881   0.67951   0.00000  Uiso   1.00
N890   N     0.76256   0.84786   0.98716   0.00000  Uiso   1.00
N891   N     0.53687   0.69499   0.74185   0.00000  Uiso   1.00
N892   N     0.96314   0.97168   0.92481   0.00000  Uiso   1.00
O893   O     0.75326   0.76204   0.87326   0.00000  Uiso   1.00
O894   O     0.74675   0.90462   0.79341   0.00000  Uiso   1.00
O895   O     0.74480   0.75226   0.76945   0.00000  Uiso   1.00
O896   O     0.75520   0.91441   0.89721   0.00000  Uiso   1.00
O897   O     0.68936   0.83821   0.88524   0.00000  Uiso   1.00
O898   O     0.81065   0.82845   0.78143   0.00000  Uiso   1.00
O899   O     0.68090   0.82843   0.78143   0.00000  Uiso   1.00
O900   O     0.81910   0.83824   0.88523   0.00000  Uiso   1.00
loop_
_geom_bond_atom_site_label_1
_geom_bond_atom_site_label_2
_geom_bond_distance
_geom_bond_site_symmetry_2
_ccdc_geom_bond_type
C1     O45     1.285   .     A
C1     C18     1.425   .     S
C1     O43     1.293   .     A
C2     C4      1.395   .     A
C2     C13     1.399   .     A
C2     H31     1.084   .     S
C3     C22     1.395   .     A
C3     C21     1.442   .     S
C3     C5      1.394   .     A
C4     C20     1.442   .     S
C4     C6      1.394   .     A
C5     H32     1.085   .     S
C5     C7      1.393   .     A
C6     H33     1.085   .     S
C6     C8      1.393   .     A
C7     C9      1.413   .     A
C7     C14     1.399   .     A
C8     C10     1.413   .     A
C8     C15     1.399   .     A
C9     C11     1.417   .     A
C9     C60     1.401   .     S
C10    C13     1.417   .     A
C10    C59     1.401   1_455 S
C11    C22     1.399   .     A
C11    C17     1.413   .     A
C12    O44     1.293   .     A
C12    C19     1.425   .     S
C12    O46     1.285   .     A
C13    C16     1.413   .     A
C14    H34     1.084   .     S
C14    C66     1.402   .     S
C15    H35     1.084   .     S
C15    C67     1.402   1_455 S
C16    N41     1.439   .     S
C16    C64     1.402   1_455 S
C17    N42     1.439   .     S
C17    C65     1.402   .     S
C18    C219    1.326   1_545 S
C18    H236    1.088   1_545 S
C19    C118    1.326   .     S
C19    H137    1.088   .     S
C20    O49     1.292   .     A
C20    O47     1.295   .     A
C21    O50     1.292   .     A
C21    O48     1.295   .     A
C22    H25     1.084   .     S
Cu23   Cu24    2.692   .     S
Cu23   O46     1.948   .     S
Cu23   O47     1.961   .     S
Cu23   N40     2.023   .     S
Cu23   O43     1.954   .     S
Cu23   O50     1.945   .     S
Cu24   O45     1.948   .     S
Cu24   O44     1.954   .     S
Cu24   O49     1.945   .     S
Cu24   N39     2.023   .     S
Cu24   O48     1.961   .     S
H26    N41     1.046   .     S
H27    N242    1.045   1_545 S
H28    N42     1.046   .     S
H29    N339    1.029   .     S
H30    N640    1.029   1_554 S
H36    C118    1.088   .     S
H37    C219    1.088   1_545 S
H38    N141    1.045   .     S
N39    H629    1.029   1_554 S
N39    N640    1.293   1_554 S
N40    N339    1.293   .     S
N40    H330    1.029   .     S
N41    H238    1.045   1_545 S
N42    H127    1.045   .     S
C51    O95     1.285   .     A
C51    C68     1.425   .     S
C51    O93     1.293   .     A
C52    C54     1.395   .     A
C52    C63     1.399   .     A
C52    H81     1.084   .     S
C53    C72     1.395   .     A
C53    C71     1.442   .     S
C53    C55     1.394   .     A
C54    C70     1.442   .     S
C54    C56     1.394   .     A
C55    H82     1.085   .     S
C55    C57     1.393   .     A
C56    H83     1.085   .     S
C56    C58     1.393   .     A
C57    C59     1.413   .     A
C57    C64     1.399   .     A
C58    C60     1.413   .     A
C58    C65     1.399   .     A
C59    C61     1.417   .     A
C59    C10     1.401   1_655 S
C60    C63     1.417   .     A
C61    C72     1.399   .     A
C61    C67     1.413   .     A
C62    O94     1.293   .     A
C62    C69     1.425   .     S
C62    O96     1.285   .     A
C63    C66     1.413   .     A
C64    H84     1.084   .     S
C64    C16     1.402   1_655 S
C65    H85     1.084   .     S
C66    N91     1.439   .     S
C67    N92     1.439   .     S
C67    C15     1.402   1_655 S
C68    C269    1.326   1_545 S
C68    H286    1.088   1_545 S
C69    C168    1.326   .     S
C69    H187    1.088   .     S
C70    O99     1.292   .     A
C70    O97     1.295   .     A
C71    O100    1.292   .     A
C71    O98     1.295   .     A
C72    H75     1.084   .     S
Cu73   Cu74    2.692   .     S
Cu73   O96     1.948   .     S
Cu73   O97     1.961   .     S
Cu73   N90     2.023   .     S
Cu73   O93     1.954   .     S
Cu73   O100    1.945   .     S
Cu74   O95     1.948   .     S
Cu74   O94     1.954   .     S
Cu74   O99     1.945   .     S
Cu74   N89     2.023   .     S
Cu74   O98     1.961   .     S
H76    N91     1.046   .     S
H77    N292    1.045   1_545 S
H78    N92     1.046   .     S
H79    N389    1.029   .     S
H80    N690    1.029   1_554 S
H86    C168    1.088   .     S
H87    C269    1.088   1_545 S
H88    N191    1.045   .     S
N89    H679    1.029   1_554 S
N89    N690    1.293   1_554 S
N90    N389    1.293   .     S
N90    H380    1.029   .     S
N91    H288    1.045   1_545 S
N92    H177    1.045   .     S
C101   O145    1.285   .     A
C101   C118    1.425   .     S
C101   O143    1.293   .     A
C102   C104    1.395   .     A
C102   C113    1.399   .     A
C102   H131    1.084   .     S
C103   C122    1.395   .     A
C103   C121    1.442   .     S
C103   C105    1.394   .     A
C104   C120    1.442   .     S
C104   C106    1.394   .     A
C105   H132    1.085   .     S
C105   C107    1.393   .     A
C106   H133    1.085   .     S
C106   C108    1.393   .     A
C107   C109    1.413   .     A
C107   C114    1.399   .     A
C108   C110    1.413   .     A
C108   C115    1.399   .     A
C109   C111    1.417   .     A
C109   C160    1.401   .     S
C110   C113    1.417   .     A
C110   C159    1.401   1_455 S
C111   C122    1.399   .     A
C111   C117    1.413   .     A
C112   O144    1.293   .     A
C112   C119    1.425   .     S
C112   O146    1.285   .     A
C113   C116    1.413   .     A
C114   H134    1.084   .     S
C114   C166    1.402   .     S
C115   H135    1.084   .     S
C115   C167    1.402   1_455 S
C116   N141    1.439   .     S
C116   C164    1.402   1_455 S
C117   N142    1.439   .     S
C117   C165    1.402   .     S
C119   C218    1.326   .     S
C119   H237    1.088   .     S
C120   O149    1.292   .     A
C120   O147    1.295   .     A
C121   O150    1.292   .     A
C121   O148    1.295   .     A
C122   H125    1.084   .     S
Cu123  Cu124   2.692   .     S
Cu123  O146    1.948   .     S
Cu123  O147    1.961   .     S
Cu123  N140    2.023   .     S
Cu123  O143    1.954   .     S
Cu123  O150    1.945   .     S
Cu124  O145    1.948   .     S
Cu124  O144    1.954   .     S
Cu124  O149    1.945   .     S
Cu124  N139    2.023   .     S
Cu124  O148    1.961   .     S
H126   N141    1.046   .     S
H128   N142    1.046   .     S
H129   N439    1.029   .     S
H130   N740    1.029   1_554 S
H136   C218    1.088   .     S
H138   N241    1.045   .     S
N139   H729    1.029   1_554 S
N139   N740    1.293   1_554 S
N140   N439    1.293   .     S
N140   H430    1.029   .     S
N142   H227    1.045   .     S
C151   O195    1.285   .     A
C151   C168    1.425   .     S
C151   O193    1.293   .     A
C152   C154    1.395   .     A
C152   C163    1.399   .     A
C152   H181    1.084   .     S
C153   C172    1.395   .     A
C153   C171    1.442   .     S
C153   C155    1.394   .     A
C154   C170    1.442   .     S
C154   C156    1.394   .     A
C155   H182    1.085   .     S
C155   C157    1.393   .     A
C156   H183    1.085   .     S
C156   C158    1.393   .     A
C157   C159    1.413   .     A
C157   C164    1.399   .     A
C158   C160    1.413   .     A
C158   C165    1.399   .     A
C159   C161    1.417   .     A
C159   C110    1.401   1_655 S
C160   C163    1.417   .     A
C161   C172    1.399   .     A
C161   C167    1.413   .     A
C162   O194    1.293   .     A
C162   C169    1.425   .     S
C162   O196    1.285   .     A
C163   C166    1.413   .     A
C164   H184    1.084   .     S
C164   C116    1.402   1_655 S
C165   H185    1.084   .     S
C166   N191    1.439   .     S
C167   N192    1.439   .     S
C167   C115    1.402   1_655 S
C169   C268    1.326   .     S
C169   H287    1.088   .     S
C170   O199    1.292   .     A
C170   O197    1.295   .     A
C171   O200    1.292   .     A
C171   O198    1.295   .     A
C172   H175    1.084   .     S
Cu173  Cu174   2.692   .     S
Cu173  O196    1.948   .     S
Cu173  O197    1.961   .     S
Cu173  N190    2.023   .     S
Cu173  O193    1.954   .     S
Cu173  O200    1.945   .     S
Cu174  O195    1.948   .     S
Cu174  O194    1.954   .     S
Cu174  O199    1.945   .     S
Cu174  N189    2.023   .     S
Cu174  O198    1.961   .     S
H176   N191    1.046   .     S
H178   N192    1.046   .     S
H179   N489    1.029   .     S
H180   N790    1.029   1_554 S
H186   C268    1.088   .     S
H188   N291    1.045   .     S
N189   H779    1.029   1_554 S
N189   N790    1.293   1_554 S
N190   N489    1.293   .     S
N190   H480    1.029   .     S
N192   H277    1.045   .     S
C201   O245    1.285   .     A
C201   C218    1.425   .     S
C201   O243    1.293   .     A
C202   C204    1.395   .     A
C202   C213    1.399   .     A
C202   H231    1.084   .     S
C203   C222    1.395   .     A
C203   C221    1.442   .     S
C203   C205    1.394   .     A
C204   C220    1.442   .     S
C204   C206    1.394   .     A
C205   H232    1.085   .     S
C205   C207    1.393   .     A
C206   H233    1.085   .     S
C206   C208    1.393   .     A
C207   C209    1.413   .     A
C207   C214    1.399   .     A
C208   C210    1.413   .     A
C208   C215    1.399   .     A
C209   C211    1.417   .     A
C209   C260    1.401   .     S
C210   C213    1.417   .     A
C210   C259    1.401   1_455 S
C211   C222    1.399   .     A
C211   C217    1.413   .     A
C212   O244    1.293   .     A
C212   C219    1.425   .     S
C212   O246    1.285   .     A
C213   C216    1.413   .     A
C214   H234    1.084   .     S
C214   C266    1.402   .     S
C215   H235    1.084   .     S
C215   C267    1.402   1_455 S
C216   N241    1.439   .     S
C216   C264    1.402   1_455 S
C217   N242    1.439   .     S
C217   C265    1.402   .     S
C219   C18     1.326   1_565 S
C219   H37     1.088   1_565 S
C220   O249    1.292   .     A
C220   O247    1.295   .     A
C221   O250    1.292   .     A
C221   O248    1.295   .     A
C222   H225    1.084   .     S
Cu223  Cu224   2.692   .     S
Cu223  O246    1.948   .     S
Cu223  O247    1.961   .     S
Cu223  N240    2.023   .     S
Cu223  O243    1.954   .     S
Cu223  O250    1.945   .     S
Cu224  O245    1.948   .     S
Cu224  O244    1.954   .     S
Cu224  O249    1.945   .     S
Cu224  N239    2.023   .     S
Cu224  O248    1.961   .     S
H226   N241    1.046   .     S
H228   N242    1.046   .     S
H229   N539    1.029   .     S
H230   N840    1.029   1_554 S
H236   C18     1.088   1_565 S
H238   N41     1.045   1_565 S
N239   H829    1.029   1_554 S
N239   N840    1.293   1_554 S
N240   N539    1.293   .     S
N240   H530    1.029   .     S
N242   H27     1.045   1_565 S
C251   O295    1.285   .     A
C251   C268    1.425   .     S
C251   O293    1.293   .     A
C252   C254    1.395   .     A
C252   C263    1.399   .     A
C252   H281    1.084   .     S
C253   C272    1.395   .     A
C253   C271    1.442   .     S
C253   C255    1.394   .     A
C254   C270    1.442   .     S
C254   C256    1.394   .     A
C255   H282    1.085   .     S
C255   C257    1.393   .     A
C256   H283    1.085   .     S
C256   C258    1.393   .     A
C257   C259    1.413   .     A
C257   C264    1.399   .     A
C258   C260    1.413   .     A
C258   C265    1.399   .     A
C259   C261    1.417   .     A
C259   C210    1.401   1_655 S
C260   C263    1.417   .     A
C261   C272    1.399   .     A
C261   C267    1.413   .     A
C262   O294    1.293   .     A
C262   C269    1.425   .     S
C262   O296    1.285   .     A
C263   C266    1.413   .     A
C264   H284    1.084   .     S
C264   C216    1.402   1_655 S
C265   H285    1.084   .     S
C266   N291    1.439   .     S
C267   N292    1.439   .     S
C267   C215    1.402   1_655 S
C269   C68     1.326   1_565 S
C269   H87     1.088   1_565 S
C270   O299    1.292   .     A
C270   O297    1.295   .     A
C271   O300    1.292   .     A
C271   O298    1.295   .     A
C272   H275    1.084   .     S
Cu273  Cu274   2.692   .     S
Cu273  O296    1.948   .     S
Cu273  O297    1.961   .     S
Cu273  N290    2.023   .     S
Cu273  O293    1.954   .     S
Cu273  O300    1.945   .     S
Cu274  O295    1.948   .     S
Cu274  O294    1.954   .     S
Cu274  O299    1.945   .     S
Cu274  N289    2.023   .     S
Cu274  O298    1.961   .     S
H276   N291    1.046   .     S
H278   N292    1.046   .     S
H279   N589    1.029   .     S
H280   N890    1.029   1_554 S
H286   C68     1.088   1_565 S
H288   N91     1.045   1_565 S
N289   H879    1.029   1_554 S
N289   N890    1.293   1_554 S
N290   N589    1.293   .     S
N290   H580    1.029   .     S
N292   H77     1.045   1_565 S
C301   O345    1.285   .     A
C301   C318    1.425   .     S
C301   O343    1.293   .     A
C302   C304    1.395   .     A
C302   C313    1.399   .     A
C302   H331    1.084   .     S
C303   C322    1.395   .     A
C303   C321    1.442   .     S
C303   C305    1.394   .     A
C304   C320    1.442   .     S
C304   C306    1.394   .     A
C305   H332    1.085   .     S
C305   C307    1.393   .     A
C306   H333    1.085   .     S
C306   C308    1.393   .     A
C307   C309    1.413   .     A
C307   C314    1.399   .     A
C308   C310    1.413   .     A
C308   C315    1.399   .     A
C309   C311    1.417   .     A
C309   C360    1.401   .     S
C310   C313    1.417   .     A
C310   C359    1.401   1_455 S
C311   C322    1.399   .     A
C311   C317    1.413   .     A
C312   O344    1.293   .     A
C312   C319    1.425   .     S
C312   O346    1.285   .     A
C313   C316    1.413   .     A
C314   H334    1.084   .     S
C314   C366    1.402   .     S
C315   H335    1.084   .     S
C315   C367    1.402   1_455 S
C316   N341    1.439   .     S
C316   C364    1.402   1_455 S
C317   N342    1.439   .     S
C317   C365    1.402   .     S
C318   C519    1.326   1_545 S
C318   H536    1.088   1_545 S
C319   C418    1.326   .     S
C319   H437    1.088   .     S
C320   O349    1.292   .     A
C320   O347    1.295   .     A
C321   O350    1.292   .     A
C321   O348    1.295   .     A
C322   H325    1.084   .     S
Cu323  Cu324   2.692   .     S
Cu323  O346    1.948   .     S
Cu323  O347    1.961   .     S
Cu323  N340    2.023   .     S
Cu323  O343    1.954   .     S
Cu323  O350    1.945   .     S
Cu324  O345    1.948   .     S
Cu324  O344    1.954   .     S
Cu324  O349    1.945   .     S
Cu324  N339    2.023   .     S
Cu324  O348    1.961   .     S
H326   N341    1.046   .     S
H327   N542    1.045   1_545 S
H328   N342    1.046   .     S
H329   N639    1.029   .     S
H336   C418    1.088   .     S
H337   C519    1.088   1_545 S
H338   N441    1.045   .     S
N340   N639    1.293   .     S
N340   H630    1.029   .     S
N341   H538    1.045   1_545 S
N342   H427    1.045   .     S
C351   O395    1.285   .     A
C351   C368    1.425   .     S
C351   O393    1.293   .     A
C352   C354    1.395   .     A
C352   C363    1.399   .     A
C352   H381    1.084   .     S
C353   C372    1.395   .     A
C353   C371    1.442   .     S
C353   C355    1.394   .     A
C354   C370    1.442   .     S
C354   C356    1.394   .     A
C355   H382    1.085   .     S
C355   C357    1.393   .     A
C356   H383    1.085   .     S
C356   C358    1.393   .     A
C357   C359    1.413   .     A
C357   C364    1.399   .     A
C358   C360    1.413   .     A
C358   C365    1.399   .     A
C359   C361    1.417   .     A
C359   C310    1.401   1_655 S
C360   C363    1.417   .     A
C361   C372    1.399   .     A
C361   C367    1.413   .     A
C362   O394    1.293   .     A
C362   C369    1.425   .     S
C362   O396    1.285   .     A
C363   C366    1.413   .     A
C364   H384    1.084   .     S
C364   C316    1.402   1_655 S
C365   H385    1.084   .     S
C366   N391    1.439   .     S
C367   N392    1.439   .     S
C367   C315    1.402   1_655 S
C368   C569    1.326   1_545 S
C368   H586    1.088   1_545 S
C369   C468    1.326   .     S
C369   H487    1.088   .     S
C370   O399    1.292   .     A
C370   O397    1.295   .     A
C371   O400    1.292   .     A
C371   O398    1.295   .     A
C372   H375    1.084   .     S
Cu373  Cu374   2.692   .     S
Cu373  O396    1.948   .     S
Cu373  O397    1.961   .     S
Cu373  N390    2.023   .     S
Cu373  O393    1.954   .     S
Cu373  O400    1.945   .     S
Cu374  O395    1.948   .     S
Cu374  O394    1.954   .     S
Cu374  O399    1.945   .     S
Cu374  N389    2.023   .     S
Cu374  O398    1.961   .     S
H376   N391    1.046   .     S
H377   N592    1.045   1_545 S
H378   N392    1.046   .     S
H379   N689    1.029   .     S
H386   C468    1.088   .     S
H387   C569    1.088   1_545 S
H388   N491    1.045   .     S
N390   N689    1.293   .     S
N390   H680    1.029   .     S
N391   H588    1.045   1_545 S
N392   H477    1.045   .     S
C401   O445    1.285   .     A
C401   C418    1.425   .     S
C401   O443    1.293   .     A
C402   C404    1.395   .     A
C402   C413    1.399   .     A
C402   H431    1.084   .     S
C403   C422    1.395   .     A
C403   C421    1.442   .     S
C403   C405    1.394   .     A
C404   C420    1.442   .     S
C404   C406    1.394   .     A
C405   H432    1.085   .     S
C405   C407    1.393   .     A
C406   H433    1.085   .     S
C406   C408    1.393   .     A
C407   C409    1.413   .     A
C407   C414    1.399   .     A
C408   C410    1.413   .     A
C408   C415    1.399   .     A
C409   C411    1.417   .     A
C409   C460    1.401   .     S
C410   C413    1.417   .     A
C410   C459    1.401   1_455 S
C411   C422    1.399   .     A
C411   C417    1.413   .     A
C412   O444    1.293   .     A
C412   C419    1.425   .     S
C412   O446    1.285   .     A
C413   C416    1.413   .     A
C414   H434    1.084   .     S
C414   C466    1.402   .     S
C415   H435    1.084   .     S
C415   C467    1.402   1_455 S
C416   N441    1.439   .     S
C416   C464    1.402   1_455 S
C417   N442    1.439   .     S
C417   C465    1.402   .     S
C419   C518    1.326   .     S
C419   H537    1.088   .     S
C420   O449    1.292   .     A
C420   O447    1.295   .     A
C421   O450    1.292   .     A
C421   O448    1.295   .     A
C422   H425    1.084   .     S
Cu423  Cu424   2.692   .     S
Cu423  O446    1.948   .     S
Cu423  O447    1.961   .     S
Cu423  N440    2.023   .     S
Cu423  O443    1.954   .     S
Cu423  O450    1.945   .     S
Cu424  O445    1.948   .     S
Cu424  O444    1.954   .     S
Cu424  O449    1.945   .     S
Cu424  N439    2.023   .     S
Cu424  O448    1.961   .     S
H426   N441    1.046   .     S
H428   N442    1.046   .     S
H429   N739    1.029   .     S
H436   C518    1.088   .     S
H438   N541    1.045   .     S
N440   N739    1.293   .     S
N440   H730    1.029   .     S
N442   H527    1.045   .     S
C451   O495    1.285   .     A
C451   C468    1.425   .     S
C451   O493    1.293   .     A
C452   C454    1.395   .     A
C452   C463    1.399   .     A
C452   H481    1.084   .     S
C453   C472    1.395   .     A
C453   C471    1.442   .     S
C453   C455    1.394   .     A
C454   C470    1.442   .     S
C454   C456    1.394   .     A
C455   H482    1.085   .     S
C455   C457    1.393   .     A
C456   H483    1.085   .     S
C456   C458    1.393   .     A
C457   C459    1.413   .     A
C457   C464    1.399   .     A
C458   C460    1.413   .     A
C458   C465    1.399   .     A
C459   C461    1.417   .     A
C459   C410    1.401   1_655 S
C460   C463    1.417   .     A
C461   C472    1.399   .     A
C461   C467    1.413   .     A
C462   O494    1.293   .     A
C462   C469    1.425   .     S
C462   O496    1.285   .     A
C463   C466    1.413   .     A
C464   H484    1.084   .     S
C464   C416    1.402   1_655 S
C465   H485    1.084   .     S
C466   N491    1.439   .     S
C467   N492    1.439   .     S
C467   C415    1.402   1_655 S
C469   C568    1.326   .     S
C469   H587    1.088   .     S
C470   O499    1.292   .     A
C470   O497    1.295   .     A
C471   O500    1.292   .     A
C471   O498    1.295   .     A
C472   H475    1.084   .     S
Cu473  Cu474   2.692   .     S
Cu473  O496    1.948   .     S
Cu473  O497    1.961   .     S
Cu473  N490    2.023   .     S
Cu473  O493    1.954   .     S
Cu473  O500    1.945   .     S
Cu474  O495    1.948   .     S
Cu474  O494    1.954   .     S
Cu474  O499    1.945   .     S
Cu474  N489    2.023   .     S
Cu474  O498    1.961   .     S
H476   N491    1.046   .     S
H478   N492    1.046   .     S
H479   N789    1.029   .     S
H486   C568    1.088   .     S
H488   N591    1.045   .     S
N490   N789    1.293   .     S
N490   H780    1.029   .     S
N492   H577    1.045   .     S
C501   O545    1.285   .     A
C501   C518    1.425   .     S
C501   O543    1.293   .     A
C502   C504    1.395   .     A
C502   C513    1.399   .     A
C502   H531    1.084   .     S
C503   C522    1.395   .     A
C503   C521    1.442   .     S
C503   C505    1.394   .     A
C504   C520    1.442   .     S
C504   C506    1.394   .     A
C505   H532    1.085   .     S
C505   C507    1.393   .     A
C506   H533    1.085   .     S
C506   C508    1.393   .     A
C507   C509    1.413   .     A
C507   C514    1.399   .     A
C508   C510    1.413   .     A
C508   C515    1.399   .     A
C509   C511    1.417   .     A
C509   C560    1.401   .     S
C510   C513    1.417   .     A
C510   C559    1.401   1_455 S
C511   C522    1.399   .     A
C511   C517    1.413   .     A
C512   O544    1.293   .     A
C512   C519    1.425   .     S
C512   O546    1.285   .     A
C513   C516    1.413   .     A
C514   H534    1.084   .     S
C514   C566    1.402   .     S
C515   H535    1.084   .     S
C515   C567    1.402   1_455 S
C516   N541    1.439   .     S
C516   C564    1.402   1_455 S
C517   N542    1.439   .     S
C517   C565    1.402   .     S
C519   C318    1.326   1_565 S
C519   H337    1.088   1_565 S
C520   O549    1.292   .     A
C520   O547    1.295   .     A
C521   O550    1.292   .     A
C521   O548    1.295   .     A
C522   H525    1.084   .     S
Cu523  Cu524   2.692   .     S
Cu523  O546    1.948   .     S
Cu523  O547    1.961   .     S
Cu523  N540    2.023   .     S
Cu523  O543    1.954   .     S
Cu523  O550    1.945   .     S
Cu524  O545    1.948   .     S
Cu524  O544    1.954   .     S
Cu524  O549    1.945   .     S
Cu524  N539    2.023   .     S
Cu524  O548    1.961   .     S
H526   N541    1.046   .     S
H528   N542    1.046   .     S
H529   N839    1.029   .     S
H536   C318    1.088   1_565 S
H538   N341    1.045   1_565 S
N540   N839    1.293   .     S
N540   H830    1.029   .     S
N542   H327    1.045   1_565 S
C551   O595    1.285   .     A
C551   C568    1.425   .     S
C551   O593    1.293   .     A
C552   C554    1.395   .     A
C552   C563    1.399   .     A
C552   H581    1.084   .     S
C553   C572    1.395   .     A
C553   C571    1.442   .     S
C553   C555    1.394   .     A
C554   C570    1.442   .     S
C554   C556    1.394   .     A
C555   H582    1.085   .     S
C555   C557    1.393   .     A
C556   H583    1.085   .     S
C556   C558    1.393   .     A
C557   C559    1.413   .     A
C557   C564    1.399   .     A
C558   C560    1.413   .     A
C558   C565    1.399   .     A
C559   C561    1.417   .     A
C559   C510    1.401   1_655 S
C560   C563    1.417   .     A
C561   C572    1.399   .     A
C561   C567    1.413   .     A
C562   O594    1.293   .     A
C562   C569    1.425   .     S
C562   O596    1.285   .     A
C563   C566    1.413   .     A
C564   H584    1.084   .     S
C564   C516    1.402   1_655 S
C565   H585    1.084   .     S
C566   N591    1.439   .     S
C567   N592    1.439   .     S
C567   C515    1.402   1_655 S
C569   C368    1.326   1_565 S
C569   H387    1.088   1_565 S
C570   O599    1.292   .     A
C570   O597    1.295   .     A
C571   O600    1.292   .     A
C571   O598    1.295   .     A
C572   H575    1.084   .     S
Cu573  Cu574   2.692   .     S
Cu573  O596    1.948   .     S
Cu573  O597    1.961   .     S
Cu573  N590    2.023   .     S
Cu573  O593    1.954   .     S
Cu573  O600    1.945   .     S
Cu574  O595    1.948   .     S
Cu574  O594    1.954   .     S
Cu574  O599    1.945   .     S
Cu574  N589    2.023   .     S
Cu574  O598    1.961   .     S
H576   N591    1.046   .     S
H578   N592    1.046   .     S
H579   N889    1.029   .     S
H586   C368    1.088   1_565 S
H588   N391    1.045   1_565 S
N590   N889    1.293   .     S
N590   H880    1.029   .     S
N592   H377    1.045   1_565 S
C601   O645    1.285   .     A
C601   C618    1.425   .     S
C601   O643    1.293   .     A
C602   C604    1.395   .     A
C602   C613    1.399   .     A
C602   H631    1.084   .     S
C603   C622    1.395   .     A
C603   C621    1.442   .     S
C603   C605    1.394   .     A
C604   C620    1.442   .     S
C604   C606    1.394   .     A
C605   H632    1.085   .     S
C605   C607    1.393   .     A
C606   H633    1.085   .     S
C606   C608    1.393   .     A
C607   C609    1.413   .     A
C607   C614    1.399   .     A
C608   C610    1.413   .     A
C608   C615    1.399   .     A
C609   C611    1.417   .     A
C609   C660    1.401   .     S
C610   C613    1.417   .     A
C610   C659    1.401   1_455 S
C611   C622    1.399   .     A
C611   C617    1.413   .     A
C612   O644    1.293   .     A
C612   C619    1.425   .     S
C612   O646    1.285   .     A
C613   C616    1.413   .     A
C614   H634    1.084   .     S
C614   C666    1.402   .     S
C615   H635    1.084   .     S
C615   C667    1.402   1_455 S
C616   N641    1.439   .     S
C616   C664    1.402   1_455 S
C617   N642    1.439   .     S
C617   C665    1.402   .     S
C618   C819    1.326   1_545 S
C618   H836    1.088   1_545 S
C619   C718    1.326   .     S
C619   H737    1.088   .     S
C620   O649    1.292   .     A
C620   O647    1.295   .     A
C621   O650    1.292   .     A
C621   O648    1.295   .     A
C622   H625    1.084   .     S
Cu623  Cu624   2.692   .     S
Cu623  O646    1.948   .     S
Cu623  O647    1.961   .     S
Cu623  N640    2.023   .     S
Cu623  O643    1.954   .     S
Cu623  O650    1.945   .     S
Cu624  O645    1.948   .     S
Cu624  O644    1.954   .     S
Cu624  O649    1.945   .     S
Cu624  N639    2.023   .     S
Cu624  O648    1.961   .     S
H626   N641    1.046   .     S
H627   N842    1.045   1_545 S
H628   N642    1.046   .     S
H629   N39     1.029   1_556 S
H636   C718    1.088   .     S
H637   C819    1.088   1_545 S
H638   N741    1.045   .     S
N640   N39     1.293   1_556 S
N640   H30     1.029   1_556 S
N641   H838    1.045   1_545 S
N642   H727    1.045   .     S
C651   O695    1.285   .     A
C651   C668    1.425   .     S
C651   O693    1.293   .     A
C652   C654    1.395   .     A
C652   C663    1.399   .     A
C652   H681    1.084   .     S
C653   C672    1.395   .     A
C653   C671    1.442   .     S
C653   C655    1.394   .     A
C654   C670    1.442   .     S
C654   C656    1.394   .     A
C655   H682    1.085   .     S
C655   C657    1.393   .     A
C656   H683    1.085   .     S
C656   C658    1.393   .     A
C657   C659    1.413   .     A
C657   C664    1.399   .     A
C658   C660    1.413   .     A
C658   C665    1.399   .     A
C659   C661    1.417   .     A
C659   C610    1.401   1_655 S
C660   C663    1.417   .     A
C661   C672    1.399   .     A
C661   C667    1.413   .     A
C662   O694    1.293   .     A
C662   C669    1.425   .     S
C662   O696    1.285   .     A
C663   C666    1.413   .     A
C664   H684    1.084   .     S
C664   C616    1.402   1_655 S
C665   H685    1.084   .     S
C666   N691    1.439   .     S
C667   N692    1.439   .     S
C667   C615    1.402   1_655 S
C668   C869    1.326   1_545 S
C668   H886    1.088   1_545 S
C669   C768    1.326   .     S
C669   H787    1.088   .     S
C670   O699    1.292   .     A
C670   O697    1.295   .     A
C671   O700    1.292   .     A
C671   O698    1.295   .     A
C672   H675    1.084   .     S
Cu673  Cu674   2.692   .     S
Cu673  O696    1.948   .     S
Cu673  O697    1.961   .     S
Cu673  N690    2.023   .     S
Cu673  O693    1.954   .     S
Cu673  O700    1.945   .     S
Cu674  O695    1.948   .     S
Cu674  O694    1.954   .     S
Cu674  O699    1.945   .     S
Cu674  N689    2.023   .     S
Cu674  O698    1.961   .     S
H676   N691    1.046   .     S
H677   N892    1.045   1_545 S
H678   N692    1.046   .     S
H679   N89     1.029   1_556 S
H686   C768    1.088   .     S
H687   C869    1.088   1_545 S
H688   N791    1.045   .     S
N690   N89     1.293   1_556 S
N690   H80     1.029   1_556 S
N691   H888    1.045   1_545 S
N692   H777    1.045   .     S
C701   O745    1.285   .     A
C701   C718    1.425   .     S
C701   O743    1.293   .     A
C702   C704    1.395   .     A
C702   C713    1.399   .     A
C702   H731    1.084   .     S
C703   C722    1.395   .     A
C703   C721    1.442   .     S
C703   C705    1.394   .     A
C704   C720    1.442   .     S
C704   C706    1.394   .     A
C705   H732    1.085   .     S
C705   C707    1.393   .     A
C706   H733    1.085   .     S
C706   C708    1.393   .     A
C707   C709    1.413   .     A
C707   C714    1.399   .     A
C708   C710    1.413   .     A
C708   C715    1.399   .     A
C709   C711    1.417   .     A
C709   C760    1.401   .     S
C710   C713    1.417   .     A
C710   C759    1.401   1_455 S
C711   C722    1.399   .     A
C711   C717    1.413   .     A
C712   O744    1.293   .     A
C712   C719    1.425   .     S
C712   O746    1.285   .     A
C713   C716    1.413   .     A
C714   H734    1.084   .     S
C714   C766    1.402   .     S
C715   H735    1.084   .     S
C715   C767    1.402   1_455 S
C716   N741    1.439   .     S
C716   C764    1.402   1_455 S
C717   N742    1.439   .     S
C717   C765    1.402   .     S
C719   C818    1.326   .     S
C719   H837    1.088   .     S
C720   O749    1.292   .     A
C720   O747    1.295   .     A
C721   O750    1.292   .     A
C721   O748    1.295   .     A
C722   H725    1.084   .     S
Cu723  Cu724   2.692   .     S
Cu723  O746    1.948   .     S
Cu723  O747    1.961   .     S
Cu723  N740    2.023   .     S
Cu723  O743    1.954   .     S
Cu723  O750    1.945   .     S
Cu724  O745    1.948   .     S
Cu724  O744    1.954   .     S
Cu724  O749    1.945   .     S
Cu724  N739    2.023   .     S
Cu724  O748    1.961   .     S
H726   N741    1.046   .     S
H728   N742    1.046   .     S
H729   N139    1.029   1_556 S
H736   C818    1.088   .     S
H738   N841    1.045   .     S
N740   N139    1.293   1_556 S
N740   H130    1.029   1_556 S
N742   H827    1.045   .     S
C751   O795    1.285   .     A
C751   C768    1.425   .     S
C751   O793    1.293   .     A
C752   C754    1.395   .     A
C752   C763    1.399   .     A
C752   H781    1.084   .     S
C753   C772    1.395   .     A
C753   C771    1.442   .     S
C753   C755    1.394   .     A
C754   C770    1.442   .     S
C754   C756    1.394   .     A
C755   H782    1.085   .     S
C755   C757    1.393   .     A
C756   H783    1.085   .     S
C756   C758    1.393   .     A
C757   C759    1.413   .     A
C757   C764    1.399   .     A
C758   C760    1.413   .     A
C758   C765    1.399   .     A
C759   C761    1.417   .     A
C759   C710    1.401   1_655 S
C760   C763    1.417   .     A
C761   C772    1.399   .     A
C761   C767    1.413   .     A
C762   O794    1.293   .     A
C762   C769    1.425   .     S
C762   O796    1.285   .     A
C763   C766    1.413   .     A
C764   H784    1.084   .     S
C764   C716    1.402   1_655 S
C765   H785    1.084   .     S
C766   N791    1.439   .     S
C767   N792    1.439   .     S
C767   C715    1.402   1_655 S
C769   C868    1.326   .     S
C769   H887    1.088   .     S
C770   O799    1.292   .     A
C770   O797    1.295   .     A
C771   O800    1.292   .     A
C771   O798    1.295   .     A
C772   H775    1.084   .     S
Cu773  Cu774   2.692   .     S
Cu773  O796    1.948   .     S
Cu773  O797    1.961   .     S
Cu773  N790    2.023   .     S
Cu773  O793    1.954   .     S
Cu773  O800    1.945   .     S
Cu774  O795    1.948   .     S
Cu774  O794    1.954   .     S
Cu774  O799    1.945   .     S
Cu774  N789    2.023   .     S
Cu774  O798    1.961   .     S
H776   N791    1.046   .     S
H778   N792    1.046   .     S
H779   N189    1.029   1_556 S
H786   C868    1.088   .     S
H788   N891    1.045   .     S
N790   N189    1.293   1_556 S
N790   H180    1.029   1_556 S
N792   H877    1.045   .     S
C801   O845    1.285   .     A
C801   C818    1.425   .     S
C801   O843    1.293   .     A
C802   C804    1.395   .     A
C802   C813    1.399   .     A
C802   H831    1.084   .     S
C803   C822    1.395   .     A
C803   C821    1.442   .     S
C803   C805    1.394   .     A
C804   C820    1.442   .     S
C804   C806    1.394   .     A
C805   H832    1.085   .     S
C805   C807    1.393   .     A
C806   H833    1.085   .     S
C806   C808    1.393   .     A
C807   C809    1.413   .     A
C807   C814    1.399   .     A
C808   C810    1.413   .     A
C808   C815    1.399   .     A
C809   C811    1.417   .     A
C809   C860    1.401   .     S
C810   C813    1.417   .     A
C810   C859    1.401   1_455 S
C811   C822    1.399   .     A
C811   C817    1.413   .     A
C812   O844    1.293   .     A
C812   C819    1.425   .     S
C812   O846    1.285   .     A
C813   C816    1.413   .     A
C814   H834    1.084   .     S
C814   C866    1.402   .     S
C815   H835    1.084   .     S
C815   C867    1.402   1_455 S
C816   N841    1.439   .     S
C816   C864    1.402   1_455 S
C817   N842    1.439   .     S
C817   C865    1.402   .     S
C819   C618    1.326   1_565 S
C819   H637    1.088   1_565 S
C820   O849    1.292   .     A
C820   O847    1.295   .     A
C821   O850    1.292   .     A
C821   O848    1.295   .     A
C822   H825    1.084   .     S
Cu823  Cu824   2.692   .     S
Cu823  O846    1.948   .     S
Cu823  O847    1.961   .     S
Cu823  N840    2.023   .     S
Cu823  O843    1.954   .     S
Cu823  O850    1.945   .     S
Cu824  O845    1.948   .     S
Cu824  O844    1.954   .     S
Cu824  O849    1.945   .     S
Cu824  N839    2.023   .     S
Cu824  O848    1.961   .     S
H826   N841    1.046   .     S
H828   N842    1.046   .     S
H829   N239    1.029   1_556 S
H836   C618    1.088   1_565 S
H838   N641    1.045   1_565 S
N840   N239    1.293   1_556 S
N840   H230    1.029   1_556 S
N842   H627    1.045   1_565 S
C851   O895    1.285   .     A
C851   C868    1.425   .     S
C851   O893    1.293   .     A
C852   C854    1.395   .     A
C852   C863    1.399   .     A
C852   H881    1.084   .     S
C853   C872    1.395   .     A
C853   C871    1.442   .     S
C853   C855    1.394   .     A
C854   C870    1.442   .     S
C854   C856    1.394   .     A
C855   H882    1.085   .     S
C855   C857    1.393   .     A
C856   H883    1.085   .     S
C856   C858    1.393   .     A
C857   C859    1.413   .     A
C857   C864    1.399   .     A
C858   C860    1.413   .     A
C858   C865    1.399   .     A
C859   C861    1.417   .     A
C859   C810    1.401   1_655 S
C860   C863    1.417   .     A
C861   C872    1.399   .     A
C861   C867    1.413   .     A
C862   O894    1.293   .     A
C862   C869    1.425   .     S
C862   O896    1.285   .     A
C863   C866    1.413   .     A
C864   H884    1.084   .     S
C864   C816    1.402   1_655 S
C865   H885    1.084   .     S
C866   N891    1.439   .     S
C867   N892    1.439   .     S
C867   C815    1.402   1_655 S
C869   C668    1.326   1_565 S
C869   H687    1.088   1_565 S
C870   O899    1.292   .     A
C870   O897    1.295   .     A
C871   O900    1.292   .     A
C871   O898    1.295   .     A
C872   H875    1.084   .     S
Cu873  Cu874   2.692   .     S
Cu873  O896    1.948   .     S
Cu873  O897    1.961   .     S
Cu873  N890    2.023   .     S
Cu873  O893    1.954   .     S
Cu873  O900    1.945   .     S
Cu874  O895    1.948   .     S
Cu874  O894    1.954   .     S
Cu874  O899    1.945   .     S
Cu874  N889    2.023   .     S
Cu874  O898    1.961   .     S
H876   N891    1.046   .     S
H878   N892    1.046   .     S
H879   N289    1.029   1_556 S
H886   C668    1.088   1_565 S
H888   N691    1.045   1_565 S
N890   N289    1.293   1_556 S
N890   H280    1.029   1_556 S
N892   H677    1.045   1_565 S
