data_str_m2_o1_o17_pcu_sym.134
_audit_creation_date              2020-01-03
_audit_creation_method            'Materials Studio'
_symmetry_space_group_name_H-M    'P1'
_symmetry_Int_Tables_number       1
_symmetry_cell_setting            triclinic
loop_
_symmetry_equiv_pos_as_xyz
  x,y,z
_cell_length_a                    32.6718
_cell_length_b                    28.5560
_cell_length_c                    29.9651
_cell_angle_alpha                 89.9987
_cell_angle_beta                  90.8377
_cell_angle_gamma                 89.9994
loop_
_atom_site_label
_atom_site_type_symbol
_atom_site_fract_x
_atom_site_fract_y
_atom_site_fract_z
_atom_site_U_iso_or_equiv
_atom_site_adp_type
_atom_site_occupancy
C1     C     0.08733   0.16666   0.25010   0.00000  Uiso   1.00
C2     C     0.24600   0.16666   0.24990   0.00000  Uiso   1.00
C3     C     0.09176   0.14884   0.02073   0.00000  Uiso   1.00
C4     C     0.24158   0.14883   0.47927   0.00000  Uiso   1.00
C5     C     0.02123   0.12415   0.25003   0.00000  Uiso   1.00
C6     C     0.31210   0.20917   0.24996   0.00000  Uiso   1.00
C7     C     0.31210   0.12415   0.24995   0.00000  Uiso   1.00
C8     C     0.02123   0.20917   0.25005   0.00000  Uiso   1.00
C9     C     0.29063   0.16666   0.24990   0.00000  Uiso   1.00
C10    C     0.04271   0.16666   0.25009   0.00000  Uiso   1.00
C11    C     0.14043   0.02481   0.22278   0.00000  Uiso   1.00
C12    C     0.19290   0.30852   0.27722   0.00000  Uiso   1.00
C13    C     0.19290   0.02480   0.27722   0.00000  Uiso   1.00
C14    C     0.14043   0.30853   0.22278   0.00000  Uiso   1.00
C15    C     0.16574   0.16662   0.16444   0.00000  Uiso   1.00
C16    C     0.16759   0.16662   0.33556   0.00000  Uiso   1.00
C17    C     0.20519   0.16869   0.40800   0.00000  Uiso   1.00
C18    C     0.12814   0.16870   0.09200   0.00000  Uiso   1.00
C19    C     0.16825   0.16577   0.38387   0.00000  Uiso   1.00
C20    C     0.16509   0.16578   0.11613   0.00000  Uiso   1.00
C21    C     0.13157   0.15741   0.40513   0.00000  Uiso   1.00
C22    C     0.20176   0.15740   0.09487   0.00000  Uiso   1.00
C23    C     0.13010   0.15505   0.45169   0.00000  Uiso   1.00
C24    C     0.20324   0.15504   0.04831   0.00000  Uiso   1.00
C25    C     0.16718   0.15679   0.47653   0.00000  Uiso   1.00
C26    C     0.16616   0.15679   0.02347   0.00000  Uiso   1.00
C27    C     0.20529   0.15845   0.45435   0.00000  Uiso   1.00
C28    C     0.12804   0.15846   0.04565   0.00000  Uiso   1.00
C29    C     0.09277   0.14769   0.47366   0.00000  Uiso   1.00
C30    C     0.24056   0.14768   0.02634   0.00000  Uiso   1.00
Cu31   Cu    0.16667   0.21355   0.25000   0.00000  Uiso   1.00
Cu32   Cu    0.16667   0.11978   0.25000   0.00000  Uiso   1.00
H33    H     0.10413   0.15425   0.38464   0.00000  Uiso   1.00
H34    H     0.22920   0.15424   0.11536   0.00000  Uiso   1.00
H35    H     0.03716   0.09089   0.25002   0.00000  Uiso   1.00
H36    H     0.29617   0.24244   0.24998   0.00000  Uiso   1.00
H37    H     0.29617   0.09089   0.24994   0.00000  Uiso   1.00
H38    H     0.03716   0.24244   0.25005   0.00000  Uiso   1.00
H39    H     0.11943   0.04351   0.20097   0.00000  Uiso   1.00
H40    H     0.21391   0.28982   0.29902   0.00000  Uiso   1.00
H41    H     0.21391   0.04351   0.29903   0.00000  Uiso   1.00
H42    H     0.11942   0.28982   0.20098   0.00000  Uiso   1.00
N43    N     0.16667   0.28402   0.25000   0.00000  Uiso   1.00
N44    N     0.16667   0.04931   0.25000   0.00000  Uiso   1.00
O45    O     0.10655   0.20625   0.24999   0.00000  Uiso   1.00
O46    O     0.22679   0.12709   0.25000   0.00000  Uiso   1.00
O47    O     0.22679   0.20625   0.25000   0.00000  Uiso   1.00
O48    O     0.10655   0.12709   0.24999   0.00000  Uiso   1.00
O49    O     0.16666   0.20627   0.18513   0.00000  Uiso   1.00
O50    O     0.16668   0.12707   0.31487   0.00000  Uiso   1.00
O51    O     0.16668   0.20627   0.31487   0.00000  Uiso   1.00
O52    O     0.16666   0.12707   0.18513   0.00000  Uiso   1.00
I53    I     0.25662   0.19888   0.37428   0.00000  Uiso   1.00
I54    I     0.07672   0.19891   0.12571   0.00000  Uiso   1.00
C55    C     0.05552   0.13508   0.44740   0.00000  Uiso   1.00
H56    H     0.04339   0.15885   0.42223   0.00000  Uiso   1.00
O57    O     0.03910   0.09714   0.45283   0.00000  Uiso   1.00
C58    C     0.27782   0.13506   0.05261   0.00000  Uiso   1.00
H59    H     0.28994   0.15882   0.07778   0.00000  Uiso   1.00
O60    O     0.29425   0.09713   0.04715   0.00000  Uiso   1.00
C61    C     0.05358   0.13459   0.04281   0.00000  Uiso   1.00
H62    H     0.02475   0.14939   0.03162   0.00000  Uiso   1.00
O63    O     0.05409   0.10500   0.07224   0.00000  Uiso   1.00
C64    C     0.27975   0.13457   0.45719   0.00000  Uiso   1.00
H65    H     0.30858   0.14939   0.46837   0.00000  Uiso   1.00
O66    O     0.27924   0.10496   0.42778   0.00000  Uiso   1.00
C67    C     0.42066   0.16666   0.25010   0.00000  Uiso   1.00
C68    C     0.57934   0.16666   0.24990   0.00000  Uiso   1.00
C69    C     0.42509   0.14884   0.02073   0.00000  Uiso   1.00
C70    C     0.57491   0.14883   0.47927   0.00000  Uiso   1.00
C71    C     0.35456   0.12415   0.25003   0.00000  Uiso   1.00
C72    C     0.64544   0.20917   0.24996   0.00000  Uiso   1.00
C73    C     0.64544   0.12415   0.24995   0.00000  Uiso   1.00
C74    C     0.35456   0.20917   0.25005   0.00000  Uiso   1.00
C75    C     0.62396   0.16666   0.24990   0.00000  Uiso   1.00
C76    C     0.37604   0.16666   0.25009   0.00000  Uiso   1.00
C77    C     0.47377   0.02481   0.22278   0.00000  Uiso   1.00
C78    C     0.52623   0.30852   0.27722   0.00000  Uiso   1.00
C79    C     0.52623   0.02480   0.27722   0.00000  Uiso   1.00
C80    C     0.47377   0.30853   0.22278   0.00000  Uiso   1.00
C81    C     0.49907   0.16662   0.16444   0.00000  Uiso   1.00
C82    C     0.50093   0.16662   0.33556   0.00000  Uiso   1.00
C83    C     0.53853   0.16869   0.40800   0.00000  Uiso   1.00
C84    C     0.46148   0.16870   0.09200   0.00000  Uiso   1.00
C85    C     0.50158   0.16577   0.38387   0.00000  Uiso   1.00
C86    C     0.49842   0.16578   0.11613   0.00000  Uiso   1.00
C87    C     0.46490   0.15741   0.40513   0.00000  Uiso   1.00
C88    C     0.53510   0.15740   0.09487   0.00000  Uiso   1.00
C89    C     0.46343   0.15505   0.45169   0.00000  Uiso   1.00
C90    C     0.53657   0.15504   0.04831   0.00000  Uiso   1.00
C91    C     0.50051   0.15679   0.47653   0.00000  Uiso   1.00
C92    C     0.49949   0.15679   0.02347   0.00000  Uiso   1.00
C93    C     0.53863   0.15845   0.45435   0.00000  Uiso   1.00
C94    C     0.46138   0.15846   0.04565   0.00000  Uiso   1.00
C95    C     0.42610   0.14769   0.47366   0.00000  Uiso   1.00
C96    C     0.57390   0.14768   0.02634   0.00000  Uiso   1.00
Cu97   Cu    0.50000   0.21355   0.25000   0.00000  Uiso   1.00
Cu98   Cu    0.50000   0.11978   0.25000   0.00000  Uiso   1.00
H99    H     0.43746   0.15425   0.38464   0.00000  Uiso   1.00
H100   H     0.56253   0.15424   0.11536   0.00000  Uiso   1.00
H101   H     0.37049   0.09089   0.25002   0.00000  Uiso   1.00
H102   H     0.62951   0.24244   0.24998   0.00000  Uiso   1.00
H103   H     0.62951   0.09089   0.24994   0.00000  Uiso   1.00
H104   H     0.37049   0.24244   0.25005   0.00000  Uiso   1.00
H105   H     0.45276   0.04351   0.20097   0.00000  Uiso   1.00
H106   H     0.54724   0.28982   0.29902   0.00000  Uiso   1.00
H107   H     0.54724   0.04351   0.29903   0.00000  Uiso   1.00
H108   H     0.45276   0.28982   0.20098   0.00000  Uiso   1.00
N109   N     0.50000   0.28402   0.25000   0.00000  Uiso   1.00
N110   N     0.50000   0.04931   0.25000   0.00000  Uiso   1.00
O111   O     0.43988   0.20625   0.24999   0.00000  Uiso   1.00
O112   O     0.56012   0.12709   0.25000   0.00000  Uiso   1.00
O113   O     0.56012   0.20625   0.25000   0.00000  Uiso   1.00
O114   O     0.43988   0.12709   0.24999   0.00000  Uiso   1.00
O115   O     0.49999   0.20627   0.18513   0.00000  Uiso   1.00
O116   O     0.50001   0.12707   0.31487   0.00000  Uiso   1.00
O117   O     0.50001   0.20627   0.31487   0.00000  Uiso   1.00
O118   O     0.49999   0.12707   0.18513   0.00000  Uiso   1.00
I119   I     0.58996   0.19888   0.37428   0.00000  Uiso   1.00
I120   I     0.41005   0.19891   0.12571   0.00000  Uiso   1.00
C121   C     0.38885   0.13508   0.44740   0.00000  Uiso   1.00
H122   H     0.37672   0.15885   0.42223   0.00000  Uiso   1.00
O123   O     0.37243   0.09714   0.45283   0.00000  Uiso   1.00
C124   C     0.61115   0.13506   0.05261   0.00000  Uiso   1.00
H125   H     0.62327   0.15882   0.07778   0.00000  Uiso   1.00
O126   O     0.62758   0.09713   0.04715   0.00000  Uiso   1.00
C127   C     0.38692   0.13459   0.04281   0.00000  Uiso   1.00
H128   H     0.35808   0.14939   0.03162   0.00000  Uiso   1.00
O129   O     0.38743   0.10500   0.07224   0.00000  Uiso   1.00
C130   C     0.61308   0.13457   0.45719   0.00000  Uiso   1.00
H131   H     0.64192   0.14939   0.46837   0.00000  Uiso   1.00
O132   O     0.61257   0.10496   0.42778   0.00000  Uiso   1.00
C133   C     0.75400   0.16666   0.25010   0.00000  Uiso   1.00
C134   C     0.91267   0.16666   0.24990   0.00000  Uiso   1.00
C135   C     0.75842   0.14884   0.02073   0.00000  Uiso   1.00
C136   C     0.90824   0.14883   0.47927   0.00000  Uiso   1.00
C137   C     0.68790   0.12415   0.25003   0.00000  Uiso   1.00
C138   C     0.97877   0.20917   0.24996   0.00000  Uiso   1.00
C139   C     0.97877   0.12415   0.24995   0.00000  Uiso   1.00
C140   C     0.68790   0.20917   0.25005   0.00000  Uiso   1.00
C141   C     0.95729   0.16666   0.24990   0.00000  Uiso   1.00
C142   C     0.70937   0.16666   0.25009   0.00000  Uiso   1.00
C143   C     0.80710   0.02481   0.22278   0.00000  Uiso   1.00
C144   C     0.85957   0.30852   0.27722   0.00000  Uiso   1.00
C145   C     0.85957   0.02480   0.27722   0.00000  Uiso   1.00
C146   C     0.80710   0.30853   0.22278   0.00000  Uiso   1.00
C147   C     0.83241   0.16662   0.16444   0.00000  Uiso   1.00
C148   C     0.83426   0.16662   0.33556   0.00000  Uiso   1.00
C149   C     0.87186   0.16869   0.40800   0.00000  Uiso   1.00
C150   C     0.79481   0.16870   0.09200   0.00000  Uiso   1.00
C151   C     0.83492   0.16577   0.38387   0.00000  Uiso   1.00
C152   C     0.83175   0.16578   0.11613   0.00000  Uiso   1.00
C153   C     0.79824   0.15741   0.40513   0.00000  Uiso   1.00
C154   C     0.86843   0.15740   0.09487   0.00000  Uiso   1.00
C155   C     0.79676   0.15505   0.45169   0.00000  Uiso   1.00
C156   C     0.86991   0.15504   0.04831   0.00000  Uiso   1.00
C157   C     0.83384   0.15679   0.47653   0.00000  Uiso   1.00
C158   C     0.83282   0.15679   0.02347   0.00000  Uiso   1.00
C159   C     0.87196   0.15845   0.45435   0.00000  Uiso   1.00
C160   C     0.79471   0.15846   0.04565   0.00000  Uiso   1.00
C161   C     0.75944   0.14769   0.47366   0.00000  Uiso   1.00
C162   C     0.90723   0.14768   0.02634   0.00000  Uiso   1.00
Cu163  Cu    0.83333   0.21355   0.25000   0.00000  Uiso   1.00
Cu164  Cu    0.83333   0.11978   0.25000   0.00000  Uiso   1.00
H165   H     0.77080   0.15425   0.38464   0.00000  Uiso   1.00
H166   H     0.89587   0.15424   0.11536   0.00000  Uiso   1.00
H167   H     0.70383   0.09089   0.25002   0.00000  Uiso   1.00
H168   H     0.96284   0.24244   0.24998   0.00000  Uiso   1.00
H169   H     0.96284   0.09089   0.24994   0.00000  Uiso   1.00
H170   H     0.70383   0.24244   0.25005   0.00000  Uiso   1.00
H171   H     0.78609   0.04351   0.20097   0.00000  Uiso   1.00
H172   H     0.88058   0.28982   0.29902   0.00000  Uiso   1.00
H173   H     0.88057   0.04351   0.29903   0.00000  Uiso   1.00
H174   H     0.78609   0.28982   0.20098   0.00000  Uiso   1.00
N175   N     0.83333   0.28402   0.25000   0.00000  Uiso   1.00
N176   N     0.83333   0.04931   0.25000   0.00000  Uiso   1.00
O177   O     0.77321   0.20625   0.24999   0.00000  Uiso   1.00
O178   O     0.89345   0.12709   0.25000   0.00000  Uiso   1.00
O179   O     0.89345   0.20625   0.25000   0.00000  Uiso   1.00
O180   O     0.77321   0.12709   0.24999   0.00000  Uiso   1.00
O181   O     0.83332   0.20627   0.18513   0.00000  Uiso   1.00
O182   O     0.83334   0.12707   0.31487   0.00000  Uiso   1.00
O183   O     0.83334   0.20627   0.31487   0.00000  Uiso   1.00
O184   O     0.83332   0.12707   0.18513   0.00000  Uiso   1.00
I185   I     0.92329   0.19888   0.37428   0.00000  Uiso   1.00
I186   I     0.74338   0.19891   0.12571   0.00000  Uiso   1.00
C187   C     0.72218   0.13508   0.44740   0.00000  Uiso   1.00
H188   H     0.71005   0.15885   0.42223   0.00000  Uiso   1.00
O189   O     0.70576   0.09714   0.45283   0.00000  Uiso   1.00
C190   C     0.94448   0.13506   0.05261   0.00000  Uiso   1.00
H191   H     0.95661   0.15882   0.07778   0.00000  Uiso   1.00
O192   O     0.96091   0.09713   0.04715   0.00000  Uiso   1.00
C193   C     0.72025   0.13459   0.04281   0.00000  Uiso   1.00
H194   H     0.69142   0.14939   0.03162   0.00000  Uiso   1.00
O195   O     0.72076   0.10500   0.07224   0.00000  Uiso   1.00
C196   C     0.94642   0.13457   0.45719   0.00000  Uiso   1.00
H197   H     0.97525   0.14939   0.46837   0.00000  Uiso   1.00
O198   O     0.94591   0.10496   0.42778   0.00000  Uiso   1.00
C199   C     0.08733   0.50000   0.25010   0.00000  Uiso   1.00
C200   C     0.24600   0.50000   0.24990   0.00000  Uiso   1.00
C201   C     0.09176   0.48217   0.02073   0.00000  Uiso   1.00
C202   C     0.24158   0.48216   0.47927   0.00000  Uiso   1.00
C203   C     0.02123   0.45749   0.25003   0.00000  Uiso   1.00
C204   C     0.31210   0.54251   0.24996   0.00000  Uiso   1.00
C205   C     0.31210   0.45749   0.24995   0.00000  Uiso   1.00
C206   C     0.02123   0.54251   0.25005   0.00000  Uiso   1.00
C207   C     0.29063   0.50000   0.24990   0.00000  Uiso   1.00
C208   C     0.04271   0.50000   0.25009   0.00000  Uiso   1.00
C209   C     0.14043   0.35814   0.22278   0.00000  Uiso   1.00
C210   C     0.19290   0.64186   0.27722   0.00000  Uiso   1.00
C211   C     0.19290   0.35814   0.27722   0.00000  Uiso   1.00
C212   C     0.14043   0.64186   0.22278   0.00000  Uiso   1.00
C213   C     0.16574   0.49995   0.16444   0.00000  Uiso   1.00
C214   C     0.16759   0.49995   0.33556   0.00000  Uiso   1.00
C215   C     0.20519   0.50203   0.40800   0.00000  Uiso   1.00
C216   C     0.12814   0.50204   0.09200   0.00000  Uiso   1.00
C217   C     0.16825   0.49911   0.38387   0.00000  Uiso   1.00
C218   C     0.16509   0.49911   0.11613   0.00000  Uiso   1.00
C219   C     0.13157   0.49074   0.40513   0.00000  Uiso   1.00
C220   C     0.20176   0.49073   0.09487   0.00000  Uiso   1.00
C221   C     0.13010   0.48838   0.45169   0.00000  Uiso   1.00
C222   C     0.20324   0.48838   0.04831   0.00000  Uiso   1.00
C223   C     0.16718   0.49012   0.47653   0.00000  Uiso   1.00
C224   C     0.16616   0.49012   0.02347   0.00000  Uiso   1.00
C225   C     0.20529   0.49179   0.45435   0.00000  Uiso   1.00
C226   C     0.12804   0.49179   0.04565   0.00000  Uiso   1.00
C227   C     0.09277   0.48102   0.47366   0.00000  Uiso   1.00
C228   C     0.24056   0.48101   0.02634   0.00000  Uiso   1.00
Cu229  Cu    0.16667   0.54689   0.25000   0.00000  Uiso   1.00
Cu230  Cu    0.16667   0.45311   0.25000   0.00000  Uiso   1.00
H231   H     0.10413   0.48759   0.38464   0.00000  Uiso   1.00
H232   H     0.22920   0.48757   0.11536   0.00000  Uiso   1.00
H233   H     0.03716   0.42422   0.25002   0.00000  Uiso   1.00
H234   H     0.29617   0.57577   0.24998   0.00000  Uiso   1.00
H235   H     0.29617   0.42422   0.24994   0.00000  Uiso   1.00
H236   H     0.03716   0.57577   0.25005   0.00000  Uiso   1.00
H237   H     0.11943   0.37684   0.20097   0.00000  Uiso   1.00
H238   H     0.21391   0.62315   0.29902   0.00000  Uiso   1.00
H239   H     0.21391   0.37684   0.29903   0.00000  Uiso   1.00
H240   H     0.11942   0.62315   0.20098   0.00000  Uiso   1.00
N241   N     0.16667   0.61736   0.25000   0.00000  Uiso   1.00
N242   N     0.16667   0.38264   0.25000   0.00000  Uiso   1.00
O243   O     0.10655   0.53958   0.24999   0.00000  Uiso   1.00
O244   O     0.22679   0.46042   0.25000   0.00000  Uiso   1.00
O245   O     0.22679   0.53958   0.25000   0.00000  Uiso   1.00
O246   O     0.10655   0.46042   0.24999   0.00000  Uiso   1.00
O247   O     0.16666   0.53960   0.18513   0.00000  Uiso   1.00
O248   O     0.16668   0.46040   0.31487   0.00000  Uiso   1.00
O249   O     0.16668   0.53960   0.31487   0.00000  Uiso   1.00
O250   O     0.16666   0.46040   0.18513   0.00000  Uiso   1.00
I251   I     0.25662   0.53221   0.37428   0.00000  Uiso   1.00
I252   I     0.07672   0.53224   0.12571   0.00000  Uiso   1.00
C253   C     0.05552   0.46841   0.44740   0.00000  Uiso   1.00
H254   H     0.04339   0.49219   0.42223   0.00000  Uiso   1.00
O255   O     0.03910   0.43047   0.45283   0.00000  Uiso   1.00
C256   C     0.27782   0.46840   0.05261   0.00000  Uiso   1.00
H257   H     0.28994   0.49216   0.07778   0.00000  Uiso   1.00
O258   O     0.29425   0.43046   0.04715   0.00000  Uiso   1.00
C259   C     0.05358   0.46793   0.04281   0.00000  Uiso   1.00
H260   H     0.02475   0.48273   0.03162   0.00000  Uiso   1.00
O261   O     0.05409   0.43833   0.07224   0.00000  Uiso   1.00
C262   C     0.27975   0.46791   0.45719   0.00000  Uiso   1.00
H263   H     0.30858   0.48272   0.46837   0.00000  Uiso   1.00
O264   O     0.27924   0.43830   0.42778   0.00000  Uiso   1.00
C265   C     0.42066   0.50000   0.25010   0.00000  Uiso   1.00
C266   C     0.57934   0.50000   0.24990   0.00000  Uiso   1.00
C267   C     0.42509   0.48217   0.02073   0.00000  Uiso   1.00
C268   C     0.57491   0.48216   0.47927   0.00000  Uiso   1.00
C269   C     0.35456   0.45749   0.25003   0.00000  Uiso   1.00
C270   C     0.64544   0.54251   0.24996   0.00000  Uiso   1.00
C271   C     0.64544   0.45749   0.24995   0.00000  Uiso   1.00
C272   C     0.35456   0.54251   0.25005   0.00000  Uiso   1.00
C273   C     0.62396   0.50000   0.24990   0.00000  Uiso   1.00
C274   C     0.37604   0.50000   0.25009   0.00000  Uiso   1.00
C275   C     0.47377   0.35814   0.22278   0.00000  Uiso   1.00
C276   C     0.52623   0.64186   0.27722   0.00000  Uiso   1.00
C277   C     0.52623   0.35814   0.27722   0.00000  Uiso   1.00
C278   C     0.47377   0.64186   0.22278   0.00000  Uiso   1.00
C279   C     0.49907   0.49995   0.16444   0.00000  Uiso   1.00
C280   C     0.50093   0.49995   0.33556   0.00000  Uiso   1.00
C281   C     0.53853   0.50203   0.40800   0.00000  Uiso   1.00
C282   C     0.46148   0.50204   0.09200   0.00000  Uiso   1.00
C283   C     0.50158   0.49911   0.38387   0.00000  Uiso   1.00
C284   C     0.49842   0.49911   0.11613   0.00000  Uiso   1.00
C285   C     0.46490   0.49074   0.40513   0.00000  Uiso   1.00
C286   C     0.53510   0.49073   0.09487   0.00000  Uiso   1.00
C287   C     0.46343   0.48838   0.45169   0.00000  Uiso   1.00
C288   C     0.53657   0.48838   0.04831   0.00000  Uiso   1.00
C289   C     0.50051   0.49012   0.47653   0.00000  Uiso   1.00
C290   C     0.49949   0.49012   0.02347   0.00000  Uiso   1.00
C291   C     0.53863   0.49179   0.45435   0.00000  Uiso   1.00
C292   C     0.46138   0.49179   0.04565   0.00000  Uiso   1.00
C293   C     0.42610   0.48102   0.47366   0.00000  Uiso   1.00
C294   C     0.57390   0.48101   0.02634   0.00000  Uiso   1.00
Cu295  Cu    0.50000   0.54689   0.25000   0.00000  Uiso   1.00
Cu296  Cu    0.50000   0.45311   0.25000   0.00000  Uiso   1.00
H297   H     0.43746   0.48759   0.38464   0.00000  Uiso   1.00
H298   H     0.56253   0.48757   0.11536   0.00000  Uiso   1.00
H299   H     0.37049   0.42422   0.25002   0.00000  Uiso   1.00
H300   H     0.62951   0.57577   0.24998   0.00000  Uiso   1.00
H301   H     0.62951   0.42422   0.24994   0.00000  Uiso   1.00
H302   H     0.37049   0.57577   0.25005   0.00000  Uiso   1.00
H303   H     0.45276   0.37684   0.20097   0.00000  Uiso   1.00
H304   H     0.54724   0.62315   0.29902   0.00000  Uiso   1.00
H305   H     0.54724   0.37684   0.29903   0.00000  Uiso   1.00
H306   H     0.45276   0.62315   0.20098   0.00000  Uiso   1.00
N307   N     0.50000   0.61736   0.25000   0.00000  Uiso   1.00
N308   N     0.50000   0.38264   0.25000   0.00000  Uiso   1.00
O309   O     0.43988   0.53958   0.24999   0.00000  Uiso   1.00
O310   O     0.56012   0.46042   0.25000   0.00000  Uiso   1.00
O311   O     0.56012   0.53958   0.25000   0.00000  Uiso   1.00
O312   O     0.43988   0.46042   0.24999   0.00000  Uiso   1.00
O313   O     0.49999   0.53960   0.18513   0.00000  Uiso   1.00
O314   O     0.50001   0.46040   0.31487   0.00000  Uiso   1.00
O315   O     0.50001   0.53960   0.31487   0.00000  Uiso   1.00
O316   O     0.49999   0.46040   0.18513   0.00000  Uiso   1.00
I317   I     0.58996   0.53221   0.37428   0.00000  Uiso   1.00
I318   I     0.41005   0.53224   0.12571   0.00000  Uiso   1.00
C319   C     0.38885   0.46841   0.44740   0.00000  Uiso   1.00
H320   H     0.37672   0.49219   0.42223   0.00000  Uiso   1.00
O321   O     0.37243   0.43047   0.45283   0.00000  Uiso   1.00
C322   C     0.61115   0.46840   0.05261   0.00000  Uiso   1.00
H323   H     0.62327   0.49216   0.07778   0.00000  Uiso   1.00
O324   O     0.62758   0.43046   0.04715   0.00000  Uiso   1.00
C325   C     0.38692   0.46793   0.04281   0.00000  Uiso   1.00
H326   H     0.35808   0.48273   0.03162   0.00000  Uiso   1.00
O327   O     0.38743   0.43833   0.07224   0.00000  Uiso   1.00
C328   C     0.61308   0.46791   0.45719   0.00000  Uiso   1.00
H329   H     0.64192   0.48272   0.46837   0.00000  Uiso   1.00
O330   O     0.61257   0.43830   0.42778   0.00000  Uiso   1.00
C331   C     0.75400   0.50000   0.25010   0.00000  Uiso   1.00
C332   C     0.91267   0.50000   0.24990   0.00000  Uiso   1.00
C333   C     0.75842   0.48217   0.02073   0.00000  Uiso   1.00
C334   C     0.90824   0.48216   0.47927   0.00000  Uiso   1.00
C335   C     0.68790   0.45749   0.25003   0.00000  Uiso   1.00
C336   C     0.97877   0.54251   0.24996   0.00000  Uiso   1.00
C337   C     0.97877   0.45749   0.24995   0.00000  Uiso   1.00
C338   C     0.68790   0.54251   0.25005   0.00000  Uiso   1.00
C339   C     0.95729   0.50000   0.24990   0.00000  Uiso   1.00
C340   C     0.70937   0.50000   0.25009   0.00000  Uiso   1.00
C341   C     0.80710   0.35814   0.22278   0.00000  Uiso   1.00
C342   C     0.85957   0.64186   0.27722   0.00000  Uiso   1.00
C343   C     0.85957   0.35814   0.27722   0.00000  Uiso   1.00
C344   C     0.80710   0.64186   0.22278   0.00000  Uiso   1.00
C345   C     0.83241   0.49995   0.16444   0.00000  Uiso   1.00
C346   C     0.83426   0.49995   0.33556   0.00000  Uiso   1.00
C347   C     0.87186   0.50203   0.40800   0.00000  Uiso   1.00
C348   C     0.79481   0.50204   0.09200   0.00000  Uiso   1.00
C349   C     0.83492   0.49911   0.38387   0.00000  Uiso   1.00
C350   C     0.83175   0.49911   0.11613   0.00000  Uiso   1.00
C351   C     0.79824   0.49074   0.40513   0.00000  Uiso   1.00
C352   C     0.86843   0.49073   0.09487   0.00000  Uiso   1.00
C353   C     0.79676   0.48838   0.45169   0.00000  Uiso   1.00
C354   C     0.86991   0.48838   0.04831   0.00000  Uiso   1.00
C355   C     0.83384   0.49012   0.47653   0.00000  Uiso   1.00
C356   C     0.83282   0.49012   0.02347   0.00000  Uiso   1.00
C357   C     0.87196   0.49179   0.45435   0.00000  Uiso   1.00
C358   C     0.79471   0.49179   0.04565   0.00000  Uiso   1.00
C359   C     0.75944   0.48102   0.47366   0.00000  Uiso   1.00
C360   C     0.90723   0.48101   0.02634   0.00000  Uiso   1.00
Cu361  Cu    0.83333   0.54689   0.25000   0.00000  Uiso   1.00
Cu362  Cu    0.83333   0.45311   0.25000   0.00000  Uiso   1.00
H363   H     0.77080   0.48759   0.38464   0.00000  Uiso   1.00
H364   H     0.89587   0.48757   0.11536   0.00000  Uiso   1.00
H365   H     0.70383   0.42422   0.25002   0.00000  Uiso   1.00
H366   H     0.96284   0.57577   0.24998   0.00000  Uiso   1.00
H367   H     0.96284   0.42422   0.24994   0.00000  Uiso   1.00
H368   H     0.70383   0.57577   0.25005   0.00000  Uiso   1.00
H369   H     0.78609   0.37684   0.20097   0.00000  Uiso   1.00
H370   H     0.88058   0.62315   0.29902   0.00000  Uiso   1.00
H371   H     0.88057   0.37684   0.29903   0.00000  Uiso   1.00
H372   H     0.78609   0.62315   0.20098   0.00000  Uiso   1.00
N373   N     0.83333   0.61736   0.25000   0.00000  Uiso   1.00
N374   N     0.83333   0.38264   0.25000   0.00000  Uiso   1.00
O375   O     0.77321   0.53958   0.24999   0.00000  Uiso   1.00
O376   O     0.89345   0.46042   0.25000   0.00000  Uiso   1.00
O377   O     0.89345   0.53958   0.25000   0.00000  Uiso   1.00
O378   O     0.77321   0.46042   0.24999   0.00000  Uiso   1.00
O379   O     0.83332   0.53960   0.18513   0.00000  Uiso   1.00
O380   O     0.83334   0.46040   0.31487   0.00000  Uiso   1.00
O381   O     0.83334   0.53960   0.31487   0.00000  Uiso   1.00
O382   O     0.83332   0.46040   0.18513   0.00000  Uiso   1.00
I383   I     0.92329   0.53221   0.37428   0.00000  Uiso   1.00
I384   I     0.74338   0.53224   0.12571   0.00000  Uiso   1.00
C385   C     0.72218   0.46841   0.44740   0.00000  Uiso   1.00
H386   H     0.71005   0.49219   0.42223   0.00000  Uiso   1.00
O387   O     0.70576   0.43047   0.45283   0.00000  Uiso   1.00
C388   C     0.94448   0.46840   0.05261   0.00000  Uiso   1.00
H389   H     0.95661   0.49216   0.07778   0.00000  Uiso   1.00
O390   O     0.96091   0.43046   0.04715   0.00000  Uiso   1.00
C391   C     0.72025   0.46793   0.04281   0.00000  Uiso   1.00
H392   H     0.69142   0.48273   0.03162   0.00000  Uiso   1.00
O393   O     0.72076   0.43833   0.07224   0.00000  Uiso   1.00
C394   C     0.94642   0.46791   0.45719   0.00000  Uiso   1.00
H395   H     0.97525   0.48272   0.46837   0.00000  Uiso   1.00
O396   O     0.94591   0.43830   0.42778   0.00000  Uiso   1.00
C397   C     0.08733   0.83333   0.25010   0.00000  Uiso   1.00
C398   C     0.24600   0.83333   0.24990   0.00000  Uiso   1.00
C399   C     0.09176   0.81550   0.02073   0.00000  Uiso   1.00
C400   C     0.24158   0.81549   0.47927   0.00000  Uiso   1.00
C401   C     0.02123   0.79082   0.25003   0.00000  Uiso   1.00
C402   C     0.31210   0.87584   0.24996   0.00000  Uiso   1.00
C403   C     0.31210   0.79082   0.24995   0.00000  Uiso   1.00
C404   C     0.02123   0.87584   0.25005   0.00000  Uiso   1.00
C405   C     0.29063   0.83333   0.24990   0.00000  Uiso   1.00
C406   C     0.04271   0.83333   0.25009   0.00000  Uiso   1.00
C407   C     0.14043   0.69147   0.22278   0.00000  Uiso   1.00
C408   C     0.19290   0.97519   0.27722   0.00000  Uiso   1.00
C409   C     0.19290   0.69147   0.27722   0.00000  Uiso   1.00
C410   C     0.14043   0.97519   0.22278   0.00000  Uiso   1.00
C411   C     0.16574   0.83328   0.16444   0.00000  Uiso   1.00
C412   C     0.16759   0.83328   0.33556   0.00000  Uiso   1.00
C413   C     0.20519   0.83536   0.40800   0.00000  Uiso   1.00
C414   C     0.12814   0.83537   0.09200   0.00000  Uiso   1.00
C415   C     0.16825   0.83244   0.38387   0.00000  Uiso   1.00
C416   C     0.16509   0.83244   0.11613   0.00000  Uiso   1.00
C417   C     0.13157   0.82407   0.40513   0.00000  Uiso   1.00
C418   C     0.20176   0.82407   0.09487   0.00000  Uiso   1.00
C419   C     0.13010   0.82172   0.45169   0.00000  Uiso   1.00
C420   C     0.20324   0.82171   0.04831   0.00000  Uiso   1.00
C421   C     0.16718   0.82345   0.47653   0.00000  Uiso   1.00
C422   C     0.16616   0.82345   0.02347   0.00000  Uiso   1.00
C423   C     0.20529   0.82512   0.45435   0.00000  Uiso   1.00
C424   C     0.12804   0.82513   0.04565   0.00000  Uiso   1.00
C425   C     0.09277   0.81436   0.47366   0.00000  Uiso   1.00
C426   C     0.24056   0.81434   0.02634   0.00000  Uiso   1.00
Cu427  Cu    0.16667   0.88022   0.25000   0.00000  Uiso   1.00
Cu428  Cu    0.16667   0.78645   0.25000   0.00000  Uiso   1.00
H429   H     0.10413   0.82092   0.38464   0.00000  Uiso   1.00
H430   H     0.22920   0.82091   0.11536   0.00000  Uiso   1.00
H431   H     0.03716   0.75755   0.25002   0.00000  Uiso   1.00
H432   H     0.29617   0.90910   0.24998   0.00000  Uiso   1.00
H433   H     0.29617   0.75755   0.24994   0.00000  Uiso   1.00
H434   H     0.03716   0.90911   0.25005   0.00000  Uiso   1.00
H435   H     0.11943   0.71018   0.20097   0.00000  Uiso   1.00
H436   H     0.21391   0.95648   0.29902   0.00000  Uiso   1.00
H437   H     0.21391   0.71017   0.29903   0.00000  Uiso   1.00
H438   H     0.11942   0.95649   0.20098   0.00000  Uiso   1.00
N439   N     0.16667   0.95069   0.25000   0.00000  Uiso   1.00
N440   N     0.16667   0.71598   0.25000   0.00000  Uiso   1.00
O441   O     0.10655   0.87291   0.24999   0.00000  Uiso   1.00
O442   O     0.22679   0.79375   0.25000   0.00000  Uiso   1.00
O443   O     0.22679   0.87291   0.25000   0.00000  Uiso   1.00
O444   O     0.10655   0.79375   0.24999   0.00000  Uiso   1.00
O445   O     0.16666   0.87293   0.18513   0.00000  Uiso   1.00
O446   O     0.16668   0.79373   0.31487   0.00000  Uiso   1.00
O447   O     0.16668   0.87293   0.31487   0.00000  Uiso   1.00
O448   O     0.16666   0.79373   0.18513   0.00000  Uiso   1.00
I449   I     0.25662   0.86554   0.37428   0.00000  Uiso   1.00
I450   I     0.07672   0.86558   0.12571   0.00000  Uiso   1.00
C451   C     0.05552   0.80175   0.44740   0.00000  Uiso   1.00
H452   H     0.04339   0.82552   0.42223   0.00000  Uiso   1.00
O453   O     0.03910   0.76381   0.45283   0.00000  Uiso   1.00
C454   C     0.27782   0.80173   0.05261   0.00000  Uiso   1.00
H455   H     0.28994   0.82549   0.07778   0.00000  Uiso   1.00
O456   O     0.29425   0.76380   0.04715   0.00000  Uiso   1.00
C457   C     0.05358   0.80126   0.04281   0.00000  Uiso   1.00
H458   H     0.02475   0.81606   0.03162   0.00000  Uiso   1.00
O459   O     0.05409   0.77167   0.07224   0.00000  Uiso   1.00
C460   C     0.27975   0.80124   0.45719   0.00000  Uiso   1.00
H461   H     0.30858   0.81605   0.46837   0.00000  Uiso   1.00
O462   O     0.27924   0.77163   0.42778   0.00000  Uiso   1.00
C463   C     0.42066   0.83333   0.25010   0.00000  Uiso   1.00
C464   C     0.57934   0.83333   0.24990   0.00000  Uiso   1.00
C465   C     0.42509   0.81550   0.02073   0.00000  Uiso   1.00
C466   C     0.57491   0.81549   0.47927   0.00000  Uiso   1.00
C467   C     0.35456   0.79082   0.25003   0.00000  Uiso   1.00
C468   C     0.64544   0.87584   0.24996   0.00000  Uiso   1.00
C469   C     0.64544   0.79082   0.24995   0.00000  Uiso   1.00
C470   C     0.35456   0.87584   0.25005   0.00000  Uiso   1.00
C471   C     0.62396   0.83333   0.24990   0.00000  Uiso   1.00
C472   C     0.37604   0.83333   0.25009   0.00000  Uiso   1.00
C473   C     0.47377   0.69147   0.22278   0.00000  Uiso   1.00
C474   C     0.52623   0.97519   0.27722   0.00000  Uiso   1.00
C475   C     0.52623   0.69147   0.27722   0.00000  Uiso   1.00
C476   C     0.47377   0.97519   0.22278   0.00000  Uiso   1.00
C477   C     0.49907   0.83328   0.16444   0.00000  Uiso   1.00
C478   C     0.50093   0.83328   0.33556   0.00000  Uiso   1.00
C479   C     0.53853   0.83536   0.40800   0.00000  Uiso   1.00
C480   C     0.46148   0.83537   0.09200   0.00000  Uiso   1.00
C481   C     0.50158   0.83244   0.38387   0.00000  Uiso   1.00
C482   C     0.49842   0.83244   0.11613   0.00000  Uiso   1.00
C483   C     0.46490   0.82407   0.40513   0.00000  Uiso   1.00
C484   C     0.53510   0.82407   0.09487   0.00000  Uiso   1.00
C485   C     0.46343   0.82172   0.45169   0.00000  Uiso   1.00
C486   C     0.53657   0.82171   0.04831   0.00000  Uiso   1.00
C487   C     0.50051   0.82345   0.47653   0.00000  Uiso   1.00
C488   C     0.49949   0.82345   0.02347   0.00000  Uiso   1.00
C489   C     0.53863   0.82512   0.45435   0.00000  Uiso   1.00
C490   C     0.46138   0.82513   0.04565   0.00000  Uiso   1.00
C491   C     0.42610   0.81436   0.47366   0.00000  Uiso   1.00
C492   C     0.57390   0.81434   0.02634   0.00000  Uiso   1.00
Cu493  Cu    0.50000   0.88022   0.25000   0.00000  Uiso   1.00
Cu494  Cu    0.50000   0.78645   0.25000   0.00000  Uiso   1.00
H495   H     0.43746   0.82092   0.38464   0.00000  Uiso   1.00
H496   H     0.56253   0.82091   0.11536   0.00000  Uiso   1.00
H497   H     0.37049   0.75755   0.25002   0.00000  Uiso   1.00
H498   H     0.62951   0.90910   0.24998   0.00000  Uiso   1.00
H499   H     0.62951   0.75755   0.24994   0.00000  Uiso   1.00
H500   H     0.37049   0.90911   0.25005   0.00000  Uiso   1.00
H501   H     0.45276   0.71018   0.20097   0.00000  Uiso   1.00
H502   H     0.54724   0.95648   0.29902   0.00000  Uiso   1.00
H503   H     0.54724   0.71017   0.29903   0.00000  Uiso   1.00
H504   H     0.45276   0.95649   0.20098   0.00000  Uiso   1.00
N505   N     0.50000   0.95069   0.25000   0.00000  Uiso   1.00
N506   N     0.50000   0.71598   0.25000   0.00000  Uiso   1.00
O507   O     0.43988   0.87291   0.24999   0.00000  Uiso   1.00
O508   O     0.56012   0.79375   0.25000   0.00000  Uiso   1.00
O509   O     0.56012   0.87291   0.25000   0.00000  Uiso   1.00
O510   O     0.43988   0.79375   0.24999   0.00000  Uiso   1.00
O511   O     0.49999   0.87293   0.18513   0.00000  Uiso   1.00
O512   O     0.50001   0.79373   0.31487   0.00000  Uiso   1.00
O513   O     0.50001   0.87293   0.31487   0.00000  Uiso   1.00
O514   O     0.49999   0.79373   0.18513   0.00000  Uiso   1.00
I515   I     0.58996   0.86554   0.37428   0.00000  Uiso   1.00
I516   I     0.41005   0.86558   0.12571   0.00000  Uiso   1.00
C517   C     0.38885   0.80175   0.44740   0.00000  Uiso   1.00
H518   H     0.37672   0.82552   0.42223   0.00000  Uiso   1.00
O519   O     0.37243   0.76381   0.45283   0.00000  Uiso   1.00
C520   C     0.61115   0.80173   0.05261   0.00000  Uiso   1.00
H521   H     0.62327   0.82549   0.07778   0.00000  Uiso   1.00
O522   O     0.62758   0.76380   0.04715   0.00000  Uiso   1.00
C523   C     0.38692   0.80126   0.04281   0.00000  Uiso   1.00
H524   H     0.35808   0.81606   0.03162   0.00000  Uiso   1.00
O525   O     0.38743   0.77167   0.07224   0.00000  Uiso   1.00
C526   C     0.61308   0.80124   0.45719   0.00000  Uiso   1.00
H527   H     0.64192   0.81605   0.46837   0.00000  Uiso   1.00
O528   O     0.61257   0.77163   0.42778   0.00000  Uiso   1.00
C529   C     0.75400   0.83333   0.25010   0.00000  Uiso   1.00
C530   C     0.91267   0.83333   0.24990   0.00000  Uiso   1.00
C531   C     0.75842   0.81550   0.02073   0.00000  Uiso   1.00
C532   C     0.90824   0.81549   0.47927   0.00000  Uiso   1.00
C533   C     0.68790   0.79082   0.25003   0.00000  Uiso   1.00
C534   C     0.97877   0.87584   0.24996   0.00000  Uiso   1.00
C535   C     0.97877   0.79082   0.24995   0.00000  Uiso   1.00
C536   C     0.68790   0.87584   0.25005   0.00000  Uiso   1.00
C537   C     0.95729   0.83333   0.24990   0.00000  Uiso   1.00
C538   C     0.70937   0.83333   0.25009   0.00000  Uiso   1.00
C539   C     0.80710   0.69147   0.22278   0.00000  Uiso   1.00
C540   C     0.85957   0.97519   0.27722   0.00000  Uiso   1.00
C541   C     0.85957   0.69147   0.27722   0.00000  Uiso   1.00
C542   C     0.80710   0.97519   0.22278   0.00000  Uiso   1.00
C543   C     0.83241   0.83328   0.16444   0.00000  Uiso   1.00
C544   C     0.83426   0.83328   0.33556   0.00000  Uiso   1.00
C545   C     0.87186   0.83536   0.40800   0.00000  Uiso   1.00
C546   C     0.79481   0.83537   0.09200   0.00000  Uiso   1.00
C547   C     0.83492   0.83244   0.38387   0.00000  Uiso   1.00
C548   C     0.83175   0.83244   0.11613   0.00000  Uiso   1.00
C549   C     0.79824   0.82407   0.40513   0.00000  Uiso   1.00
C550   C     0.86843   0.82407   0.09487   0.00000  Uiso   1.00
C551   C     0.79676   0.82172   0.45169   0.00000  Uiso   1.00
C552   C     0.86991   0.82171   0.04831   0.00000  Uiso   1.00
C553   C     0.83384   0.82345   0.47653   0.00000  Uiso   1.00
C554   C     0.83282   0.82345   0.02347   0.00000  Uiso   1.00
C555   C     0.87196   0.82512   0.45435   0.00000  Uiso   1.00
C556   C     0.79471   0.82513   0.04565   0.00000  Uiso   1.00
C557   C     0.75944   0.81436   0.47366   0.00000  Uiso   1.00
C558   C     0.90723   0.81434   0.02634   0.00000  Uiso   1.00
Cu559  Cu    0.83333   0.88022   0.25000   0.00000  Uiso   1.00
Cu560  Cu    0.83333   0.78645   0.25000   0.00000  Uiso   1.00
H561   H     0.77080   0.82092   0.38464   0.00000  Uiso   1.00
H562   H     0.89587   0.82091   0.11536   0.00000  Uiso   1.00
H563   H     0.70383   0.75755   0.25002   0.00000  Uiso   1.00
H564   H     0.96284   0.90910   0.24998   0.00000  Uiso   1.00
H565   H     0.96284   0.75755   0.24994   0.00000  Uiso   1.00
H566   H     0.70383   0.90911   0.25005   0.00000  Uiso   1.00
H567   H     0.78609   0.71018   0.20097   0.00000  Uiso   1.00
H568   H     0.88058   0.95648   0.29902   0.00000  Uiso   1.00
H569   H     0.88057   0.71017   0.29903   0.00000  Uiso   1.00
H570   H     0.78609   0.95649   0.20098   0.00000  Uiso   1.00
N571   N     0.83333   0.95069   0.25000   0.00000  Uiso   1.00
N572   N     0.83333   0.71598   0.25000   0.00000  Uiso   1.00
O573   O     0.77321   0.87291   0.24999   0.00000  Uiso   1.00
O574   O     0.89345   0.79375   0.25000   0.00000  Uiso   1.00
O575   O     0.89345   0.87291   0.25000   0.00000  Uiso   1.00
O576   O     0.77321   0.79375   0.24999   0.00000  Uiso   1.00
O577   O     0.83332   0.87293   0.18513   0.00000  Uiso   1.00
O578   O     0.83334   0.79373   0.31487   0.00000  Uiso   1.00
O579   O     0.83334   0.87293   0.31487   0.00000  Uiso   1.00
O580   O     0.83332   0.79373   0.18513   0.00000  Uiso   1.00
I581   I     0.92329   0.86554   0.37428   0.00000  Uiso   1.00
I582   I     0.74338   0.86558   0.12571   0.00000  Uiso   1.00
C583   C     0.72218   0.80175   0.44740   0.00000  Uiso   1.00
H584   H     0.71005   0.82552   0.42223   0.00000  Uiso   1.00
O585   O     0.70576   0.76381   0.45283   0.00000  Uiso   1.00
C586   C     0.94448   0.80173   0.05261   0.00000  Uiso   1.00
H587   H     0.95661   0.82549   0.07778   0.00000  Uiso   1.00
O588   O     0.96091   0.76380   0.04715   0.00000  Uiso   1.00
C589   C     0.72025   0.80126   0.04281   0.00000  Uiso   1.00
H590   H     0.69142   0.81606   0.03162   0.00000  Uiso   1.00
O591   O     0.72076   0.77167   0.07224   0.00000  Uiso   1.00
C592   C     0.94642   0.80124   0.45719   0.00000  Uiso   1.00
H593   H     0.97525   0.81605   0.46837   0.00000  Uiso   1.00
O594   O     0.94591   0.77163   0.42778   0.00000  Uiso   1.00
C595   C     0.08733   0.16666   0.75010   0.00000  Uiso   1.00
C596   C     0.24600   0.16666   0.74990   0.00000  Uiso   1.00
C597   C     0.09176   0.14884   0.52073   0.00000  Uiso   1.00
C598   C     0.24158   0.14883   0.97927   0.00000  Uiso   1.00
C599   C     0.02123   0.12415   0.75003   0.00000  Uiso   1.00
C600   C     0.31210   0.20917   0.74996   0.00000  Uiso   1.00
C601   C     0.31210   0.12415   0.74995   0.00000  Uiso   1.00
C602   C     0.02123   0.20917   0.75005   0.00000  Uiso   1.00
C603   C     0.29063   0.16666   0.74990   0.00000  Uiso   1.00
C604   C     0.04271   0.16666   0.75009   0.00000  Uiso   1.00
C605   C     0.14043   0.02481   0.72278   0.00000  Uiso   1.00
C606   C     0.19290   0.30852   0.77722   0.00000  Uiso   1.00
C607   C     0.19290   0.02480   0.77722   0.00000  Uiso   1.00
C608   C     0.14043   0.30853   0.72278   0.00000  Uiso   1.00
C609   C     0.16574   0.16662   0.66444   0.00000  Uiso   1.00
C610   C     0.16759   0.16662   0.83556   0.00000  Uiso   1.00
C611   C     0.20519   0.16869   0.90800   0.00000  Uiso   1.00
C612   C     0.12814   0.16870   0.59200   0.00000  Uiso   1.00
C613   C     0.16825   0.16577   0.88387   0.00000  Uiso   1.00
C614   C     0.16509   0.16578   0.61613   0.00000  Uiso   1.00
C615   C     0.13157   0.15741   0.90513   0.00000  Uiso   1.00
C616   C     0.20176   0.15740   0.59487   0.00000  Uiso   1.00
C617   C     0.13010   0.15505   0.95169   0.00000  Uiso   1.00
C618   C     0.20324   0.15504   0.54831   0.00000  Uiso   1.00
C619   C     0.16718   0.15679   0.97653   0.00000  Uiso   1.00
C620   C     0.16616   0.15679   0.52347   0.00000  Uiso   1.00
C621   C     0.20529   0.15845   0.95435   0.00000  Uiso   1.00
C622   C     0.12804   0.15846   0.54565   0.00000  Uiso   1.00
C623   C     0.09277   0.14769   0.97366   0.00000  Uiso   1.00
C624   C     0.24056   0.14768   0.52634   0.00000  Uiso   1.00
Cu625  Cu    0.16667   0.21355   0.75000   0.00000  Uiso   1.00
Cu626  Cu    0.16667   0.11978   0.75000   0.00000  Uiso   1.00
H627   H     0.10413   0.15425   0.88464   0.00000  Uiso   1.00
H628   H     0.22920   0.15424   0.61536   0.00000  Uiso   1.00
H629   H     0.03716   0.09089   0.75002   0.00000  Uiso   1.00
H630   H     0.29617   0.24244   0.74998   0.00000  Uiso   1.00
H631   H     0.29617   0.09089   0.74994   0.00000  Uiso   1.00
H632   H     0.03716   0.24244   0.75005   0.00000  Uiso   1.00
H633   H     0.11943   0.04351   0.70097   0.00000  Uiso   1.00
H634   H     0.21391   0.28982   0.79902   0.00000  Uiso   1.00
H635   H     0.21391   0.04351   0.79903   0.00000  Uiso   1.00
H636   H     0.11942   0.28982   0.70098   0.00000  Uiso   1.00
N637   N     0.16667   0.28402   0.75000   0.00000  Uiso   1.00
N638   N     0.16667   0.04931   0.75000   0.00000  Uiso   1.00
O639   O     0.10655   0.20625   0.74999   0.00000  Uiso   1.00
O640   O     0.22679   0.12709   0.75000   0.00000  Uiso   1.00
O641   O     0.22679   0.20625   0.75000   0.00000  Uiso   1.00
O642   O     0.10655   0.12709   0.74999   0.00000  Uiso   1.00
O643   O     0.16666   0.20627   0.68513   0.00000  Uiso   1.00
O644   O     0.16668   0.12707   0.81487   0.00000  Uiso   1.00
O645   O     0.16668   0.20627   0.81487   0.00000  Uiso   1.00
O646   O     0.16666   0.12707   0.68513   0.00000  Uiso   1.00
I647   I     0.25662   0.19888   0.87428   0.00000  Uiso   1.00
I648   I     0.07672   0.19891   0.62571   0.00000  Uiso   1.00
C649   C     0.05552   0.13508   0.94740   0.00000  Uiso   1.00
H650   H     0.04339   0.15885   0.92223   0.00000  Uiso   1.00
O651   O     0.03910   0.09714   0.95283   0.00000  Uiso   1.00
C652   C     0.27782   0.13506   0.55261   0.00000  Uiso   1.00
H653   H     0.28994   0.15882   0.57778   0.00000  Uiso   1.00
O654   O     0.29425   0.09713   0.54715   0.00000  Uiso   1.00
C655   C     0.05358   0.13459   0.54281   0.00000  Uiso   1.00
H656   H     0.02475   0.14939   0.53162   0.00000  Uiso   1.00
O657   O     0.05409   0.10500   0.57224   0.00000  Uiso   1.00
C658   C     0.27975   0.13457   0.95719   0.00000  Uiso   1.00
H659   H     0.30858   0.14939   0.96837   0.00000  Uiso   1.00
O660   O     0.27924   0.10496   0.92778   0.00000  Uiso   1.00
C661   C     0.42066   0.16666   0.75010   0.00000  Uiso   1.00
C662   C     0.57934   0.16666   0.74990   0.00000  Uiso   1.00
C663   C     0.42509   0.14884   0.52073   0.00000  Uiso   1.00
C664   C     0.57491   0.14883   0.97927   0.00000  Uiso   1.00
C665   C     0.35456   0.12415   0.75003   0.00000  Uiso   1.00
C666   C     0.64544   0.20917   0.74996   0.00000  Uiso   1.00
C667   C     0.64544   0.12415   0.74995   0.00000  Uiso   1.00
C668   C     0.35456   0.20917   0.75005   0.00000  Uiso   1.00
C669   C     0.62396   0.16666   0.74990   0.00000  Uiso   1.00
C670   C     0.37604   0.16666   0.75009   0.00000  Uiso   1.00
C671   C     0.47377   0.02481   0.72278   0.00000  Uiso   1.00
C672   C     0.52623   0.30852   0.77722   0.00000  Uiso   1.00
C673   C     0.52623   0.02480   0.77722   0.00000  Uiso   1.00
C674   C     0.47377   0.30853   0.72278   0.00000  Uiso   1.00
C675   C     0.49907   0.16662   0.66444   0.00000  Uiso   1.00
C676   C     0.50093   0.16662   0.83556   0.00000  Uiso   1.00
C677   C     0.53853   0.16869   0.90800   0.00000  Uiso   1.00
C678   C     0.46148   0.16870   0.59200   0.00000  Uiso   1.00
C679   C     0.50158   0.16577   0.88387   0.00000  Uiso   1.00
C680   C     0.49842   0.16578   0.61613   0.00000  Uiso   1.00
C681   C     0.46490   0.15741   0.90513   0.00000  Uiso   1.00
C682   C     0.53510   0.15740   0.59487   0.00000  Uiso   1.00
C683   C     0.46343   0.15505   0.95169   0.00000  Uiso   1.00
C684   C     0.53657   0.15504   0.54831   0.00000  Uiso   1.00
C685   C     0.50051   0.15679   0.97653   0.00000  Uiso   1.00
C686   C     0.49949   0.15679   0.52347   0.00000  Uiso   1.00
C687   C     0.53863   0.15845   0.95435   0.00000  Uiso   1.00
C688   C     0.46138   0.15846   0.54565   0.00000  Uiso   1.00
C689   C     0.42610   0.14769   0.97366   0.00000  Uiso   1.00
C690   C     0.57390   0.14768   0.52634   0.00000  Uiso   1.00
Cu691  Cu    0.50000   0.21355   0.75000   0.00000  Uiso   1.00
Cu692  Cu    0.50000   0.11978   0.75000   0.00000  Uiso   1.00
H693   H     0.43746   0.15425   0.88464   0.00000  Uiso   1.00
H694   H     0.56253   0.15424   0.61536   0.00000  Uiso   1.00
H695   H     0.37049   0.09089   0.75002   0.00000  Uiso   1.00
H696   H     0.62951   0.24244   0.74998   0.00000  Uiso   1.00
H697   H     0.62951   0.09089   0.74994   0.00000  Uiso   1.00
H698   H     0.37049   0.24244   0.75005   0.00000  Uiso   1.00
H699   H     0.45276   0.04351   0.70097   0.00000  Uiso   1.00
H700   H     0.54724   0.28982   0.79902   0.00000  Uiso   1.00
H701   H     0.54724   0.04351   0.79903   0.00000  Uiso   1.00
H702   H     0.45276   0.28982   0.70098   0.00000  Uiso   1.00
N703   N     0.50000   0.28402   0.75000   0.00000  Uiso   1.00
N704   N     0.50000   0.04931   0.75000   0.00000  Uiso   1.00
O705   O     0.43988   0.20625   0.74999   0.00000  Uiso   1.00
O706   O     0.56012   0.12709   0.75000   0.00000  Uiso   1.00
O707   O     0.56012   0.20625   0.75000   0.00000  Uiso   1.00
O708   O     0.43988   0.12709   0.74999   0.00000  Uiso   1.00
O709   O     0.49999   0.20627   0.68513   0.00000  Uiso   1.00
O710   O     0.50001   0.12707   0.81487   0.00000  Uiso   1.00
O711   O     0.50001   0.20627   0.81487   0.00000  Uiso   1.00
O712   O     0.49999   0.12707   0.68513   0.00000  Uiso   1.00
I713   I     0.58996   0.19888   0.87428   0.00000  Uiso   1.00
I714   I     0.41005   0.19891   0.62571   0.00000  Uiso   1.00
C715   C     0.38885   0.13508   0.94740   0.00000  Uiso   1.00
H716   H     0.37672   0.15885   0.92223   0.00000  Uiso   1.00
O717   O     0.37243   0.09714   0.95283   0.00000  Uiso   1.00
C718   C     0.61115   0.13506   0.55261   0.00000  Uiso   1.00
H719   H     0.62327   0.15882   0.57778   0.00000  Uiso   1.00
O720   O     0.62758   0.09713   0.54715   0.00000  Uiso   1.00
C721   C     0.38692   0.13459   0.54281   0.00000  Uiso   1.00
H722   H     0.35808   0.14939   0.53162   0.00000  Uiso   1.00
O723   O     0.38743   0.10500   0.57224   0.00000  Uiso   1.00
C724   C     0.61308   0.13457   0.95719   0.00000  Uiso   1.00
H725   H     0.64192   0.14939   0.96837   0.00000  Uiso   1.00
O726   O     0.61257   0.10496   0.92778   0.00000  Uiso   1.00
C727   C     0.75400   0.16666   0.75010   0.00000  Uiso   1.00
C728   C     0.91267   0.16666   0.74990   0.00000  Uiso   1.00
C729   C     0.75842   0.14884   0.52073   0.00000  Uiso   1.00
C730   C     0.90824   0.14883   0.97927   0.00000  Uiso   1.00
C731   C     0.68790   0.12415   0.75003   0.00000  Uiso   1.00
C732   C     0.97877   0.20917   0.74996   0.00000  Uiso   1.00
C733   C     0.97877   0.12415   0.74995   0.00000  Uiso   1.00
C734   C     0.68790   0.20917   0.75005   0.00000  Uiso   1.00
C735   C     0.95729   0.16666   0.74990   0.00000  Uiso   1.00
C736   C     0.70937   0.16666   0.75009   0.00000  Uiso   1.00
C737   C     0.80710   0.02481   0.72278   0.00000  Uiso   1.00
C738   C     0.85957   0.30852   0.77722   0.00000  Uiso   1.00
C739   C     0.85957   0.02480   0.77722   0.00000  Uiso   1.00
C740   C     0.80710   0.30853   0.72278   0.00000  Uiso   1.00
C741   C     0.83241   0.16662   0.66444   0.00000  Uiso   1.00
C742   C     0.83426   0.16662   0.83556   0.00000  Uiso   1.00
C743   C     0.87186   0.16869   0.90800   0.00000  Uiso   1.00
C744   C     0.79481   0.16870   0.59200   0.00000  Uiso   1.00
C745   C     0.83492   0.16577   0.88387   0.00000  Uiso   1.00
C746   C     0.83175   0.16578   0.61613   0.00000  Uiso   1.00
C747   C     0.79824   0.15741   0.90513   0.00000  Uiso   1.00
C748   C     0.86843   0.15740   0.59487   0.00000  Uiso   1.00
C749   C     0.79676   0.15505   0.95169   0.00000  Uiso   1.00
C750   C     0.86991   0.15504   0.54831   0.00000  Uiso   1.00
C751   C     0.83384   0.15679   0.97653   0.00000  Uiso   1.00
C752   C     0.83282   0.15679   0.52347   0.00000  Uiso   1.00
C753   C     0.87196   0.15845   0.95435   0.00000  Uiso   1.00
C754   C     0.79471   0.15846   0.54565   0.00000  Uiso   1.00
C755   C     0.75944   0.14769   0.97366   0.00000  Uiso   1.00
C756   C     0.90723   0.14768   0.52634   0.00000  Uiso   1.00
Cu757  Cu    0.83333   0.21355   0.75000   0.00000  Uiso   1.00
Cu758  Cu    0.83333   0.11978   0.75000   0.00000  Uiso   1.00
H759   H     0.77080   0.15425   0.88464   0.00000  Uiso   1.00
H760   H     0.89587   0.15424   0.61536   0.00000  Uiso   1.00
H761   H     0.70383   0.09089   0.75002   0.00000  Uiso   1.00
H762   H     0.96284   0.24244   0.74998   0.00000  Uiso   1.00
H763   H     0.96284   0.09089   0.74994   0.00000  Uiso   1.00
H764   H     0.70383   0.24244   0.75005   0.00000  Uiso   1.00
H765   H     0.78609   0.04351   0.70097   0.00000  Uiso   1.00
H766   H     0.88058   0.28982   0.79902   0.00000  Uiso   1.00
H767   H     0.88057   0.04351   0.79903   0.00000  Uiso   1.00
H768   H     0.78609   0.28982   0.70098   0.00000  Uiso   1.00
N769   N     0.83333   0.28402   0.75000   0.00000  Uiso   1.00
N770   N     0.83333   0.04931   0.75000   0.00000  Uiso   1.00
O771   O     0.77321   0.20625   0.74999   0.00000  Uiso   1.00
O772   O     0.89345   0.12709   0.75000   0.00000  Uiso   1.00
O773   O     0.89345   0.20625   0.75000   0.00000  Uiso   1.00
O774   O     0.77321   0.12709   0.74999   0.00000  Uiso   1.00
O775   O     0.83332   0.20627   0.68513   0.00000  Uiso   1.00
O776   O     0.83334   0.12707   0.81487   0.00000  Uiso   1.00
O777   O     0.83334   0.20627   0.81487   0.00000  Uiso   1.00
O778   O     0.83332   0.12707   0.68513   0.00000  Uiso   1.00
I779   I     0.92329   0.19888   0.87428   0.00000  Uiso   1.00
I780   I     0.74338   0.19891   0.62571   0.00000  Uiso   1.00
C781   C     0.72218   0.13508   0.94740   0.00000  Uiso   1.00
H782   H     0.71005   0.15885   0.92223   0.00000  Uiso   1.00
O783   O     0.70576   0.09714   0.95283   0.00000  Uiso   1.00
C784   C     0.94448   0.13506   0.55261   0.00000  Uiso   1.00
H785   H     0.95661   0.15882   0.57778   0.00000  Uiso   1.00
O786   O     0.96091   0.09713   0.54715   0.00000  Uiso   1.00
C787   C     0.72025   0.13459   0.54281   0.00000  Uiso   1.00
H788   H     0.69142   0.14939   0.53162   0.00000  Uiso   1.00
O789   O     0.72076   0.10500   0.57224   0.00000  Uiso   1.00
C790   C     0.94642   0.13457   0.95719   0.00000  Uiso   1.00
H791   H     0.97525   0.14939   0.96837   0.00000  Uiso   1.00
O792   O     0.94591   0.10496   0.92778   0.00000  Uiso   1.00
C793   C     0.08733   0.50000   0.75010   0.00000  Uiso   1.00
C794   C     0.24600   0.50000   0.74990   0.00000  Uiso   1.00
C795   C     0.09176   0.48217   0.52073   0.00000  Uiso   1.00
C796   C     0.24158   0.48216   0.97927   0.00000  Uiso   1.00
C797   C     0.02123   0.45749   0.75003   0.00000  Uiso   1.00
C798   C     0.31210   0.54251   0.74996   0.00000  Uiso   1.00
C799   C     0.31210   0.45749   0.74995   0.00000  Uiso   1.00
C800   C     0.02123   0.54251   0.75005   0.00000  Uiso   1.00
C801   C     0.29063   0.50000   0.74990   0.00000  Uiso   1.00
C802   C     0.04271   0.50000   0.75009   0.00000  Uiso   1.00
C803   C     0.14043   0.35814   0.72278   0.00000  Uiso   1.00
C804   C     0.19290   0.64186   0.77722   0.00000  Uiso   1.00
C805   C     0.19290   0.35814   0.77722   0.00000  Uiso   1.00
C806   C     0.14043   0.64186   0.72278   0.00000  Uiso   1.00
C807   C     0.16574   0.49995   0.66444   0.00000  Uiso   1.00
C808   C     0.16759   0.49995   0.83556   0.00000  Uiso   1.00
C809   C     0.20519   0.50203   0.90800   0.00000  Uiso   1.00
C810   C     0.12814   0.50204   0.59200   0.00000  Uiso   1.00
C811   C     0.16825   0.49911   0.88387   0.00000  Uiso   1.00
C812   C     0.16509   0.49911   0.61613   0.00000  Uiso   1.00
C813   C     0.13157   0.49074   0.90513   0.00000  Uiso   1.00
C814   C     0.20176   0.49073   0.59487   0.00000  Uiso   1.00
C815   C     0.13010   0.48838   0.95169   0.00000  Uiso   1.00
C816   C     0.20324   0.48838   0.54831   0.00000  Uiso   1.00
C817   C     0.16718   0.49012   0.97653   0.00000  Uiso   1.00
C818   C     0.16616   0.49012   0.52347   0.00000  Uiso   1.00
C819   C     0.20529   0.49179   0.95435   0.00000  Uiso   1.00
C820   C     0.12804   0.49179   0.54565   0.00000  Uiso   1.00
C821   C     0.09277   0.48102   0.97366   0.00000  Uiso   1.00
C822   C     0.24056   0.48101   0.52634   0.00000  Uiso   1.00
Cu823  Cu    0.16667   0.54689   0.75000   0.00000  Uiso   1.00
Cu824  Cu    0.16667   0.45311   0.75000   0.00000  Uiso   1.00
H825   H     0.10413   0.48759   0.88464   0.00000  Uiso   1.00
H826   H     0.22920   0.48757   0.61536   0.00000  Uiso   1.00
H827   H     0.03716   0.42422   0.75002   0.00000  Uiso   1.00
H828   H     0.29617   0.57577   0.74998   0.00000  Uiso   1.00
H829   H     0.29617   0.42422   0.74994   0.00000  Uiso   1.00
H830   H     0.03716   0.57577   0.75005   0.00000  Uiso   1.00
H831   H     0.11943   0.37684   0.70097   0.00000  Uiso   1.00
H832   H     0.21391   0.62315   0.79902   0.00000  Uiso   1.00
H833   H     0.21391   0.37684   0.79903   0.00000  Uiso   1.00
H834   H     0.11942   0.62315   0.70098   0.00000  Uiso   1.00
N835   N     0.16667   0.61736   0.75000   0.00000  Uiso   1.00
N836   N     0.16667   0.38264   0.75000   0.00000  Uiso   1.00
O837   O     0.10655   0.53958   0.74999   0.00000  Uiso   1.00
O838   O     0.22679   0.46042   0.75000   0.00000  Uiso   1.00
O839   O     0.22679   0.53958   0.75000   0.00000  Uiso   1.00
O840   O     0.10655   0.46042   0.74999   0.00000  Uiso   1.00
O841   O     0.16666   0.53960   0.68513   0.00000  Uiso   1.00
O842   O     0.16668   0.46040   0.81487   0.00000  Uiso   1.00
O843   O     0.16668   0.53960   0.81487   0.00000  Uiso   1.00
O844   O     0.16666   0.46040   0.68513   0.00000  Uiso   1.00
I845   I     0.25662   0.53221   0.87428   0.00000  Uiso   1.00
I846   I     0.07672   0.53224   0.62571   0.00000  Uiso   1.00
C847   C     0.05552   0.46841   0.94740   0.00000  Uiso   1.00
H848   H     0.04339   0.49219   0.92223   0.00000  Uiso   1.00
O849   O     0.03910   0.43047   0.95283   0.00000  Uiso   1.00
C850   C     0.27782   0.46840   0.55261   0.00000  Uiso   1.00
H851   H     0.28994   0.49216   0.57778   0.00000  Uiso   1.00
O852   O     0.29425   0.43046   0.54715   0.00000  Uiso   1.00
C853   C     0.05358   0.46793   0.54281   0.00000  Uiso   1.00
H854   H     0.02475   0.48273   0.53162   0.00000  Uiso   1.00
O855   O     0.05409   0.43833   0.57224   0.00000  Uiso   1.00
C856   C     0.27975   0.46791   0.95719   0.00000  Uiso   1.00
H857   H     0.30858   0.48272   0.96837   0.00000  Uiso   1.00
O858   O     0.27924   0.43830   0.92778   0.00000  Uiso   1.00
C859   C     0.42066   0.50000   0.75010   0.00000  Uiso   1.00
C860   C     0.57934   0.50000   0.74990   0.00000  Uiso   1.00
C861   C     0.42509   0.48217   0.52073   0.00000  Uiso   1.00
C862   C     0.57491   0.48216   0.97927   0.00000  Uiso   1.00
C863   C     0.35456   0.45749   0.75003   0.00000  Uiso   1.00
C864   C     0.64544   0.54251   0.74996   0.00000  Uiso   1.00
C865   C     0.64544   0.45749   0.74995   0.00000  Uiso   1.00
C866   C     0.35456   0.54251   0.75005   0.00000  Uiso   1.00
C867   C     0.62396   0.50000   0.74990   0.00000  Uiso   1.00
C868   C     0.37604   0.50000   0.75009   0.00000  Uiso   1.00
C869   C     0.47377   0.35814   0.72278   0.00000  Uiso   1.00
C870   C     0.52623   0.64186   0.77722   0.00000  Uiso   1.00
C871   C     0.52623   0.35814   0.77722   0.00000  Uiso   1.00
C872   C     0.47377   0.64186   0.72278   0.00000  Uiso   1.00
C873   C     0.49907   0.49995   0.66444   0.00000  Uiso   1.00
C874   C     0.50093   0.49995   0.83556   0.00000  Uiso   1.00
C875   C     0.53853   0.50203   0.90800   0.00000  Uiso   1.00
C876   C     0.46148   0.50204   0.59200   0.00000  Uiso   1.00
C877   C     0.50158   0.49911   0.88387   0.00000  Uiso   1.00
C878   C     0.49842   0.49911   0.61613   0.00000  Uiso   1.00
C879   C     0.46490   0.49074   0.90513   0.00000  Uiso   1.00
C880   C     0.53510   0.49073   0.59487   0.00000  Uiso   1.00
C881   C     0.46343   0.48838   0.95169   0.00000  Uiso   1.00
C882   C     0.53657   0.48838   0.54831   0.00000  Uiso   1.00
C883   C     0.50051   0.49012   0.97653   0.00000  Uiso   1.00
C884   C     0.49949   0.49012   0.52347   0.00000  Uiso   1.00
C885   C     0.53863   0.49179   0.95435   0.00000  Uiso   1.00
C886   C     0.46138   0.49179   0.54565   0.00000  Uiso   1.00
C887   C     0.42610   0.48102   0.97366   0.00000  Uiso   1.00
C888   C     0.57390   0.48101   0.52634   0.00000  Uiso   1.00
Cu889  Cu    0.50000   0.54689   0.75000   0.00000  Uiso   1.00
Cu890  Cu    0.50000   0.45311   0.75000   0.00000  Uiso   1.00
H891   H     0.43746   0.48759   0.88464   0.00000  Uiso   1.00
H892   H     0.56253   0.48757   0.61536   0.00000  Uiso   1.00
H893   H     0.37049   0.42422   0.75002   0.00000  Uiso   1.00
H894   H     0.62951   0.57577   0.74998   0.00000  Uiso   1.00
H895   H     0.62951   0.42422   0.74994   0.00000  Uiso   1.00
H896   H     0.37049   0.57577   0.75005   0.00000  Uiso   1.00
H897   H     0.45276   0.37684   0.70097   0.00000  Uiso   1.00
H898   H     0.54724   0.62315   0.79902   0.00000  Uiso   1.00
H899   H     0.54724   0.37684   0.79903   0.00000  Uiso   1.00
H900   H     0.45276   0.62315   0.70098   0.00000  Uiso   1.00
N901   N     0.50000   0.61736   0.75000   0.00000  Uiso   1.00
N902   N     0.50000   0.38264   0.75000   0.00000  Uiso   1.00
O903   O     0.43988   0.53958   0.74999   0.00000  Uiso   1.00
O904   O     0.56012   0.46042   0.75000   0.00000  Uiso   1.00
O905   O     0.56012   0.53958   0.75000   0.00000  Uiso   1.00
O906   O     0.43988   0.46042   0.74999   0.00000  Uiso   1.00
O907   O     0.49999   0.53960   0.68513   0.00000  Uiso   1.00
O908   O     0.50001   0.46040   0.81487   0.00000  Uiso   1.00
O909   O     0.50001   0.53960   0.81487   0.00000  Uiso   1.00
O910   O     0.49999   0.46040   0.68513   0.00000  Uiso   1.00
I911   I     0.58996   0.53221   0.87428   0.00000  Uiso   1.00
I912   I     0.41005   0.53224   0.62571   0.00000  Uiso   1.00
C913   C     0.38885   0.46841   0.94740   0.00000  Uiso   1.00
H914   H     0.37672   0.49219   0.92223   0.00000  Uiso   1.00
O915   O     0.37243   0.43047   0.95283   0.00000  Uiso   1.00
C916   C     0.61115   0.46840   0.55261   0.00000  Uiso   1.00
H917   H     0.62327   0.49216   0.57778   0.00000  Uiso   1.00
O918   O     0.62758   0.43046   0.54715   0.00000  Uiso   1.00
C919   C     0.38692   0.46793   0.54281   0.00000  Uiso   1.00
H920   H     0.35808   0.48273   0.53162   0.00000  Uiso   1.00
O921   O     0.38743   0.43833   0.57224   0.00000  Uiso   1.00
C922   C     0.61308   0.46791   0.95719   0.00000  Uiso   1.00
H923   H     0.64192   0.48272   0.96837   0.00000  Uiso   1.00
O924   O     0.61257   0.43830   0.92778   0.00000  Uiso   1.00
C925   C     0.75400   0.50000   0.75010   0.00000  Uiso   1.00
C926   C     0.91267   0.50000   0.74990   0.00000  Uiso   1.00
C927   C     0.75842   0.48217   0.52073   0.00000  Uiso   1.00
C928   C     0.90824   0.48216   0.97927   0.00000  Uiso   1.00
C929   C     0.68790   0.45749   0.75003   0.00000  Uiso   1.00
C930   C     0.97877   0.54251   0.74996   0.00000  Uiso   1.00
C931   C     0.97877   0.45749   0.74995   0.00000  Uiso   1.00
C932   C     0.68790   0.54251   0.75005   0.00000  Uiso   1.00
C933   C     0.95729   0.50000   0.74990   0.00000  Uiso   1.00
C934   C     0.70937   0.50000   0.75009   0.00000  Uiso   1.00
C935   C     0.80710   0.35814   0.72278   0.00000  Uiso   1.00
C936   C     0.85957   0.64186   0.77722   0.00000  Uiso   1.00
C937   C     0.85957   0.35814   0.77722   0.00000  Uiso   1.00
C938   C     0.80710   0.64186   0.72278   0.00000  Uiso   1.00
C939   C     0.83241   0.49995   0.66444   0.00000  Uiso   1.00
C940   C     0.83426   0.49995   0.83556   0.00000  Uiso   1.00
C941   C     0.87186   0.50203   0.90800   0.00000  Uiso   1.00
C942   C     0.79481   0.50204   0.59200   0.00000  Uiso   1.00
C943   C     0.83492   0.49911   0.88387   0.00000  Uiso   1.00
C944   C     0.83175   0.49911   0.61613   0.00000  Uiso   1.00
C945   C     0.79824   0.49074   0.90513   0.00000  Uiso   1.00
C946   C     0.86843   0.49073   0.59487   0.00000  Uiso   1.00
C947   C     0.79676   0.48838   0.95169   0.00000  Uiso   1.00
C948   C     0.86991   0.48838   0.54831   0.00000  Uiso   1.00
C949   C     0.83384   0.49012   0.97653   0.00000  Uiso   1.00
C950   C     0.83282   0.49012   0.52347   0.00000  Uiso   1.00
C951   C     0.87196   0.49179   0.95435   0.00000  Uiso   1.00
C952   C     0.79471   0.49179   0.54565   0.00000  Uiso   1.00
C953   C     0.75944   0.48102   0.97366   0.00000  Uiso   1.00
C954   C     0.90723   0.48101   0.52634   0.00000  Uiso   1.00
Cu955  Cu    0.83333   0.54689   0.75000   0.00000  Uiso   1.00
Cu956  Cu    0.83333   0.45311   0.75000   0.00000  Uiso   1.00
H957   H     0.77080   0.48759   0.88464   0.00000  Uiso   1.00
H958   H     0.89587   0.48757   0.61536   0.00000  Uiso   1.00
H959   H     0.70383   0.42422   0.75002   0.00000  Uiso   1.00
H960   H     0.96284   0.57577   0.74998   0.00000  Uiso   1.00
H961   H     0.96284   0.42422   0.74994   0.00000  Uiso   1.00
H962   H     0.70383   0.57577   0.75005   0.00000  Uiso   1.00
H963   H     0.78609   0.37684   0.70097   0.00000  Uiso   1.00
H964   H     0.88058   0.62315   0.79902   0.00000  Uiso   1.00
H965   H     0.88057   0.37684   0.79903   0.00000  Uiso   1.00
H966   H     0.78609   0.62315   0.70098   0.00000  Uiso   1.00
N967   N     0.83333   0.61736   0.75000   0.00000  Uiso   1.00
N968   N     0.83333   0.38264   0.75000   0.00000  Uiso   1.00
O969   O     0.77321   0.53958   0.74999   0.00000  Uiso   1.00
O970   O     0.89345   0.46042   0.75000   0.00000  Uiso   1.00
O971   O     0.89345   0.53958   0.75000   0.00000  Uiso   1.00
O972   O     0.77321   0.46042   0.74999   0.00000  Uiso   1.00
O973   O     0.83332   0.53960   0.68513   0.00000  Uiso   1.00
O974   O     0.83334   0.46040   0.81487   0.00000  Uiso   1.00
O975   O     0.83334   0.53960   0.81487   0.00000  Uiso   1.00
O976   O     0.83332   0.46040   0.68513   0.00000  Uiso   1.00
I977   I     0.92329   0.53221   0.87428   0.00000  Uiso   1.00
I978   I     0.74338   0.53224   0.62571   0.00000  Uiso   1.00
C979   C     0.72218   0.46841   0.94740   0.00000  Uiso   1.00
H980   H     0.71005   0.49219   0.92223   0.00000  Uiso   1.00
O981   O     0.70576   0.43047   0.95283   0.00000  Uiso   1.00
C982   C     0.94448   0.46840   0.55261   0.00000  Uiso   1.00
H983   H     0.95661   0.49216   0.57778   0.00000  Uiso   1.00
O984   O     0.96091   0.43046   0.54715   0.00000  Uiso   1.00
C985   C     0.72025   0.46793   0.54281   0.00000  Uiso   1.00
H986   H     0.69142   0.48273   0.53162   0.00000  Uiso   1.00
O987   O     0.72076   0.43833   0.57224   0.00000  Uiso   1.00
C988   C     0.94642   0.46791   0.95719   0.00000  Uiso   1.00
H989   H     0.97525   0.48272   0.96837   0.00000  Uiso   1.00
O990   O     0.94591   0.43830   0.92778   0.00000  Uiso   1.00
C991   C     0.08733   0.83333   0.75010   0.00000  Uiso   1.00
C992   C     0.24600   0.83333   0.74990   0.00000  Uiso   1.00
C993   C     0.09176   0.81550   0.52073   0.00000  Uiso   1.00
C994   C     0.24158   0.81549   0.97927   0.00000  Uiso   1.00
C995   C     0.02123   0.79082   0.75003   0.00000  Uiso   1.00
C996   C     0.31210   0.87584   0.74996   0.00000  Uiso   1.00
C997   C     0.31210   0.79082   0.74995   0.00000  Uiso   1.00
C998   C     0.02123   0.87584   0.75005   0.00000  Uiso   1.00
C999   C     0.29063   0.83333   0.74990   0.00000  Uiso   1.00
C1000  C     0.04271   0.83333   0.75009   0.00000  Uiso   1.00
C1001  C     0.14043   0.69147   0.72278   0.00000  Uiso   1.00
C1002  C     0.19290   0.97519   0.77722   0.00000  Uiso   1.00
C1003  C     0.19290   0.69147   0.77722   0.00000  Uiso   1.00
C1004  C     0.14043   0.97519   0.72278   0.00000  Uiso   1.00
C1005  C     0.16574   0.83328   0.66444   0.00000  Uiso   1.00
C1006  C     0.16759   0.83328   0.83556   0.00000  Uiso   1.00
C1007  C     0.20519   0.83536   0.90800   0.00000  Uiso   1.00
C1008  C     0.12814   0.83537   0.59200   0.00000  Uiso   1.00
C1009  C     0.16825   0.83244   0.88387   0.00000  Uiso   1.00
C1010  C     0.16509   0.83244   0.61613   0.00000  Uiso   1.00
C1011  C     0.13157   0.82407   0.90513   0.00000  Uiso   1.00
C1012  C     0.20176   0.82407   0.59487   0.00000  Uiso   1.00
C1013  C     0.13010   0.82172   0.95169   0.00000  Uiso   1.00
C1014  C     0.20324   0.82171   0.54831   0.00000  Uiso   1.00
C1015  C     0.16718   0.82345   0.97653   0.00000  Uiso   1.00
C1016  C     0.16616   0.82345   0.52347   0.00000  Uiso   1.00
C1017  C     0.20529   0.82512   0.95435   0.00000  Uiso   1.00
C1018  C     0.12804   0.82513   0.54565   0.00000  Uiso   1.00
C1019  C     0.09277   0.81436   0.97366   0.00000  Uiso   1.00
C1020  C     0.24056   0.81434   0.52634   0.00000  Uiso   1.00
Cu1021 Cu    0.16667   0.88022   0.75000   0.00000  Uiso   1.00
Cu1022 Cu    0.16667   0.78645   0.75000   0.00000  Uiso   1.00
H1023  H     0.10413   0.82092   0.88464   0.00000  Uiso   1.00
H1024  H     0.22920   0.82091   0.61536   0.00000  Uiso   1.00
H1025  H     0.03716   0.75755   0.75002   0.00000  Uiso   1.00
H1026  H     0.29617   0.90910   0.74998   0.00000  Uiso   1.00
H1027  H     0.29617   0.75755   0.74994   0.00000  Uiso   1.00
H1028  H     0.03716   0.90911   0.75005   0.00000  Uiso   1.00
H1029  H     0.11943   0.71018   0.70097   0.00000  Uiso   1.00
H1030  H     0.21391   0.95648   0.79902   0.00000  Uiso   1.00
H1031  H     0.21391   0.71017   0.79903   0.00000  Uiso   1.00
H1032  H     0.11942   0.95649   0.70098   0.00000  Uiso   1.00
N1033  N     0.16667   0.95069   0.75000   0.00000  Uiso   1.00
N1034  N     0.16667   0.71598   0.75000   0.00000  Uiso   1.00
O1035  O     0.10655   0.87291   0.74999   0.00000  Uiso   1.00
O1036  O     0.22679   0.79375   0.75000   0.00000  Uiso   1.00
O1037  O     0.22679   0.87291   0.75000   0.00000  Uiso   1.00
O1038  O     0.10655   0.79375   0.74999   0.00000  Uiso   1.00
O1039  O     0.16666   0.87293   0.68513   0.00000  Uiso   1.00
O1040  O     0.16668   0.79373   0.81487   0.00000  Uiso   1.00
O1041  O     0.16668   0.87293   0.81487   0.00000  Uiso   1.00
O1042  O     0.16666   0.79373   0.68513   0.00000  Uiso   1.00
I1043  I     0.25662   0.86554   0.87428   0.00000  Uiso   1.00
I1044  I     0.07672   0.86558   0.62571   0.00000  Uiso   1.00
C1045  C     0.05552   0.80175   0.94740   0.00000  Uiso   1.00
H1046  H     0.04339   0.82552   0.92223   0.00000  Uiso   1.00
O1047  O     0.03910   0.76381   0.95283   0.00000  Uiso   1.00
C1048  C     0.27782   0.80173   0.55261   0.00000  Uiso   1.00
H1049  H     0.28994   0.82549   0.57778   0.00000  Uiso   1.00
O1050  O     0.29425   0.76380   0.54715   0.00000  Uiso   1.00
C1051  C     0.05358   0.80126   0.54281   0.00000  Uiso   1.00
H1052  H     0.02475   0.81606   0.53162   0.00000  Uiso   1.00
O1053  O     0.05409   0.77167   0.57224   0.00000  Uiso   1.00
C1054  C     0.27975   0.80124   0.95719   0.00000  Uiso   1.00
H1055  H     0.30858   0.81605   0.96837   0.00000  Uiso   1.00
O1056  O     0.27924   0.77163   0.92778   0.00000  Uiso   1.00
C1057  C     0.42066   0.83333   0.75010   0.00000  Uiso   1.00
C1058  C     0.57934   0.83333   0.74990   0.00000  Uiso   1.00
C1059  C     0.42509   0.81550   0.52073   0.00000  Uiso   1.00
C1060  C     0.57491   0.81549   0.97927   0.00000  Uiso   1.00
C1061  C     0.35456   0.79082   0.75003   0.00000  Uiso   1.00
C1062  C     0.64544   0.87584   0.74996   0.00000  Uiso   1.00
C1063  C     0.64544   0.79082   0.74995   0.00000  Uiso   1.00
C1064  C     0.35456   0.87584   0.75005   0.00000  Uiso   1.00
C1065  C     0.62396   0.83333   0.74990   0.00000  Uiso   1.00
C1066  C     0.37604   0.83333   0.75009   0.00000  Uiso   1.00
C1067  C     0.47377   0.69147   0.72278   0.00000  Uiso   1.00
C1068  C     0.52623   0.97519   0.77722   0.00000  Uiso   1.00
C1069  C     0.52623   0.69147   0.77722   0.00000  Uiso   1.00
C1070  C     0.47377   0.97519   0.72278   0.00000  Uiso   1.00
C1071  C     0.49907   0.83328   0.66444   0.00000  Uiso   1.00
C1072  C     0.50093   0.83328   0.83556   0.00000  Uiso   1.00
C1073  C     0.53853   0.83536   0.90800   0.00000  Uiso   1.00
C1074  C     0.46148   0.83537   0.59200   0.00000  Uiso   1.00
C1075  C     0.50158   0.83244   0.88387   0.00000  Uiso   1.00
C1076  C     0.49842   0.83244   0.61613   0.00000  Uiso   1.00
C1077  C     0.46490   0.82407   0.90513   0.00000  Uiso   1.00
C1078  C     0.53510   0.82407   0.59487   0.00000  Uiso   1.00
C1079  C     0.46343   0.82172   0.95169   0.00000  Uiso   1.00
C1080  C     0.53657   0.82171   0.54831   0.00000  Uiso   1.00
C1081  C     0.50051   0.82345   0.97653   0.00000  Uiso   1.00
C1082  C     0.49949   0.82345   0.52347   0.00000  Uiso   1.00
C1083  C     0.53863   0.82512   0.95435   0.00000  Uiso   1.00
C1084  C     0.46138   0.82513   0.54565   0.00000  Uiso   1.00
C1085  C     0.42610   0.81436   0.97366   0.00000  Uiso   1.00
C1086  C     0.57390   0.81434   0.52634   0.00000  Uiso   1.00
Cu1087 Cu    0.50000   0.88022   0.75000   0.00000  Uiso   1.00
Cu1088 Cu    0.50000   0.78645   0.75000   0.00000  Uiso   1.00
H1089  H     0.43746   0.82092   0.88464   0.00000  Uiso   1.00
H1090  H     0.56253   0.82091   0.61536   0.00000  Uiso   1.00
H1091  H     0.37049   0.75755   0.75002   0.00000  Uiso   1.00
H1092  H     0.62951   0.90910   0.74998   0.00000  Uiso   1.00
H1093  H     0.62951   0.75755   0.74994   0.00000  Uiso   1.00
H1094  H     0.37049   0.90911   0.75005   0.00000  Uiso   1.00
H1095  H     0.45276   0.71018   0.70097   0.00000  Uiso   1.00
H1096  H     0.54724   0.95648   0.79902   0.00000  Uiso   1.00
H1097  H     0.54724   0.71017   0.79903   0.00000  Uiso   1.00
H1098  H     0.45276   0.95649   0.70098   0.00000  Uiso   1.00
N1099  N     0.50000   0.95069   0.75000   0.00000  Uiso   1.00
N1100  N     0.50000   0.71598   0.75000   0.00000  Uiso   1.00
O1101  O     0.43988   0.87291   0.74999   0.00000  Uiso   1.00
O1102  O     0.56012   0.79375   0.75000   0.00000  Uiso   1.00
O1103  O     0.56012   0.87291   0.75000   0.00000  Uiso   1.00
O1104  O     0.43988   0.79375   0.74999   0.00000  Uiso   1.00
O1105  O     0.49999   0.87293   0.68513   0.00000  Uiso   1.00
O1106  O     0.50001   0.79373   0.81487   0.00000  Uiso   1.00
O1107  O     0.50001   0.87293   0.81487   0.00000  Uiso   1.00
O1108  O     0.49999   0.79373   0.68513   0.00000  Uiso   1.00
I1109  I     0.58996   0.86554   0.87428   0.00000  Uiso   1.00
I1110  I     0.41005   0.86558   0.62571   0.00000  Uiso   1.00
C1111  C     0.38885   0.80175   0.94740   0.00000  Uiso   1.00
H1112  H     0.37672   0.82552   0.92223   0.00000  Uiso   1.00
O1113  O     0.37243   0.76381   0.95283   0.00000  Uiso   1.00
C1114  C     0.61115   0.80173   0.55261   0.00000  Uiso   1.00
H1115  H     0.62327   0.82549   0.57778   0.00000  Uiso   1.00
O1116  O     0.62758   0.76380   0.54715   0.00000  Uiso   1.00
C1117  C     0.38692   0.80126   0.54281   0.00000  Uiso   1.00
H1118  H     0.35808   0.81606   0.53162   0.00000  Uiso   1.00
O1119  O     0.38743   0.77167   0.57224   0.00000  Uiso   1.00
C1120  C     0.61308   0.80124   0.95719   0.00000  Uiso   1.00
H1121  H     0.64192   0.81605   0.96837   0.00000  Uiso   1.00
O1122  O     0.61257   0.77163   0.92778   0.00000  Uiso   1.00
C1123  C     0.75400   0.83333   0.75010   0.00000  Uiso   1.00
C1124  C     0.91267   0.83333   0.74990   0.00000  Uiso   1.00
C1125  C     0.75842   0.81550   0.52073   0.00000  Uiso   1.00
C1126  C     0.90824   0.81549   0.97927   0.00000  Uiso   1.00
C1127  C     0.68790   0.79082   0.75003   0.00000  Uiso   1.00
C1128  C     0.97877   0.87584   0.74996   0.00000  Uiso   1.00
C1129  C     0.97877   0.79082   0.74995   0.00000  Uiso   1.00
C1130  C     0.68790   0.87584   0.75005   0.00000  Uiso   1.00
C1131  C     0.95729   0.83333   0.74990   0.00000  Uiso   1.00
C1132  C     0.70937   0.83333   0.75009   0.00000  Uiso   1.00
C1133  C     0.80710   0.69147   0.72278   0.00000  Uiso   1.00
C1134  C     0.85957   0.97519   0.77722   0.00000  Uiso   1.00
C1135  C     0.85957   0.69147   0.77722   0.00000  Uiso   1.00
C1136  C     0.80710   0.97519   0.72278   0.00000  Uiso   1.00
C1137  C     0.83241   0.83328   0.66444   0.00000  Uiso   1.00
C1138  C     0.83426   0.83328   0.83556   0.00000  Uiso   1.00
C1139  C     0.87186   0.83536   0.90800   0.00000  Uiso   1.00
C1140  C     0.79481   0.83537   0.59200   0.00000  Uiso   1.00
C1141  C     0.83492   0.83244   0.88387   0.00000  Uiso   1.00
C1142  C     0.83175   0.83244   0.61613   0.00000  Uiso   1.00
C1143  C     0.79824   0.82407   0.90513   0.00000  Uiso   1.00
C1144  C     0.86843   0.82407   0.59487   0.00000  Uiso   1.00
C1145  C     0.79676   0.82172   0.95169   0.00000  Uiso   1.00
C1146  C     0.86991   0.82171   0.54831   0.00000  Uiso   1.00
C1147  C     0.83384   0.82345   0.97653   0.00000  Uiso   1.00
C1148  C     0.83282   0.82345   0.52347   0.00000  Uiso   1.00
C1149  C     0.87196   0.82512   0.95435   0.00000  Uiso   1.00
C1150  C     0.79471   0.82513   0.54565   0.00000  Uiso   1.00
C1151  C     0.75944   0.81436   0.97366   0.00000  Uiso   1.00
C1152  C     0.90723   0.81434   0.52634   0.00000  Uiso   1.00
Cu1153 Cu    0.83333   0.88022   0.75000   0.00000  Uiso   1.00
Cu1154 Cu    0.83333   0.78645   0.75000   0.00000  Uiso   1.00
H1155  H     0.77080   0.82092   0.88464   0.00000  Uiso   1.00
H1156  H     0.89587   0.82091   0.61536   0.00000  Uiso   1.00
H1157  H     0.70383   0.75755   0.75002   0.00000  Uiso   1.00
H1158  H     0.96284   0.90910   0.74998   0.00000  Uiso   1.00
H1159  H     0.96284   0.75755   0.74994   0.00000  Uiso   1.00
H1160  H     0.70383   0.90911   0.75005   0.00000  Uiso   1.00
H1161  H     0.78609   0.71018   0.70097   0.00000  Uiso   1.00
H1162  H     0.88058   0.95648   0.79902   0.00000  Uiso   1.00
H1163  H     0.88057   0.71017   0.79903   0.00000  Uiso   1.00
H1164  H     0.78609   0.95649   0.70098   0.00000  Uiso   1.00
N1165  N     0.83333   0.95069   0.75000   0.00000  Uiso   1.00
N1166  N     0.83333   0.71598   0.75000   0.00000  Uiso   1.00
O1167  O     0.77321   0.87291   0.74999   0.00000  Uiso   1.00
O1168  O     0.89345   0.79375   0.75000   0.00000  Uiso   1.00
O1169  O     0.89345   0.87291   0.75000   0.00000  Uiso   1.00
O1170  O     0.77321   0.79375   0.74999   0.00000  Uiso   1.00
O1171  O     0.83332   0.87293   0.68513   0.00000  Uiso   1.00
O1172  O     0.83334   0.79373   0.81487   0.00000  Uiso   1.00
O1173  O     0.83334   0.87293   0.81487   0.00000  Uiso   1.00
O1174  O     0.83332   0.79373   0.68513   0.00000  Uiso   1.00
I1175  I     0.92329   0.86554   0.87428   0.00000  Uiso   1.00
I1176  I     0.74338   0.86558   0.62571   0.00000  Uiso   1.00
C1177  C     0.72218   0.80175   0.94740   0.00000  Uiso   1.00
H1178  H     0.71005   0.82552   0.92223   0.00000  Uiso   1.00
O1179  O     0.70576   0.76381   0.95283   0.00000  Uiso   1.00
C1180  C     0.94448   0.80173   0.55261   0.00000  Uiso   1.00
H1181  H     0.95661   0.82549   0.57778   0.00000  Uiso   1.00
O1182  O     0.96091   0.76380   0.54715   0.00000  Uiso   1.00
C1183  C     0.72025   0.80126   0.54281   0.00000  Uiso   1.00
H1184  H     0.69142   0.81606   0.53162   0.00000  Uiso   1.00
O1185  O     0.72076   0.77167   0.57224   0.00000  Uiso   1.00
C1186  C     0.94642   0.80124   0.95719   0.00000  Uiso   1.00
H1187  H     0.97525   0.81605   0.96837   0.00000  Uiso   1.00
O1188  O     0.94591   0.77163   0.92778   0.00000  Uiso   1.00
loop_
_geom_bond_atom_site_label_1
_geom_bond_atom_site_label_2
_geom_bond_distance
_geom_bond_site_symmetry_2
_ccdc_geom_bond_type
C1     O48     1.293   .     A
C1     O45     1.293   .     A
C1     C10     1.458   .     S
C2     O47     1.293   .     A
C2     O46     1.293   .     A
C2     C9      1.458   .     S
C3     C28     1.419   .     A
C3     C61     1.477   .     S
C3     C623    1.412   1_554 S
C4     C64     1.477   .     S
C4     C27     1.419   .     A
C4     C624    1.412   .     S
C5     C10     1.402   .     A
C5     H35     1.083   .     S
C5     C139    1.387   1_455 S
C6     C9      1.402   .     A
C6     H36     1.083   .     S
C6     C74     1.387   .     S
C7     H37     1.083   .     S
C7     C9      1.402   .     A
C7     C71     1.387   .     S
C8     C10     1.402   .     A
C8     H38     1.083   .     S
C8     C138    1.387   1_455 S
C11    N44     1.367   .     A
C11    H39     1.082   .     S
C11    C410    1.417   1_545 S
C12    H40     1.082   .     S
C12    N43     1.367   .     A
C12    C211    1.417   .     S
C13    H41     1.082   .     S
C13    N44     1.367   .     A
C13    C408    1.417   1_545 S
C14    H42     1.082   .     S
C14    N43     1.367   .     A
C14    C209    1.417   .     S
C15    O52     1.289   .     A
C15    C20     1.448   .     S
C15    O49     1.291   .     A
C16    O51     1.291   .     A
C16    C19     1.448   .     S
C16    O50     1.289   .     A
C17    C27     1.419   .     A
C17    I53     2.153   .     S
C17    C19     1.400   .     A
C18    C20     1.400   .     A
C18    I54     2.153   .     S
C18    C28     1.419   .     A
C19    C21     1.386   .     A
C20    C22     1.386   .     A
C21    C23     1.398   .     A
C21    H33     1.083   .     S
C22    H34     1.083   .     S
C22    C24     1.398   .     A
C23    C29     1.410   .     A
C23    C25     1.413   .     A
C24    C30     1.410   .     A
C24    C26     1.413   .     A
C25    C27     1.421   .     A
C25    C620    1.407   .     S
C26    C28     1.421   .     A
C26    C619    1.407   1_554 S
C29    C55     1.484   .     S
C29    C597    1.412   .     S
C30    C58     1.484   .     S
C30    C598    1.412   1_554 S
Cu31   Cu32    2.678   .     S
Cu31   O47     1.975   .     S
Cu31   N43     2.012   .     S
Cu31   O49     1.955   .     S
Cu31   O45     1.975   .     S
Cu31   O51     1.955   .     S
Cu32   O50     1.955   .     S
Cu32   N44     2.012   .     S
Cu32   O48     1.975   .     S
Cu32   O52     1.955   .     S
Cu32   O46     1.975   .     S
C55    H56     1.085   .     S
C55    O57     1.221   .     D
C58    H59     1.085   .     S
C58    O60     1.221   .     D
C61    H62     1.081   .     S
C61    O63     1.221   .     D
C64    H65     1.081   .     S
C64    O66     1.221   .     D
C67    O114    1.293   .     A
C67    O111    1.293   .     A
C67    C76     1.458   .     S
C68    O113    1.293   .     A
C68    O112    1.293   .     A
C68    C75     1.458   .     S
C69    C94     1.419   .     A
C69    C127    1.477   .     S
C69    C689    1.412   1_554 S
C70    C130    1.477   .     S
C70    C93     1.419   .     A
C70    C690    1.412   .     S
C71    C76     1.402   .     A
C71    H101    1.083   .     S
C72    C75     1.402   .     A
C72    H102    1.083   .     S
C72    C140    1.387   .     S
C73    H103    1.083   .     S
C73    C75     1.402   .     A
C73    C137    1.387   .     S
C74    C76     1.402   .     A
C74    H104    1.083   .     S
C77    N110    1.367   .     A
C77    H105    1.082   .     S
C77    C476    1.417   1_545 S
C78    H106    1.082   .     S
C78    N109    1.367   .     A
C78    C277    1.417   .     S
C79    H107    1.082   .     S
C79    N110    1.367   .     A
C79    C474    1.417   1_545 S
C80    H108    1.082   .     S
C80    N109    1.367   .     A
C80    C275    1.417   .     S
C81    O118    1.289   .     A
C81    C86     1.448   .     S
C81    O115    1.291   .     A
C82    O117    1.291   .     A
C82    C85     1.448   .     S
C82    O116    1.289   .     A
C83    C93     1.419   .     A
C83    I119    2.153   .     S
C83    C85     1.400   .     A
C84    C86     1.400   .     A
C84    I120    2.153   .     S
C84    C94     1.419   .     A
C85    C87     1.386   .     A
C86    C88     1.386   .     A
C87    C89     1.398   .     A
C87    H99     1.083   .     S
C88    H100    1.083   .     S
C88    C90     1.398   .     A
C89    C95     1.410   .     A
C89    C91     1.413   .     A
C90    C96     1.410   .     A
C90    C92     1.413   .     A
C91    C93     1.421   .     A
C91    C686    1.407   .     S
C92    C94     1.421   .     A
C92    C685    1.407   1_554 S
C95    C121    1.484   .     S
C95    C663    1.412   .     S
C96    C124    1.484   .     S
C96    C664    1.412   1_554 S
Cu97   Cu98    2.678   .     S
Cu97   O113    1.975   .     S
Cu97   N109    2.012   .     S
Cu97   O115    1.955   .     S
Cu97   O111    1.975   .     S
Cu97   O117    1.955   .     S
Cu98   O116    1.955   .     S
Cu98   N110    2.012   .     S
Cu98   O114    1.975   .     S
Cu98   O118    1.955   .     S
Cu98   O112    1.975   .     S
C121   H122    1.085   .     S
C121   O123    1.221   .     D
C124   H125    1.085   .     S
C124   O126    1.221   .     D
C127   H128    1.081   .     S
C127   O129    1.221   .     D
C130   H131    1.081   .     S
C130   O132    1.221   .     D
C133   O180    1.293   .     A
C133   O177    1.293   .     A
C133   C142    1.458   .     S
C134   O179    1.293   .     A
C134   O178    1.293   .     A
C134   C141    1.458   .     S
C135   C160    1.419   .     A
C135   C193    1.477   .     S
C135   C755    1.412   1_554 S
C136   C196    1.477   .     S
C136   C159    1.419   .     A
C136   C756    1.412   .     S
C137   C142    1.402   .     A
C137   H167    1.083   .     S
C138   C141    1.402   .     A
C138   H168    1.083   .     S
C138   C8      1.387   1_655 S
C139   H169    1.083   .     S
C139   C141    1.402   .     A
C139   C5      1.387   1_655 S
C140   C142    1.402   .     A
C140   H170    1.083   .     S
C143   N176    1.367   .     A
C143   H171    1.082   .     S
C143   C542    1.417   1_545 S
C144   H172    1.082   .     S
C144   N175    1.367   .     A
C144   C343    1.417   .     S
C145   H173    1.082   .     S
C145   N176    1.367   .     A
C145   C540    1.417   1_545 S
C146   H174    1.082   .     S
C146   N175    1.367   .     A
C146   C341    1.417   .     S
C147   O184    1.289   .     A
C147   C152    1.448   .     S
C147   O181    1.291   .     A
C148   O183    1.291   .     A
C148   C151    1.448   .     S
C148   O182    1.289   .     A
C149   C159    1.419   .     A
C149   I185    2.153   .     S
C149   C151    1.400   .     A
C150   C152    1.400   .     A
C150   I186    2.153   .     S
C150   C160    1.419   .     A
C151   C153    1.386   .     A
C152   C154    1.386   .     A
C153   C155    1.398   .     A
C153   H165    1.083   .     S
C154   H166    1.083   .     S
C154   C156    1.398   .     A
C155   C161    1.410   .     A
C155   C157    1.413   .     A
C156   C162    1.410   .     A
C156   C158    1.413   .     A
C157   C159    1.421   .     A
C157   C752    1.407   .     S
C158   C160    1.421   .     A
C158   C751    1.407   1_554 S
C161   C187    1.484   .     S
C161   C729    1.412   .     S
C162   C190    1.484   .     S
C162   C730    1.412   1_554 S
Cu163  Cu164   2.678   .     S
Cu163  O179    1.975   .     S
Cu163  N175    2.012   .     S
Cu163  O181    1.955   .     S
Cu163  O177    1.975   .     S
Cu163  O183    1.955   .     S
Cu164  O182    1.955   .     S
Cu164  N176    2.012   .     S
Cu164  O180    1.975   .     S
Cu164  O184    1.955   .     S
Cu164  O178    1.975   .     S
C187   H188    1.085   .     S
C187   O189    1.221   .     D
C190   H191    1.085   .     S
C190   O192    1.221   .     D
C193   H194    1.081   .     S
C193   O195    1.221   .     D
C196   H197    1.081   .     S
C196   O198    1.221   .     D
C199   O246    1.293   .     A
C199   O243    1.293   .     A
C199   C208    1.458   .     S
C200   O245    1.293   .     A
C200   O244    1.293   .     A
C200   C207    1.458   .     S
C201   C226    1.419   .     A
C201   C259    1.477   .     S
C201   C821    1.412   1_554 S
C202   C262    1.477   .     S
C202   C225    1.419   .     A
C202   C822    1.412   .     S
C203   C208    1.402   .     A
C203   H233    1.083   .     S
C203   C337    1.387   1_455 S
C204   C207    1.402   .     A
C204   H234    1.083   .     S
C204   C272    1.387   .     S
C205   H235    1.083   .     S
C205   C207    1.402   .     A
C205   C269    1.387   .     S
C206   C208    1.402   .     A
C206   H236    1.083   .     S
C206   C336    1.387   1_455 S
C209   N242    1.367   .     A
C209   H237    1.082   .     S
C210   H238    1.082   .     S
C210   N241    1.367   .     A
C210   C409    1.417   .     S
C211   H239    1.082   .     S
C211   N242    1.367   .     A
C212   H240    1.082   .     S
C212   N241    1.367   .     A
C212   C407    1.417   .     S
C213   O250    1.289   .     A
C213   C218    1.448   .     S
C213   O247    1.291   .     A
C214   O249    1.291   .     A
C214   C217    1.448   .     S
C214   O248    1.289   .     A
C215   C225    1.419   .     A
C215   I251    2.153   .     S
C215   C217    1.400   .     A
C216   C218    1.400   .     A
C216   I252    2.153   .     S
C216   C226    1.419   .     A
C217   C219    1.386   .     A
C218   C220    1.386   .     A
C219   C221    1.398   .     A
C219   H231    1.083   .     S
C220   H232    1.083   .     S
C220   C222    1.398   .     A
C221   C227    1.410   .     A
C221   C223    1.413   .     A
C222   C228    1.410   .     A
C222   C224    1.413   .     A
C223   C225    1.421   .     A
C223   C818    1.407   .     S
C224   C226    1.421   .     A
C224   C817    1.407   1_554 S
C227   C253    1.484   .     S
C227   C795    1.412   .     S
C228   C256    1.484   .     S
C228   C796    1.412   1_554 S
Cu229  Cu230   2.678   .     S
Cu229  O245    1.975   .     S
Cu229  N241    2.012   .     S
Cu229  O247    1.955   .     S
Cu229  O243    1.975   .     S
Cu229  O249    1.955   .     S
Cu230  O248    1.955   .     S
Cu230  N242    2.012   .     S
Cu230  O246    1.975   .     S
Cu230  O250    1.955   .     S
Cu230  O244    1.975   .     S
C253   H254    1.085   .     S
C253   O255    1.221   .     D
C256   H257    1.085   .     S
C256   O258    1.221   .     D
C259   H260    1.081   .     S
C259   O261    1.221   .     D
C262   H263    1.081   .     S
C262   O264    1.221   .     D
C265   O312    1.293   .     A
C265   O309    1.293   .     A
C265   C274    1.458   .     S
C266   O311    1.293   .     A
C266   O310    1.293   .     A
C266   C273    1.458   .     S
C267   C292    1.419   .     A
C267   C325    1.477   .     S
C267   C887    1.412   1_554 S
C268   C328    1.477   .     S
C268   C291    1.419   .     A
C268   C888    1.412   .     S
C269   C274    1.402   .     A
C269   H299    1.083   .     S
C270   C273    1.402   .     A
C270   H300    1.083   .     S
C270   C338    1.387   .     S
C271   H301    1.083   .     S
C271   C273    1.402   .     A
C271   C335    1.387   .     S
C272   C274    1.402   .     A
C272   H302    1.083   .     S
C275   N308    1.367   .     A
C275   H303    1.082   .     S
C276   H304    1.082   .     S
C276   N307    1.367   .     A
C276   C475    1.417   .     S
C277   H305    1.082   .     S
C277   N308    1.367   .     A
C278   H306    1.082   .     S
C278   N307    1.367   .     A
C278   C473    1.417   .     S
C279   O316    1.289   .     A
C279   C284    1.448   .     S
C279   O313    1.291   .     A
C280   O315    1.291   .     A
C280   C283    1.448   .     S
C280   O314    1.289   .     A
C281   C291    1.419   .     A
C281   I317    2.153   .     S
C281   C283    1.400   .     A
C282   C284    1.400   .     A
C282   I318    2.153   .     S
C282   C292    1.419   .     A
C283   C285    1.386   .     A
C284   C286    1.386   .     A
C285   C287    1.398   .     A
C285   H297    1.083   .     S
C286   H298    1.083   .     S
C286   C288    1.398   .     A
C287   C293    1.410   .     A
C287   C289    1.413   .     A
C288   C294    1.410   .     A
C288   C290    1.413   .     A
C289   C291    1.421   .     A
C289   C884    1.407   .     S
C290   C292    1.421   .     A
C290   C883    1.407   1_554 S
C293   C319    1.484   .     S
C293   C861    1.412   .     S
C294   C322    1.484   .     S
C294   C862    1.412   1_554 S
Cu295  Cu296   2.678   .     S
Cu295  O311    1.975   .     S
Cu295  N307    2.012   .     S
Cu295  O313    1.955   .     S
Cu295  O309    1.975   .     S
Cu295  O315    1.955   .     S
Cu296  O314    1.955   .     S
Cu296  N308    2.012   .     S
Cu296  O312    1.975   .     S
Cu296  O316    1.955   .     S
Cu296  O310    1.975   .     S
C319   H320    1.085   .     S
C319   O321    1.221   .     D
C322   H323    1.085   .     S
C322   O324    1.221   .     D
C325   H326    1.081   .     S
C325   O327    1.221   .     D
C328   H329    1.081   .     S
C328   O330    1.221   .     D
C331   O378    1.293   .     A
C331   O375    1.293   .     A
C331   C340    1.458   .     S
C332   O377    1.293   .     A
C332   O376    1.293   .     A
C332   C339    1.458   .     S
C333   C358    1.419   .     A
C333   C391    1.477   .     S
C333   C953    1.412   1_554 S
C334   C394    1.477   .     S
C334   C357    1.419   .     A
C334   C954    1.412   .     S
C335   C340    1.402   .     A
C335   H365    1.083   .     S
C336   C339    1.402   .     A
C336   H366    1.083   .     S
C336   C206    1.387   1_655 S
C337   H367    1.083   .     S
C337   C339    1.402   .     A
C337   C203    1.387   1_655 S
C338   C340    1.402   .     A
C338   H368    1.083   .     S
C341   N374    1.367   .     A
C341   H369    1.082   .     S
C342   H370    1.082   .     S
C342   N373    1.367   .     A
C342   C541    1.417   .     S
C343   H371    1.082   .     S
C343   N374    1.367   .     A
C344   H372    1.082   .     S
C344   N373    1.367   .     A
C344   C539    1.417   .     S
C345   O382    1.289   .     A
C345   C350    1.448   .     S
C345   O379    1.291   .     A
C346   O381    1.291   .     A
C346   C349    1.448   .     S
C346   O380    1.289   .     A
C347   C357    1.419   .     A
C347   I383    2.153   .     S
C347   C349    1.400   .     A
C348   C350    1.400   .     A
C348   I384    2.153   .     S
C348   C358    1.419   .     A
C349   C351    1.386   .     A
C350   C352    1.386   .     A
C351   C353    1.398   .     A
C351   H363    1.083   .     S
C352   H364    1.083   .     S
C352   C354    1.398   .     A
C353   C359    1.410   .     A
C353   C355    1.413   .     A
C354   C360    1.410   .     A
C354   C356    1.413   .     A
C355   C357    1.421   .     A
C355   C950    1.407   .     S
C356   C358    1.421   .     A
C356   C949    1.407   1_554 S
C359   C385    1.484   .     S
C359   C927    1.412   .     S
C360   C388    1.484   .     S
C360   C928    1.412   1_554 S
Cu361  Cu362   2.678   .     S
Cu361  O377    1.975   .     S
Cu361  N373    2.012   .     S
Cu361  O379    1.955   .     S
Cu361  O375    1.975   .     S
Cu361  O381    1.955   .     S
Cu362  O380    1.955   .     S
Cu362  N374    2.012   .     S
Cu362  O378    1.975   .     S
Cu362  O382    1.955   .     S
Cu362  O376    1.975   .     S
C385   H386    1.085   .     S
C385   O387    1.221   .     D
C388   H389    1.085   .     S
C388   O390    1.221   .     D
C391   H392    1.081   .     S
C391   O393    1.221   .     D
C394   H395    1.081   .     S
C394   O396    1.221   .     D
C397   O444    1.293   .     A
C397   O441    1.293   .     A
C397   C406    1.458   .     S
C398   O443    1.293   .     A
C398   O442    1.293   .     A
C398   C405    1.458   .     S
C399   C424    1.419   .     A
C399   C457    1.477   .     S
C399   C1019   1.412   1_554 S
C400   C460    1.477   .     S
C400   C423    1.419   .     A
C400   C1020   1.412   .     S
C401   C406    1.402   .     A
C401   H431    1.083   .     S
C401   C535    1.387   1_455 S
C402   C405    1.402   .     A
C402   H432    1.083   .     S
C402   C470    1.387   .     S
C403   H433    1.083   .     S
C403   C405    1.402   .     A
C403   C467    1.387   .     S
C404   C406    1.402   .     A
C404   H434    1.083   .     S
C404   C534    1.387   1_455 S
C407   N440    1.367   .     A
C407   H435    1.082   .     S
C408   H436    1.082   .     S
C408   N439    1.367   .     A
C408   C13     1.417   1_565 S
C409   H437    1.082   .     S
C409   N440    1.367   .     A
C410   H438    1.082   .     S
C410   N439    1.367   .     A
C410   C11     1.417   1_565 S
C411   O448    1.289   .     A
C411   C416    1.448   .     S
C411   O445    1.291   .     A
C412   O447    1.291   .     A
C412   C415    1.448   .     S
C412   O446    1.289   .     A
C413   C423    1.419   .     A
C413   I449    2.153   .     S
C413   C415    1.400   .     A
C414   C416    1.400   .     A
C414   I450    2.153   .     S
C414   C424    1.419   .     A
C415   C417    1.386   .     A
C416   C418    1.386   .     A
C417   C419    1.398   .     A
C417   H429    1.083   .     S
C418   H430    1.083   .     S
C418   C420    1.398   .     A
C419   C425    1.410   .     A
C419   C421    1.413   .     A
C420   C426    1.410   .     A
C420   C422    1.413   .     A
C421   C423    1.421   .     A
C421   C1016   1.407   .     S
C422   C424    1.421   .     A
C422   C1015   1.407   1_554 S
C425   C451    1.484   .     S
C425   C993    1.412   .     S
C426   C454    1.484   .     S
C426   C994    1.412   1_554 S
Cu427  Cu428   2.678   .     S
Cu427  O443    1.975   .     S
Cu427  N439    2.012   .     S
Cu427  O445    1.955   .     S
Cu427  O441    1.975   .     S
Cu427  O447    1.955   .     S
Cu428  O446    1.955   .     S
Cu428  N440    2.012   .     S
Cu428  O444    1.975   .     S
Cu428  O448    1.955   .     S
Cu428  O442    1.975   .     S
C451   H452    1.085   .     S
C451   O453    1.221   .     D
C454   H455    1.085   .     S
C454   O456    1.221   .     D
C457   H458    1.081   .     S
C457   O459    1.221   .     D
C460   H461    1.081   .     S
C460   O462    1.221   .     D
C463   O510    1.293   .     A
C463   O507    1.293   .     A
C463   C472    1.458   .     S
C464   O509    1.293   .     A
C464   O508    1.293   .     A
C464   C471    1.458   .     S
C465   C490    1.419   .     A
C465   C523    1.477   .     S
C465   C1085   1.412   1_554 S
C466   C526    1.477   .     S
C466   C489    1.419   .     A
C466   C1086   1.412   .     S
C467   C472    1.402   .     A
C467   H497    1.083   .     S
C468   C471    1.402   .     A
C468   H498    1.083   .     S
C468   C536    1.387   .     S
C469   H499    1.083   .     S
C469   C471    1.402   .     A
C469   C533    1.387   .     S
C470   C472    1.402   .     A
C470   H500    1.083   .     S
C473   N506    1.367   .     A
C473   H501    1.082   .     S
C474   H502    1.082   .     S
C474   N505    1.367   .     A
C474   C79     1.417   1_565 S
C475   H503    1.082   .     S
C475   N506    1.367   .     A
C476   H504    1.082   .     S
C476   N505    1.367   .     A
C476   C77     1.417   1_565 S
C477   O514    1.289   .     A
C477   C482    1.448   .     S
C477   O511    1.291   .     A
C478   O513    1.291   .     A
C478   C481    1.448   .     S
C478   O512    1.289   .     A
C479   C489    1.419   .     A
C479   I515    2.153   .     S
C479   C481    1.400   .     A
C480   C482    1.400   .     A
C480   I516    2.153   .     S
C480   C490    1.419   .     A
C481   C483    1.386   .     A
C482   C484    1.386   .     A
C483   C485    1.398   .     A
C483   H495    1.083   .     S
C484   H496    1.083   .     S
C484   C486    1.398   .     A
C485   C491    1.410   .     A
C485   C487    1.413   .     A
C486   C492    1.410   .     A
C486   C488    1.413   .     A
C487   C489    1.421   .     A
C487   C1082   1.407   .     S
C488   C490    1.421   .     A
C488   C1081   1.407   1_554 S
C491   C517    1.484   .     S
C491   C1059   1.412   .     S
C492   C520    1.484   .     S
C492   C1060   1.412   1_554 S
Cu493  Cu494   2.678   .     S
Cu493  O509    1.975   .     S
Cu493  N505    2.012   .     S
Cu493  O511    1.955   .     S
Cu493  O507    1.975   .     S
Cu493  O513    1.955   .     S
Cu494  O512    1.955   .     S
Cu494  N506    2.012   .     S
Cu494  O510    1.975   .     S
Cu494  O514    1.955   .     S
Cu494  O508    1.975   .     S
C517   H518    1.085   .     S
C517   O519    1.221   .     D
C520   H521    1.085   .     S
C520   O522    1.221   .     D
C523   H524    1.081   .     S
C523   O525    1.221   .     D
C526   H527    1.081   .     S
C526   O528    1.221   .     D
C529   O576    1.293   .     A
C529   O573    1.293   .     A
C529   C538    1.458   .     S
C530   O575    1.293   .     A
C530   O574    1.293   .     A
C530   C537    1.458   .     S
C531   C556    1.419   .     A
C531   C589    1.477   .     S
C531   C1151   1.412   1_554 S
C532   C592    1.477   .     S
C532   C555    1.419   .     A
C532   C1152   1.412   .     S
C533   C538    1.402   .     A
C533   H563    1.083   .     S
C534   C537    1.402   .     A
C534   H564    1.083   .     S
C534   C404    1.387   1_655 S
C535   H565    1.083   .     S
C535   C537    1.402   .     A
C535   C401    1.387   1_655 S
C536   C538    1.402   .     A
C536   H566    1.083   .     S
C539   N572    1.367   .     A
C539   H567    1.082   .     S
C540   H568    1.082   .     S
C540   N571    1.367   .     A
C540   C145    1.417   1_565 S
C541   H569    1.082   .     S
C541   N572    1.367   .     A
C542   H570    1.082   .     S
C542   N571    1.367   .     A
C542   C143    1.417   1_565 S
C543   O580    1.289   .     A
C543   C548    1.448   .     S
C543   O577    1.291   .     A
C544   O579    1.291   .     A
C544   C547    1.448   .     S
C544   O578    1.289   .     A
C545   C555    1.419   .     A
C545   I581    2.153   .     S
C545   C547    1.400   .     A
C546   C548    1.400   .     A
C546   I582    2.153   .     S
C546   C556    1.419   .     A
C547   C549    1.386   .     A
C548   C550    1.386   .     A
C549   C551    1.398   .     A
C549   H561    1.083   .     S
C550   H562    1.083   .     S
C550   C552    1.398   .     A
C551   C557    1.410   .     A
C551   C553    1.413   .     A
C552   C558    1.410   .     A
C552   C554    1.413   .     A
C553   C555    1.421   .     A
C553   C1148   1.407   .     S
C554   C556    1.421   .     A
C554   C1147   1.407   1_554 S
C557   C583    1.484   .     S
C557   C1125   1.412   .     S
C558   C586    1.484   .     S
C558   C1126   1.412   1_554 S
Cu559  Cu560   2.678   .     S
Cu559  O575    1.975   .     S
Cu559  N571    2.012   .     S
Cu559  O577    1.955   .     S
Cu559  O573    1.975   .     S
Cu559  O579    1.955   .     S
Cu560  O578    1.955   .     S
Cu560  N572    2.012   .     S
Cu560  O576    1.975   .     S
Cu560  O580    1.955   .     S
Cu560  O574    1.975   .     S
C583   H584    1.085   .     S
C583   O585    1.221   .     D
C586   H587    1.085   .     S
C586   O588    1.221   .     D
C589   H590    1.081   .     S
C589   O591    1.221   .     D
C592   H593    1.081   .     S
C592   O594    1.221   .     D
C595   O642    1.293   .     A
C595   O639    1.293   .     A
C595   C604    1.458   .     S
C596   O641    1.293   .     A
C596   O640    1.293   .     A
C596   C603    1.458   .     S
C597   C622    1.419   .     A
C597   C655    1.477   .     S
C598   C658    1.477   .     S
C598   C621    1.419   .     A
C598   C30     1.412   1_556 S
C599   C604    1.402   .     A
C599   H629    1.083   .     S
C599   C733    1.387   1_455 S
C600   C603    1.402   .     A
C600   H630    1.083   .     S
C600   C668    1.387   .     S
C601   H631    1.083   .     S
C601   C603    1.402   .     A
C601   C665    1.387   .     S
C602   C604    1.402   .     A
C602   H632    1.083   .     S
C602   C732    1.387   1_455 S
C605   N638    1.367   .     A
C605   H633    1.082   .     S
C605   C1004   1.417   1_545 S
C606   H634    1.082   .     S
C606   N637    1.367   .     A
C606   C805    1.417   .     S
C607   H635    1.082   .     S
C607   N638    1.367   .     A
C607   C1002   1.417   1_545 S
C608   H636    1.082   .     S
C608   N637    1.367   .     A
C608   C803    1.417   .     S
C609   O646    1.289   .     A
C609   C614    1.448   .     S
C609   O643    1.291   .     A
C610   O645    1.291   .     A
C610   C613    1.448   .     S
C610   O644    1.289   .     A
C611   C621    1.419   .     A
C611   I647    2.153   .     S
C611   C613    1.400   .     A
C612   C614    1.400   .     A
C612   I648    2.153   .     S
C612   C622    1.419   .     A
C613   C615    1.386   .     A
C614   C616    1.386   .     A
C615   C617    1.398   .     A
C615   H627    1.083   .     S
C616   H628    1.083   .     S
C616   C618    1.398   .     A
C617   C623    1.410   .     A
C617   C619    1.413   .     A
C618   C624    1.410   .     A
C618   C620    1.413   .     A
C619   C621    1.421   .     A
C619   C26     1.407   1_556 S
C620   C622    1.421   .     A
C623   C649    1.484   .     S
C623   C3      1.412   1_556 S
C624   C652    1.484   .     S
Cu625  Cu626   2.678   .     S
Cu625  O641    1.975   .     S
Cu625  N637    2.012   .     S
Cu625  O643    1.955   .     S
Cu625  O639    1.975   .     S
Cu625  O645    1.955   .     S
Cu626  O644    1.955   .     S
Cu626  N638    2.012   .     S
Cu626  O642    1.975   .     S
Cu626  O646    1.955   .     S
Cu626  O640    1.975   .     S
C649   H650    1.085   .     S
C649   O651    1.221   .     D
C652   H653    1.085   .     S
C652   O654    1.221   .     D
C655   H656    1.081   .     S
C655   O657    1.221   .     D
C658   H659    1.081   .     S
C658   O660    1.221   .     D
C661   O708    1.293   .     A
C661   O705    1.293   .     A
C661   C670    1.458   .     S
C662   O707    1.293   .     A
C662   O706    1.293   .     A
C662   C669    1.458   .     S
C663   C688    1.419   .     A
C663   C721    1.477   .     S
C664   C724    1.477   .     S
C664   C687    1.419   .     A
C664   C96     1.412   1_556 S
C665   C670    1.402   .     A
C665   H695    1.083   .     S
C666   C669    1.402   .     A
C666   H696    1.083   .     S
C666   C734    1.387   .     S
C667   H697    1.083   .     S
C667   C669    1.402   .     A
C667   C731    1.387   .     S
C668   C670    1.402   .     A
C668   H698    1.083   .     S
C671   N704    1.367   .     A
C671   H699    1.082   .     S
C671   C1070   1.417   1_545 S
C672   H700    1.082   .     S
C672   N703    1.367   .     A
C672   C871    1.417   .     S
C673   H701    1.082   .     S
C673   N704    1.367   .     A
C673   C1068   1.417   1_545 S
C674   H702    1.082   .     S
C674   N703    1.367   .     A
C674   C869    1.417   .     S
C675   O712    1.289   .     A
C675   C680    1.448   .     S
C675   O709    1.291   .     A
C676   O711    1.291   .     A
C676   C679    1.448   .     S
C676   O710    1.289   .     A
C677   C687    1.419   .     A
C677   I713    2.153   .     S
C677   C679    1.400   .     A
C678   C680    1.400   .     A
C678   I714    2.153   .     S
C678   C688    1.419   .     A
C679   C681    1.386   .     A
C680   C682    1.386   .     A
C681   C683    1.398   .     A
C681   H693    1.083   .     S
C682   H694    1.083   .     S
C682   C684    1.398   .     A
C683   C689    1.410   .     A
C683   C685    1.413   .     A
C684   C690    1.410   .     A
C684   C686    1.413   .     A
C685   C687    1.421   .     A
C685   C92     1.407   1_556 S
C686   C688    1.421   .     A
C689   C715    1.484   .     S
C689   C69     1.412   1_556 S
C690   C718    1.484   .     S
Cu691  Cu692   2.678   .     S
Cu691  O707    1.975   .     S
Cu691  N703    2.012   .     S
Cu691  O709    1.955   .     S
Cu691  O705    1.975   .     S
Cu691  O711    1.955   .     S
Cu692  O710    1.955   .     S
Cu692  N704    2.012   .     S
Cu692  O708    1.975   .     S
Cu692  O712    1.955   .     S
Cu692  O706    1.975   .     S
C715   H716    1.085   .     S
C715   O717    1.221   .     D
C718   H719    1.085   .     S
C718   O720    1.221   .     D
C721   H722    1.081   .     S
C721   O723    1.221   .     D
C724   H725    1.081   .     S
C724   O726    1.221   .     D
C727   O774    1.293   .     A
C727   O771    1.293   .     A
C727   C736    1.458   .     S
C728   O773    1.293   .     A
C728   O772    1.293   .     A
C728   C735    1.458   .     S
C729   C754    1.419   .     A
C729   C787    1.477   .     S
C730   C790    1.477   .     S
C730   C753    1.419   .     A
C730   C162    1.412   1_556 S
C731   C736    1.402   .     A
C731   H761    1.083   .     S
C732   C735    1.402   .     A
C732   H762    1.083   .     S
C732   C602    1.387   1_655 S
C733   H763    1.083   .     S
C733   C735    1.402   .     A
C733   C599    1.387   1_655 S
C734   C736    1.402   .     A
C734   H764    1.083   .     S
C737   N770    1.367   .     A
C737   H765    1.082   .     S
C737   C1136   1.417   1_545 S
C738   H766    1.082   .     S
C738   N769    1.367   .     A
C738   C937    1.417   .     S
C739   H767    1.082   .     S
C739   N770    1.367   .     A
C739   C1134   1.417   1_545 S
C740   H768    1.082   .     S
C740   N769    1.367   .     A
C740   C935    1.417   .     S
C741   O778    1.289   .     A
C741   C746    1.448   .     S
C741   O775    1.291   .     A
C742   O777    1.291   .     A
C742   C745    1.448   .     S
C742   O776    1.289   .     A
C743   C753    1.419   .     A
C743   I779    2.153   .     S
C743   C745    1.400   .     A
C744   C746    1.400   .     A
C744   I780    2.153   .     S
C744   C754    1.419   .     A
C745   C747    1.386   .     A
C746   C748    1.386   .     A
C747   C749    1.398   .     A
C747   H759    1.083   .     S
C748   H760    1.083   .     S
C748   C750    1.398   .     A
C749   C755    1.410   .     A
C749   C751    1.413   .     A
C750   C756    1.410   .     A
C750   C752    1.413   .     A
C751   C753    1.421   .     A
C751   C158    1.407   1_556 S
C752   C754    1.421   .     A
C755   C781    1.484   .     S
C755   C135    1.412   1_556 S
C756   C784    1.484   .     S
Cu757  Cu758   2.678   .     S
Cu757  O773    1.975   .     S
Cu757  N769    2.012   .     S
Cu757  O775    1.955   .     S
Cu757  O771    1.975   .     S
Cu757  O777    1.955   .     S
Cu758  O776    1.955   .     S
Cu758  N770    2.012   .     S
Cu758  O774    1.975   .     S
Cu758  O778    1.955   .     S
Cu758  O772    1.975   .     S
C781   H782    1.085   .     S
C781   O783    1.221   .     D
C784   H785    1.085   .     S
C784   O786    1.221   .     D
C787   H788    1.081   .     S
C787   O789    1.221   .     D
C790   H791    1.081   .     S
C790   O792    1.221   .     D
C793   O840    1.293   .     A
C793   O837    1.293   .     A
C793   C802    1.458   .     S
C794   O839    1.293   .     A
C794   O838    1.293   .     A
C794   C801    1.458   .     S
C795   C820    1.419   .     A
C795   C853    1.477   .     S
C796   C856    1.477   .     S
C796   C819    1.419   .     A
C796   C228    1.412   1_556 S
C797   C802    1.402   .     A
C797   H827    1.083   .     S
C797   C931    1.387   1_455 S
C798   C801    1.402   .     A
C798   H828    1.083   .     S
C798   C866    1.387   .     S
C799   H829    1.083   .     S
C799   C801    1.402   .     A
C799   C863    1.387   .     S
C800   C802    1.402   .     A
C800   H830    1.083   .     S
C800   C930    1.387   1_455 S
C803   N836    1.367   .     A
C803   H831    1.082   .     S
C804   H832    1.082   .     S
C804   N835    1.367   .     A
C804   C1003   1.417   .     S
C805   H833    1.082   .     S
C805   N836    1.367   .     A
C806   H834    1.082   .     S
C806   N835    1.367   .     A
C806   C1001   1.417   .     S
C807   O844    1.289   .     A
C807   C812    1.448   .     S
C807   O841    1.291   .     A
C808   O843    1.291   .     A
C808   C811    1.448   .     S
C808   O842    1.289   .     A
C809   C819    1.419   .     A
C809   I845    2.153   .     S
C809   C811    1.400   .     A
C810   C812    1.400   .     A
C810   I846    2.153   .     S
C810   C820    1.419   .     A
C811   C813    1.386   .     A
C812   C814    1.386   .     A
C813   C815    1.398   .     A
C813   H825    1.083   .     S
C814   H826    1.083   .     S
C814   C816    1.398   .     A
C815   C821    1.410   .     A
C815   C817    1.413   .     A
C816   C822    1.410   .     A
C816   C818    1.413   .     A
C817   C819    1.421   .     A
C817   C224    1.407   1_556 S
C818   C820    1.421   .     A
C821   C847    1.484   .     S
C821   C201    1.412   1_556 S
C822   C850    1.484   .     S
Cu823  Cu824   2.678   .     S
Cu823  O839    1.975   .     S
Cu823  N835    2.012   .     S
Cu823  O841    1.955   .     S
Cu823  O837    1.975   .     S
Cu823  O843    1.955   .     S
Cu824  O842    1.955   .     S
Cu824  N836    2.012   .     S
Cu824  O840    1.975   .     S
Cu824  O844    1.955   .     S
Cu824  O838    1.975   .     S
C847   H848    1.085   .     S
C847   O849    1.221   .     D
C850   H851    1.085   .     S
C850   O852    1.221   .     D
C853   H854    1.081   .     S
C853   O855    1.221   .     D
C856   H857    1.081   .     S
C856   O858    1.221   .     D
C859   O906    1.293   .     A
C859   O903    1.293   .     A
C859   C868    1.458   .     S
C860   O905    1.293   .     A
C860   O904    1.293   .     A
C860   C867    1.458   .     S
C861   C886    1.419   .     A
C861   C919    1.477   .     S
C862   C922    1.477   .     S
C862   C885    1.419   .     A
C862   C294    1.412   1_556 S
C863   C868    1.402   .     A
C863   H893    1.083   .     S
C864   C867    1.402   .     A
C864   H894    1.083   .     S
C864   C932    1.387   .     S
C865   H895    1.083   .     S
C865   C867    1.402   .     A
C865   C929    1.387   .     S
C866   C868    1.402   .     A
C866   H896    1.083   .     S
C869   N902    1.367   .     A
C869   H897    1.082   .     S
C870   H898    1.082   .     S
C870   N901    1.367   .     A
C870   C1069   1.417   .     S
C871   H899    1.082   .     S
C871   N902    1.367   .     A
C872   H900    1.082   .     S
C872   N901    1.367   .     A
C872   C1067   1.417   .     S
C873   O910    1.289   .     A
C873   C878    1.448   .     S
C873   O907    1.291   .     A
C874   O909    1.291   .     A
C874   C877    1.448   .     S
C874   O908    1.289   .     A
C875   C885    1.419   .     A
C875   I911    2.153   .     S
C875   C877    1.400   .     A
C876   C878    1.400   .     A
C876   I912    2.153   .     S
C876   C886    1.419   .     A
C877   C879    1.386   .     A
C878   C880    1.386   .     A
C879   C881    1.398   .     A
C879   H891    1.083   .     S
C880   H892    1.083   .     S
C880   C882    1.398   .     A
C881   C887    1.410   .     A
C881   C883    1.413   .     A
C882   C888    1.410   .     A
C882   C884    1.413   .     A
C883   C885    1.421   .     A
C883   C290    1.407   1_556 S
C884   C886    1.421   .     A
C887   C913    1.484   .     S
C887   C267    1.412   1_556 S
C888   C916    1.484   .     S
Cu889  Cu890   2.678   .     S
Cu889  O905    1.975   .     S
Cu889  N901    2.012   .     S
Cu889  O907    1.955   .     S
Cu889  O903    1.975   .     S
Cu889  O909    1.955   .     S
Cu890  O908    1.955   .     S
Cu890  N902    2.012   .     S
Cu890  O906    1.975   .     S
Cu890  O910    1.955   .     S
Cu890  O904    1.975   .     S
C913   H914    1.085   .     S
C913   O915    1.221   .     D
C916   H917    1.085   .     S
C916   O918    1.221   .     D
C919   H920    1.081   .     S
C919   O921    1.221   .     D
C922   H923    1.081   .     S
C922   O924    1.221   .     D
C925   O972    1.293   .     A
C925   O969    1.293   .     A
C925   C934    1.458   .     S
C926   O971    1.293   .     A
C926   O970    1.293   .     A
C926   C933    1.458   .     S
C927   C952    1.419   .     A
C927   C985    1.477   .     S
C928   C988    1.477   .     S
C928   C951    1.419   .     A
C928   C360    1.412   1_556 S
C929   C934    1.402   .     A
C929   H959    1.083   .     S
C930   C933    1.402   .     A
C930   H960    1.083   .     S
C930   C800    1.387   1_655 S
C931   H961    1.083   .     S
C931   C933    1.402   .     A
C931   C797    1.387   1_655 S
C932   C934    1.402   .     A
C932   H962    1.083   .     S
C935   N968    1.367   .     A
C935   H963    1.082   .     S
C936   H964    1.082   .     S
C936   N967    1.367   .     A
C936   C1135   1.417   .     S
C937   H965    1.082   .     S
C937   N968    1.367   .     A
C938   H966    1.082   .     S
C938   N967    1.367   .     A
C938   C1133   1.417   .     S
C939   O976    1.289   .     A
C939   C944    1.448   .     S
C939   O973    1.291   .     A
C940   O975    1.291   .     A
C940   C943    1.448   .     S
C940   O974    1.289   .     A
C941   C951    1.419   .     A
C941   I977    2.153   .     S
C941   C943    1.400   .     A
C942   C944    1.400   .     A
C942   I978    2.153   .     S
C942   C952    1.419   .     A
C943   C945    1.386   .     A
C944   C946    1.386   .     A
C945   C947    1.398   .     A
C945   H957    1.083   .     S
C946   H958    1.083   .     S
C946   C948    1.398   .     A
C947   C953    1.410   .     A
C947   C949    1.413   .     A
C948   C954    1.410   .     A
C948   C950    1.413   .     A
C949   C951    1.421   .     A
C949   C356    1.407   1_556 S
C950   C952    1.421   .     A
C953   C979    1.484   .     S
C953   C333    1.412   1_556 S
C954   C982    1.484   .     S
Cu955  Cu956   2.678   .     S
Cu955  O971    1.975   .     S
Cu955  N967    2.012   .     S
Cu955  O973    1.955   .     S
Cu955  O969    1.975   .     S
Cu955  O975    1.955   .     S
Cu956  O974    1.955   .     S
Cu956  N968    2.012   .     S
Cu956  O972    1.975   .     S
Cu956  O976    1.955   .     S
Cu956  O970    1.975   .     S
C979   H980    1.085   .     S
C979   O981    1.221   .     D
C982   H983    1.085   .     S
C982   O984    1.221   .     D
C985   H986    1.081   .     S
C985   O987    1.221   .     D
C988   H989    1.081   .     S
C988   O990    1.221   .     D
C991   O1038   1.293   .     A
C991   O1035   1.293   .     A
C991   C1000   1.458   .     S
C992   O1037   1.293   .     A
C992   O1036   1.293   .     A
C992   C999    1.458   .     S
C993   C1018   1.419   .     A
C993   C1051   1.477   .     S
C994   C1054   1.477   .     S
C994   C1017   1.419   .     A
C994   C426    1.412   1_556 S
C995   C1000   1.402   .     A
C995   H1025   1.083   .     S
C995   C1129   1.387   1_455 S
C996   C999    1.402   .     A
C996   H1026   1.083   .     S
C996   C1064   1.387   .     S
C997   H1027   1.083   .     S
C997   C999    1.402   .     A
C997   C1061   1.387   .     S
C998   C1000   1.402   .     A
C998   H1028   1.083   .     S
C998   C1128   1.387   1_455 S
C1001  N1034   1.367   .     A
C1001  H1029   1.082   .     S
C1002  H1030   1.082   .     S
C1002  N1033   1.367   .     A
C1002  C607    1.417   1_565 S
C1003  H1031   1.082   .     S
C1003  N1034   1.367   .     A
C1004  H1032   1.082   .     S
C1004  N1033   1.367   .     A
C1004  C605    1.417   1_565 S
C1005  O1042   1.289   .     A
C1005  C1010   1.448   .     S
C1005  O1039   1.291   .     A
C1006  O1041   1.291   .     A
C1006  C1009   1.448   .     S
C1006  O1040   1.289   .     A
C1007  C1017   1.419   .     A
C1007  I1043   2.153   .     S
C1007  C1009   1.400   .     A
C1008  C1010   1.400   .     A
C1008  I1044   2.153   .     S
C1008  C1018   1.419   .     A
C1009  C1011   1.386   .     A
C1010  C1012   1.386   .     A
C1011  C1013   1.398   .     A
C1011  H1023   1.083   .     S
C1012  H1024   1.083   .     S
C1012  C1014   1.398   .     A
C1013  C1019   1.410   .     A
C1013  C1015   1.413   .     A
C1014  C1020   1.410   .     A
C1014  C1016   1.413   .     A
C1015  C1017   1.421   .     A
C1015  C422    1.407   1_556 S
C1016  C1018   1.421   .     A
C1019  C1045   1.484   .     S
C1019  C399    1.412   1_556 S
C1020  C1048   1.484   .     S
Cu1021 Cu1022  2.678   .     S
Cu1021 O1037   1.975   .     S
Cu1021 N1033   2.012   .     S
Cu1021 O1039   1.955   .     S
Cu1021 O1035   1.975   .     S
Cu1021 O1041   1.955   .     S
Cu1022 O1040   1.955   .     S
Cu1022 N1034   2.012   .     S
Cu1022 O1038   1.975   .     S
Cu1022 O1042   1.955   .     S
Cu1022 O1036   1.975   .     S
C1045  H1046   1.085   .     S
C1045  O1047   1.221   .     D
C1048  H1049   1.085   .     S
C1048  O1050   1.221   .     D
C1051  H1052   1.081   .     S
C1051  O1053   1.221   .     D
C1054  H1055   1.081   .     S
C1054  O1056   1.221   .     D
C1057  O1104   1.293   .     A
C1057  O1101   1.293   .     A
C1057  C1066   1.458   .     S
C1058  O1103   1.293   .     A
C1058  O1102   1.293   .     A
C1058  C1065   1.458   .     S
C1059  C1084   1.419   .     A
C1059  C1117   1.477   .     S
C1060  C1120   1.477   .     S
C1060  C1083   1.419   .     A
C1060  C492    1.412   1_556 S
C1061  C1066   1.402   .     A
C1061  H1091   1.083   .     S
C1062  C1065   1.402   .     A
C1062  H1092   1.083   .     S
C1062  C1130   1.387   .     S
C1063  H1093   1.083   .     S
C1063  C1065   1.402   .     A
C1063  C1127   1.387   .     S
C1064  C1066   1.402   .     A
C1064  H1094   1.083   .     S
C1067  N1100   1.367   .     A
C1067  H1095   1.082   .     S
C1068  H1096   1.082   .     S
C1068  N1099   1.367   .     A
C1068  C673    1.417   1_565 S
C1069  H1097   1.082   .     S
C1069  N1100   1.367   .     A
C1070  H1098   1.082   .     S
C1070  N1099   1.367   .     A
C1070  C671    1.417   1_565 S
C1071  O1108   1.289   .     A
C1071  C1076   1.448   .     S
C1071  O1105   1.291   .     A
C1072  O1107   1.291   .     A
C1072  C1075   1.448   .     S
C1072  O1106   1.289   .     A
C1073  C1083   1.419   .     A
C1073  I1109   2.153   .     S
C1073  C1075   1.400   .     A
C1074  C1076   1.400   .     A
C1074  I1110   2.153   .     S
C1074  C1084   1.419   .     A
C1075  C1077   1.386   .     A
C1076  C1078   1.386   .     A
C1077  C1079   1.398   .     A
C1077  H1089   1.083   .     S
C1078  H1090   1.083   .     S
C1078  C1080   1.398   .     A
C1079  C1085   1.410   .     A
C1079  C1081   1.413   .     A
C1080  C1086   1.410   .     A
C1080  C1082   1.413   .     A
C1081  C1083   1.421   .     A
C1081  C488    1.407   1_556 S
C1082  C1084   1.421   .     A
C1085  C1111   1.484   .     S
C1085  C465    1.412   1_556 S
C1086  C1114   1.484   .     S
Cu1087 Cu1088  2.678   .     S
Cu1087 O1103   1.975   .     S
Cu1087 N1099   2.012   .     S
Cu1087 O1105   1.955   .     S
Cu1087 O1101   1.975   .     S
Cu1087 O1107   1.955   .     S
Cu1088 O1106   1.955   .     S
Cu1088 N1100   2.012   .     S
Cu1088 O1104   1.975   .     S
Cu1088 O1108   1.955   .     S
Cu1088 O1102   1.975   .     S
C1111  H1112   1.085   .     S
C1111  O1113   1.221   .     D
C1114  H1115   1.085   .     S
C1114  O1116   1.221   .     D
C1117  H1118   1.081   .     S
C1117  O1119   1.221   .     D
C1120  H1121   1.081   .     S
C1120  O1122   1.221   .     D
C1123  O1170   1.293   .     A
C1123  O1167   1.293   .     A
C1123  C1132   1.458   .     S
C1124  O1169   1.293   .     A
C1124  O1168   1.293   .     A
C1124  C1131   1.458   .     S
C1125  C1150   1.419   .     A
C1125  C1183   1.477   .     S
C1126  C1186   1.477   .     S
C1126  C1149   1.419   .     A
C1126  C558    1.412   1_556 S
C1127  C1132   1.402   .     A
C1127  H1157   1.083   .     S
C1128  C1131   1.402   .     A
C1128  H1158   1.083   .     S
C1128  C998    1.387   1_655 S
C1129  H1159   1.083   .     S
C1129  C1131   1.402   .     A
C1129  C995    1.387   1_655 S
C1130  C1132   1.402   .     A
C1130  H1160   1.083   .     S
C1133  N1166   1.367   .     A
C1133  H1161   1.082   .     S
C1134  H1162   1.082   .     S
C1134  N1165   1.367   .     A
C1134  C739    1.417   1_565 S
C1135  H1163   1.082   .     S
C1135  N1166   1.367   .     A
C1136  H1164   1.082   .     S
C1136  N1165   1.367   .     A
C1136  C737    1.417   1_565 S
C1137  O1174   1.289   .     A
C1137  C1142   1.448   .     S
C1137  O1171   1.291   .     A
C1138  O1173   1.291   .     A
C1138  C1141   1.448   .     S
C1138  O1172   1.289   .     A
C1139  C1149   1.419   .     A
C1139  I1175   2.153   .     S
C1139  C1141   1.400   .     A
C1140  C1142   1.400   .     A
C1140  I1176   2.153   .     S
C1140  C1150   1.419   .     A
C1141  C1143   1.386   .     A
C1142  C1144   1.386   .     A
C1143  C1145   1.398   .     A
C1143  H1155   1.083   .     S
C1144  H1156   1.083   .     S
C1144  C1146   1.398   .     A
C1145  C1151   1.410   .     A
C1145  C1147   1.413   .     A
C1146  C1152   1.410   .     A
C1146  C1148   1.413   .     A
C1147  C1149   1.421   .     A
C1147  C554    1.407   1_556 S
C1148  C1150   1.421   .     A
C1151  C1177   1.484   .     S
C1151  C531    1.412   1_556 S
C1152  C1180   1.484   .     S
Cu1153 Cu1154  2.678   .     S
Cu1153 O1169   1.975   .     S
Cu1153 N1165   2.012   .     S
Cu1153 O1171   1.955   .     S
Cu1153 O1167   1.975   .     S
Cu1153 O1173   1.955   .     S
Cu1154 O1172   1.955   .     S
Cu1154 N1166   2.012   .     S
Cu1154 O1170   1.975   .     S
Cu1154 O1174   1.955   .     S
Cu1154 O1168   1.975   .     S
C1177  H1178   1.085   .     S
C1177  O1179   1.221   .     D
C1180  H1181   1.085   .     S
C1180  O1182   1.221   .     D
C1183  H1184   1.081   .     S
C1183  O1185   1.221   .     D
C1186  H1187   1.081   .     S
C1186  O1188   1.221   .     D
