data_str_m2_o2_o10_pcu_sym.94
_audit_creation_date              2020-01-03
_audit_creation_method            'Materials Studio'
_symmetry_space_group_name_H-M    'P1'
_symmetry_Int_Tables_number       1
_symmetry_cell_setting            triclinic
loop_
_symmetry_equiv_pos_as_xyz
  x,y,z
_cell_length_a                    26.3100
_cell_length_b                    30.2767
_cell_length_c                    27.8534
_cell_angle_alpha                 90.8193
_cell_angle_beta                  98.3544
_cell_angle_gamma                 91.4903
loop_
_atom_site_label
_atom_site_type_symbol
_atom_site_fract_x
_atom_site_fract_y
_atom_site_fract_z
_atom_site_U_iso_or_equiv
_atom_site_adp_type
_atom_site_occupancy
C1     C     0.16615   0.16524   0.24965   0.00000  Uiso   1.00
C2     C     0.18509   0.28466   0.45054   0.00000  Uiso   1.00
C3     C     0.16958   0.24745   0.02765   0.00000  Uiso   1.00
C4     C     0.16857   0.24681   0.47289   0.00000  Uiso   1.00
C5     C     0.06802   0.24964   0.23759   0.00000  Uiso   1.00
C6     C     0.26532   0.24989   0.26242   0.00000  Uiso   1.00
C7     C     0.01289   0.24849   0.23080   0.00000  Uiso   1.00
C8     C     0.32048   0.25022   0.26928   0.00000  Uiso   1.00
C9     C     0.12626   0.04704   0.26426   0.00000  Uiso   1.00
C10    C     0.16335   0.45467   0.20914   0.00000  Uiso   1.00
C11    C     0.12378   0.09298   0.26293   0.00000  Uiso   1.00
C12    C     0.16420   0.33525   0.24980   0.00000  Uiso   1.00
C13    C     0.15885   0.40869   0.20614   0.00000  Uiso   1.00
C14    C     0.16559   0.11730   0.24919   0.00000  Uiso   1.00
C15    C     0.16113   0.38423   0.24966   0.00000  Uiso   1.00
C16    C     0.20877   0.09595   0.23700   0.00000  Uiso   1.00
C17    C     0.16251   0.40742   0.29430   0.00000  Uiso   1.00
C18    C     0.21157   0.04977   0.23924   0.00000  Uiso   1.00
C19    C     0.16756   0.45371   0.29698   0.00000  Uiso   1.00
C20    C     0.16964   0.02551   0.25312   0.00000  Uiso   1.00
C21    C     0.16843   0.47707   0.25373   0.00000  Uiso   1.00
C22    C     0.07708   0.11494   0.27480   0.00000  Uiso   1.00
C23    C     0.21340   0.26138   0.06115   0.00000  Uiso   1.00
C24    C     0.14830   0.38826   0.15676   0.00000  Uiso   1.00
C25    C     0.25832   0.02707   0.22849   0.00000  Uiso   1.00
C26    C     0.17312   0.47761   0.34476   0.00000  Uiso   1.00
C27    C     0.26414   0.27006   0.04518   0.00000  Uiso   1.00
C28    C     0.13786   0.16664   0.46264   0.00000  Uiso   1.00
C29    C     0.08338   0.20734   0.11487   0.00000  Uiso   1.00
C30    C     0.22294   0.31828   0.38262   0.00000  Uiso   1.00
C31    C     0.15051   0.20994   0.44227   0.00000  Uiso   1.00
C32    C     0.20936   0.26498   0.11131   0.00000  Uiso   1.00
C33    C     0.14700   0.21385   0.39116   0.00000  Uiso   1.00
C34    C     0.12551   0.23291   0.09751   0.00000  Uiso   1.00
C35    C     0.18916   0.28411   0.40050   0.00000  Uiso   1.00
C36    C     0.12493   0.23544   0.04687   0.00000  Uiso   1.00
Cu37   Cu    0.16667   0.25000   0.29821   0.00000  Uiso   1.00
Cu38   Cu    0.16667   0.25001   0.20178   0.00000  Uiso   1.00
F39    F     0.32191   0.24505   0.18424   0.00000  Uiso   1.00
F40    F     0.01155   0.25295   0.31592   0.00000  Uiso   1.00
F41    F     0.24874   0.12067   0.22484   0.00000  Uiso   1.00
F42    F     0.15785   0.38505   0.33532   0.00000  Uiso   1.00
F43    F     0.08139   0.22397   0.01619   0.00000  Uiso   1.00
F44    F     0.19958   0.32151   0.47815   0.00000  Uiso   1.00
H45    H     0.09417   0.02754   0.27383   0.00000  Uiso   1.00
H46    H     0.14772   0.16064   0.00110   0.00000  Uiso   1.00
H47    H     0.09125   0.18640   0.14603   0.00000  Uiso   1.00
H48    H     0.24044   0.31256   0.35061   0.00000  Uiso   1.00
H49    H     0.16135   0.47366   0.17619   0.00000  Uiso   1.00
H50    H     0.24165   0.27797   0.13628   0.00000  Uiso   1.00
H51    H     0.13089   0.18664   0.36781   0.00000  Uiso   1.00
H52    H     0.07259   0.15018   0.27010   0.00000  Uiso   1.00
H53    H     0.12300   0.35935   0.14956   0.00000  Uiso   1.00
H54    H     0.26300   0.49221   0.23573   0.00000  Uiso   1.00
H55    H     0.18210   0.01280   0.34723   0.00000  Uiso   1.00
H56    H     0.27070   0.26032   0.00902   0.00000  Uiso   1.00
N57    N     0.16667   0.25001   0.12934   0.00000  Uiso   1.00
N58    N     0.16667   0.24999   0.37065   0.00000  Uiso   1.00
O59    O     0.16667   0.18572   0.29071   0.00000  Uiso   1.00
O60    O     0.16659   0.40450   0.12297   0.00000  Uiso   1.00
O61    O     0.29230   0.04686   0.21134   0.00000  Uiso   1.00
O62    O     0.16811   0.45848   0.38215   0.00000  Uiso   1.00
O63    O     0.29957   0.28782   0.07245   0.00000  Uiso   1.00
O64    O     0.11682   0.13675   0.43654   0.00000  Uiso   1.00
O65    O     0.03931   0.20854   0.09397   0.00000  Uiso   1.00
O66    O     0.23365   0.35323   0.40468   0.00000  Uiso   1.00
O67    O     0.16666   0.31428   0.20928   0.00000  Uiso   1.00
O68    O     0.16667   0.18573   0.20928   0.00000  Uiso   1.00
O69    O     0.16666   0.31427   0.29072   0.00000  Uiso   1.00
O70    O     0.09161   0.25000   0.28132   0.00000  Uiso   1.00
O71    O     0.24172   0.25000   0.21868   0.00000  Uiso   1.00
O72    O     0.09161   0.25000   0.19988   0.00000  Uiso   1.00
O73    O     0.24172   0.25000   0.30011   0.00000  Uiso   1.00
O74    O     0.04276   0.09383   0.28998   0.00000  Uiso   1.00
C75    C     0.49948   0.16524   0.24965   0.00000  Uiso   1.00
C76    C     0.51842   0.28466   0.45054   0.00000  Uiso   1.00
C77    C     0.50291   0.24745   0.02765   0.00000  Uiso   1.00
C78    C     0.50191   0.24681   0.47289   0.00000  Uiso   1.00
C79    C     0.40136   0.24964   0.23759   0.00000  Uiso   1.00
C80    C     0.59865   0.24989   0.26242   0.00000  Uiso   1.00
C81    C     0.34623   0.24849   0.23080   0.00000  Uiso   1.00
C82    C     0.65382   0.25022   0.26928   0.00000  Uiso   1.00
C83    C     0.45959   0.04704   0.26426   0.00000  Uiso   1.00
C84    C     0.49668   0.45467   0.20914   0.00000  Uiso   1.00
C85    C     0.45712   0.09298   0.26293   0.00000  Uiso   1.00
C86    C     0.49753   0.33525   0.24980   0.00000  Uiso   1.00
C87    C     0.49219   0.40869   0.20614   0.00000  Uiso   1.00
C88    C     0.49893   0.11730   0.24919   0.00000  Uiso   1.00
C89    C     0.49446   0.38423   0.24966   0.00000  Uiso   1.00
C90    C     0.54210   0.09595   0.23700   0.00000  Uiso   1.00
C91    C     0.49585   0.40742   0.29430   0.00000  Uiso   1.00
C92    C     0.54491   0.04977   0.23924   0.00000  Uiso   1.00
C93    C     0.50089   0.45371   0.29698   0.00000  Uiso   1.00
C94    C     0.50297   0.02551   0.25312   0.00000  Uiso   1.00
C95    C     0.50176   0.47707   0.25373   0.00000  Uiso   1.00
C96    C     0.41041   0.11494   0.27480   0.00000  Uiso   1.00
C97    C     0.54674   0.26138   0.06115   0.00000  Uiso   1.00
C98    C     0.48163   0.38826   0.15676   0.00000  Uiso   1.00
C99    C     0.59165   0.02707   0.22849   0.00000  Uiso   1.00
C100   C     0.50645   0.47761   0.34476   0.00000  Uiso   1.00
C101   C     0.59747   0.27006   0.04518   0.00000  Uiso   1.00
C102   C     0.47119   0.16664   0.46264   0.00000  Uiso   1.00
C103   C     0.41671   0.20734   0.11487   0.00000  Uiso   1.00
C104   C     0.55627   0.31828   0.38262   0.00000  Uiso   1.00
C105   C     0.48385   0.20994   0.44227   0.00000  Uiso   1.00
C106   C     0.54269   0.26498   0.11131   0.00000  Uiso   1.00
C107   C     0.48034   0.21385   0.39116   0.00000  Uiso   1.00
C108   C     0.45885   0.23291   0.09751   0.00000  Uiso   1.00
C109   C     0.52249   0.28411   0.40050   0.00000  Uiso   1.00
C110   C     0.45827   0.23544   0.04687   0.00000  Uiso   1.00
Cu111  Cu    0.50000   0.25000   0.29821   0.00000  Uiso   1.00
Cu112  Cu    0.50000   0.25001   0.20178   0.00000  Uiso   1.00
F113   F     0.65524   0.24505   0.18424   0.00000  Uiso   1.00
F114   F     0.34488   0.25295   0.31592   0.00000  Uiso   1.00
F115   F     0.58207   0.12067   0.22484   0.00000  Uiso   1.00
F116   F     0.49119   0.38505   0.33532   0.00000  Uiso   1.00
F117   F     0.41472   0.22397   0.01619   0.00000  Uiso   1.00
F118   F     0.53291   0.32151   0.47815   0.00000  Uiso   1.00
H119   H     0.42750   0.02754   0.27383   0.00000  Uiso   1.00
H120   H     0.48106   0.16064   0.00110   0.00000  Uiso   1.00
H121   H     0.42459   0.18640   0.14603   0.00000  Uiso   1.00
H122   H     0.57377   0.31256   0.35061   0.00000  Uiso   1.00
H123   H     0.49469   0.47366   0.17619   0.00000  Uiso   1.00
H124   H     0.57499   0.27797   0.13628   0.00000  Uiso   1.00
H125   H     0.46422   0.18664   0.36781   0.00000  Uiso   1.00
H126   H     0.40592   0.15018   0.27010   0.00000  Uiso   1.00
H127   H     0.45633   0.35935   0.14956   0.00000  Uiso   1.00
H128   H     0.59633   0.49221   0.23573   0.00000  Uiso   1.00
H129   H     0.51543   0.01280   0.34723   0.00000  Uiso   1.00
H130   H     0.60403   0.26032   0.00902   0.00000  Uiso   1.00
N131   N     0.50000   0.25001   0.12934   0.00000  Uiso   1.00
N132   N     0.50000   0.24999   0.37065   0.00000  Uiso   1.00
O133   O     0.50000   0.18572   0.29071   0.00000  Uiso   1.00
O134   O     0.49992   0.40450   0.12297   0.00000  Uiso   1.00
O135   O     0.62563   0.04686   0.21134   0.00000  Uiso   1.00
O136   O     0.50144   0.45848   0.38215   0.00000  Uiso   1.00
O137   O     0.63290   0.28782   0.07245   0.00000  Uiso   1.00
O138   O     0.45015   0.13675   0.43654   0.00000  Uiso   1.00
O139   O     0.37264   0.20854   0.09397   0.00000  Uiso   1.00
O140   O     0.56698   0.35323   0.40468   0.00000  Uiso   1.00
O141   O     0.50000   0.31428   0.20928   0.00000  Uiso   1.00
O142   O     0.50000   0.18573   0.20928   0.00000  Uiso   1.00
O143   O     0.50000   0.31427   0.29072   0.00000  Uiso   1.00
O144   O     0.42495   0.25000   0.28132   0.00000  Uiso   1.00
O145   O     0.57505   0.25000   0.21868   0.00000  Uiso   1.00
O146   O     0.42495   0.25000   0.19988   0.00000  Uiso   1.00
O147   O     0.57505   0.25000   0.30011   0.00000  Uiso   1.00
O148   O     0.37609   0.09383   0.28998   0.00000  Uiso   1.00
C149   C     0.83281   0.16524   0.24965   0.00000  Uiso   1.00
C150   C     0.85175   0.28466   0.45054   0.00000  Uiso   1.00
C151   C     0.83625   0.24745   0.02765   0.00000  Uiso   1.00
C152   C     0.83524   0.24681   0.47289   0.00000  Uiso   1.00
C153   C     0.73469   0.24964   0.23759   0.00000  Uiso   1.00
C154   C     0.93199   0.24989   0.26242   0.00000  Uiso   1.00
C155   C     0.67956   0.24849   0.23080   0.00000  Uiso   1.00
C156   C     0.98715   0.25022   0.26928   0.00000  Uiso   1.00
C157   C     0.79292   0.04704   0.26426   0.00000  Uiso   1.00
C158   C     0.83002   0.45467   0.20914   0.00000  Uiso   1.00
C159   C     0.79045   0.09298   0.26293   0.00000  Uiso   1.00
C160   C     0.83087   0.33525   0.24980   0.00000  Uiso   1.00
C161   C     0.82552   0.40869   0.20614   0.00000  Uiso   1.00
C162   C     0.83226   0.11730   0.24919   0.00000  Uiso   1.00
C163   C     0.82780   0.38423   0.24966   0.00000  Uiso   1.00
C164   C     0.87543   0.09595   0.23700   0.00000  Uiso   1.00
C165   C     0.82918   0.40742   0.29430   0.00000  Uiso   1.00
C166   C     0.87824   0.04977   0.23924   0.00000  Uiso   1.00
C167   C     0.83423   0.45371   0.29698   0.00000  Uiso   1.00
C168   C     0.83631   0.02551   0.25312   0.00000  Uiso   1.00
C169   C     0.83509   0.47707   0.25373   0.00000  Uiso   1.00
C170   C     0.74375   0.11494   0.27480   0.00000  Uiso   1.00
C171   C     0.88007   0.26138   0.06115   0.00000  Uiso   1.00
C172   C     0.81496   0.38826   0.15676   0.00000  Uiso   1.00
C173   C     0.92499   0.02707   0.22849   0.00000  Uiso   1.00
C174   C     0.83979   0.47761   0.34476   0.00000  Uiso   1.00
C175   C     0.93080   0.27006   0.04518   0.00000  Uiso   1.00
C176   C     0.80453   0.16664   0.46264   0.00000  Uiso   1.00
C177   C     0.75005   0.20734   0.11487   0.00000  Uiso   1.00
C178   C     0.88960   0.31828   0.38262   0.00000  Uiso   1.00
C179   C     0.81718   0.20994   0.44227   0.00000  Uiso   1.00
C180   C     0.87603   0.26498   0.11131   0.00000  Uiso   1.00
C181   C     0.81367   0.21385   0.39116   0.00000  Uiso   1.00
C182   C     0.79218   0.23291   0.09751   0.00000  Uiso   1.00
C183   C     0.85583   0.28411   0.40050   0.00000  Uiso   1.00
C184   C     0.79160   0.23544   0.04687   0.00000  Uiso   1.00
Cu185  Cu    0.83333   0.25000   0.29821   0.00000  Uiso   1.00
Cu186  Cu    0.83333   0.25001   0.20178   0.00000  Uiso   1.00
F187   F     0.98857   0.24505   0.18424   0.00000  Uiso   1.00
F188   F     0.67822   0.25295   0.31592   0.00000  Uiso   1.00
F189   F     0.91540   0.12067   0.22484   0.00000  Uiso   1.00
F190   F     0.82452   0.38505   0.33532   0.00000  Uiso   1.00
F191   F     0.74806   0.22397   0.01619   0.00000  Uiso   1.00
F192   F     0.86624   0.32151   0.47815   0.00000  Uiso   1.00
H193   H     0.76084   0.02754   0.27383   0.00000  Uiso   1.00
H194   H     0.81439   0.16064   0.00110   0.00000  Uiso   1.00
H195   H     0.75792   0.18640   0.14603   0.00000  Uiso   1.00
H196   H     0.90710   0.31256   0.35061   0.00000  Uiso   1.00
H197   H     0.82802   0.47366   0.17619   0.00000  Uiso   1.00
H198   H     0.90832   0.27797   0.13628   0.00000  Uiso   1.00
H199   H     0.79755   0.18664   0.36781   0.00000  Uiso   1.00
H200   H     0.73926   0.15018   0.27010   0.00000  Uiso   1.00
H201   H     0.78967   0.35935   0.14956   0.00000  Uiso   1.00
H202   H     0.92967   0.49221   0.23573   0.00000  Uiso   1.00
H203   H     0.84876   0.01280   0.34723   0.00000  Uiso   1.00
H204   H     0.93736   0.26032   0.00902   0.00000  Uiso   1.00
N205   N     0.83333   0.25001   0.12934   0.00000  Uiso   1.00
N206   N     0.83333   0.24999   0.37065   0.00000  Uiso   1.00
O207   O     0.83334   0.18572   0.29071   0.00000  Uiso   1.00
O208   O     0.83326   0.40450   0.12297   0.00000  Uiso   1.00
O209   O     0.95897   0.04686   0.21134   0.00000  Uiso   1.00
O210   O     0.83478   0.45848   0.38215   0.00000  Uiso   1.00
O211   O     0.96623   0.28782   0.07245   0.00000  Uiso   1.00
O212   O     0.78348   0.13675   0.43654   0.00000  Uiso   1.00
O213   O     0.70598   0.20854   0.09397   0.00000  Uiso   1.00
O214   O     0.90032   0.35323   0.40468   0.00000  Uiso   1.00
O215   O     0.83333   0.31428   0.20928   0.00000  Uiso   1.00
O216   O     0.83334   0.18573   0.20928   0.00000  Uiso   1.00
O217   O     0.83333   0.31427   0.29072   0.00000  Uiso   1.00
O218   O     0.75828   0.25000   0.28132   0.00000  Uiso   1.00
O219   O     0.90839   0.25000   0.21868   0.00000  Uiso   1.00
O220   O     0.75828   0.25000   0.19988   0.00000  Uiso   1.00
O221   O     0.90839   0.25000   0.30011   0.00000  Uiso   1.00
O222   O     0.70942   0.09383   0.28998   0.00000  Uiso   1.00
C223   C     0.16615   0.66524   0.24965   0.00000  Uiso   1.00
C224   C     0.18509   0.78466   0.45054   0.00000  Uiso   1.00
C225   C     0.16958   0.74745   0.02765   0.00000  Uiso   1.00
C226   C     0.16857   0.74681   0.47289   0.00000  Uiso   1.00
C227   C     0.06802   0.74964   0.23759   0.00000  Uiso   1.00
C228   C     0.26532   0.74989   0.26242   0.00000  Uiso   1.00
C229   C     0.01289   0.74849   0.23080   0.00000  Uiso   1.00
C230   C     0.32048   0.75022   0.26928   0.00000  Uiso   1.00
C231   C     0.12626   0.54704   0.26426   0.00000  Uiso   1.00
C232   C     0.16335   0.95467   0.20914   0.00000  Uiso   1.00
C233   C     0.12378   0.59298   0.26293   0.00000  Uiso   1.00
C234   C     0.16420   0.83525   0.24980   0.00000  Uiso   1.00
C235   C     0.15885   0.90869   0.20614   0.00000  Uiso   1.00
C236   C     0.16559   0.61730   0.24919   0.00000  Uiso   1.00
C237   C     0.16113   0.88423   0.24966   0.00000  Uiso   1.00
C238   C     0.20877   0.59595   0.23700   0.00000  Uiso   1.00
C239   C     0.16251   0.90742   0.29430   0.00000  Uiso   1.00
C240   C     0.21157   0.54977   0.23924   0.00000  Uiso   1.00
C241   C     0.16756   0.95371   0.29698   0.00000  Uiso   1.00
C242   C     0.16964   0.52551   0.25312   0.00000  Uiso   1.00
C243   C     0.16843   0.97707   0.25373   0.00000  Uiso   1.00
C244   C     0.07708   0.61494   0.27480   0.00000  Uiso   1.00
C245   C     0.21340   0.76138   0.06115   0.00000  Uiso   1.00
C246   C     0.14830   0.88826   0.15676   0.00000  Uiso   1.00
C247   C     0.25832   0.52707   0.22849   0.00000  Uiso   1.00
C248   C     0.17312   0.97761   0.34476   0.00000  Uiso   1.00
C249   C     0.26414   0.77006   0.04518   0.00000  Uiso   1.00
C250   C     0.13786   0.66664   0.46264   0.00000  Uiso   1.00
C251   C     0.08338   0.70734   0.11487   0.00000  Uiso   1.00
C252   C     0.22294   0.81828   0.38262   0.00000  Uiso   1.00
C253   C     0.15051   0.70994   0.44227   0.00000  Uiso   1.00
C254   C     0.20936   0.76498   0.11131   0.00000  Uiso   1.00
C255   C     0.14700   0.71385   0.39116   0.00000  Uiso   1.00
C256   C     0.12551   0.73291   0.09751   0.00000  Uiso   1.00
C257   C     0.18916   0.78411   0.40050   0.00000  Uiso   1.00
C258   C     0.12493   0.73544   0.04687   0.00000  Uiso   1.00
Cu259  Cu    0.16667   0.75000   0.29821   0.00000  Uiso   1.00
Cu260  Cu    0.16667   0.75001   0.20178   0.00000  Uiso   1.00
F261   F     0.32191   0.74505   0.18424   0.00000  Uiso   1.00
F262   F     0.01155   0.75295   0.31592   0.00000  Uiso   1.00
F263   F     0.24874   0.62067   0.22484   0.00000  Uiso   1.00
F264   F     0.15785   0.88505   0.33532   0.00000  Uiso   1.00
F265   F     0.08139   0.72397   0.01619   0.00000  Uiso   1.00
F266   F     0.19958   0.82151   0.47815   0.00000  Uiso   1.00
H267   H     0.09417   0.52754   0.27383   0.00000  Uiso   1.00
H268   H     0.14772   0.66064   0.00110   0.00000  Uiso   1.00
H269   H     0.09125   0.68640   0.14603   0.00000  Uiso   1.00
H270   H     0.24044   0.81256   0.35061   0.00000  Uiso   1.00
H271   H     0.16135   0.97366   0.17619   0.00000  Uiso   1.00
H272   H     0.24165   0.77797   0.13628   0.00000  Uiso   1.00
H273   H     0.13089   0.68664   0.36781   0.00000  Uiso   1.00
H274   H     0.07259   0.65018   0.27010   0.00000  Uiso   1.00
H275   H     0.12300   0.85935   0.14956   0.00000  Uiso   1.00
H276   H     0.26300   0.99221   0.23573   0.00000  Uiso   1.00
H277   H     0.18210   0.51280   0.34723   0.00000  Uiso   1.00
H278   H     0.27070   0.76032   0.00902   0.00000  Uiso   1.00
N279   N     0.16667   0.75001   0.12934   0.00000  Uiso   1.00
N280   N     0.16667   0.74999   0.37065   0.00000  Uiso   1.00
O281   O     0.16667   0.68572   0.29071   0.00000  Uiso   1.00
O282   O     0.16659   0.90450   0.12297   0.00000  Uiso   1.00
O283   O     0.29230   0.54686   0.21134   0.00000  Uiso   1.00
O284   O     0.16811   0.95848   0.38215   0.00000  Uiso   1.00
O285   O     0.29957   0.78782   0.07245   0.00000  Uiso   1.00
O286   O     0.11682   0.63675   0.43654   0.00000  Uiso   1.00
O287   O     0.03931   0.70854   0.09397   0.00000  Uiso   1.00
O288   O     0.23365   0.85323   0.40468   0.00000  Uiso   1.00
O289   O     0.16666   0.81428   0.20928   0.00000  Uiso   1.00
O290   O     0.16667   0.68573   0.20928   0.00000  Uiso   1.00
O291   O     0.16666   0.81427   0.29072   0.00000  Uiso   1.00
O292   O     0.09161   0.75000   0.28132   0.00000  Uiso   1.00
O293   O     0.24172   0.75000   0.21868   0.00000  Uiso   1.00
O294   O     0.09161   0.75000   0.19988   0.00000  Uiso   1.00
O295   O     0.24172   0.75000   0.30011   0.00000  Uiso   1.00
O296   O     0.04276   0.59383   0.28998   0.00000  Uiso   1.00
C297   C     0.49948   0.66524   0.24965   0.00000  Uiso   1.00
C298   C     0.51842   0.78466   0.45054   0.00000  Uiso   1.00
C299   C     0.50291   0.74745   0.02765   0.00000  Uiso   1.00
C300   C     0.50191   0.74681   0.47289   0.00000  Uiso   1.00
C301   C     0.40136   0.74964   0.23759   0.00000  Uiso   1.00
C302   C     0.59865   0.74989   0.26242   0.00000  Uiso   1.00
C303   C     0.34623   0.74849   0.23080   0.00000  Uiso   1.00
C304   C     0.65382   0.75022   0.26928   0.00000  Uiso   1.00
C305   C     0.45959   0.54704   0.26426   0.00000  Uiso   1.00
C306   C     0.49668   0.95467   0.20914   0.00000  Uiso   1.00
C307   C     0.45712   0.59298   0.26293   0.00000  Uiso   1.00
C308   C     0.49753   0.83525   0.24980   0.00000  Uiso   1.00
C309   C     0.49219   0.90869   0.20614   0.00000  Uiso   1.00
C310   C     0.49893   0.61730   0.24919   0.00000  Uiso   1.00
C311   C     0.49446   0.88423   0.24966   0.00000  Uiso   1.00
C312   C     0.54210   0.59595   0.23700   0.00000  Uiso   1.00
C313   C     0.49585   0.90742   0.29430   0.00000  Uiso   1.00
C314   C     0.54491   0.54977   0.23924   0.00000  Uiso   1.00
C315   C     0.50089   0.95371   0.29698   0.00000  Uiso   1.00
C316   C     0.50297   0.52551   0.25312   0.00000  Uiso   1.00
C317   C     0.50176   0.97707   0.25373   0.00000  Uiso   1.00
C318   C     0.41041   0.61494   0.27480   0.00000  Uiso   1.00
C319   C     0.54674   0.76138   0.06115   0.00000  Uiso   1.00
C320   C     0.48163   0.88826   0.15676   0.00000  Uiso   1.00
C321   C     0.59165   0.52707   0.22849   0.00000  Uiso   1.00
C322   C     0.50645   0.97761   0.34476   0.00000  Uiso   1.00
C323   C     0.59747   0.77006   0.04518   0.00000  Uiso   1.00
C324   C     0.47119   0.66664   0.46264   0.00000  Uiso   1.00
C325   C     0.41671   0.70734   0.11487   0.00000  Uiso   1.00
C326   C     0.55627   0.81828   0.38262   0.00000  Uiso   1.00
C327   C     0.48385   0.70994   0.44227   0.00000  Uiso   1.00
C328   C     0.54269   0.76498   0.11131   0.00000  Uiso   1.00
C329   C     0.48034   0.71385   0.39116   0.00000  Uiso   1.00
C330   C     0.45885   0.73291   0.09751   0.00000  Uiso   1.00
C331   C     0.52249   0.78411   0.40050   0.00000  Uiso   1.00
C332   C     0.45827   0.73544   0.04687   0.00000  Uiso   1.00
Cu333  Cu    0.50000   0.75000   0.29821   0.00000  Uiso   1.00
Cu334  Cu    0.50000   0.75001   0.20178   0.00000  Uiso   1.00
F335   F     0.65524   0.74505   0.18424   0.00000  Uiso   1.00
F336   F     0.34488   0.75295   0.31592   0.00000  Uiso   1.00
F337   F     0.58207   0.62067   0.22484   0.00000  Uiso   1.00
F338   F     0.49119   0.88505   0.33532   0.00000  Uiso   1.00
F339   F     0.41472   0.72397   0.01619   0.00000  Uiso   1.00
F340   F     0.53291   0.82151   0.47815   0.00000  Uiso   1.00
H341   H     0.42750   0.52754   0.27383   0.00000  Uiso   1.00
H342   H     0.48106   0.66064   0.00110   0.00000  Uiso   1.00
H343   H     0.42459   0.68640   0.14603   0.00000  Uiso   1.00
H344   H     0.57377   0.81256   0.35061   0.00000  Uiso   1.00
H345   H     0.49469   0.97366   0.17619   0.00000  Uiso   1.00
H346   H     0.57499   0.77797   0.13628   0.00000  Uiso   1.00
H347   H     0.46422   0.68664   0.36781   0.00000  Uiso   1.00
H348   H     0.40592   0.65018   0.27010   0.00000  Uiso   1.00
H349   H     0.45633   0.85935   0.14956   0.00000  Uiso   1.00
H350   H     0.59633   0.99221   0.23573   0.00000  Uiso   1.00
H351   H     0.51543   0.51280   0.34723   0.00000  Uiso   1.00
H352   H     0.60403   0.76032   0.00902   0.00000  Uiso   1.00
N353   N     0.50000   0.75001   0.12934   0.00000  Uiso   1.00
N354   N     0.50000   0.74999   0.37065   0.00000  Uiso   1.00
O355   O     0.50000   0.68572   0.29071   0.00000  Uiso   1.00
O356   O     0.49992   0.90450   0.12297   0.00000  Uiso   1.00
O357   O     0.62563   0.54686   0.21134   0.00000  Uiso   1.00
O358   O     0.50144   0.95848   0.38215   0.00000  Uiso   1.00
O359   O     0.63290   0.78782   0.07245   0.00000  Uiso   1.00
O360   O     0.45015   0.63675   0.43654   0.00000  Uiso   1.00
O361   O     0.37264   0.70854   0.09397   0.00000  Uiso   1.00
O362   O     0.56698   0.85323   0.40468   0.00000  Uiso   1.00
O363   O     0.50000   0.81428   0.20928   0.00000  Uiso   1.00
O364   O     0.50000   0.68573   0.20928   0.00000  Uiso   1.00
O365   O     0.50000   0.81427   0.29072   0.00000  Uiso   1.00
O366   O     0.42495   0.75000   0.28132   0.00000  Uiso   1.00
O367   O     0.57505   0.75000   0.21868   0.00000  Uiso   1.00
O368   O     0.42495   0.75000   0.19988   0.00000  Uiso   1.00
O369   O     0.57505   0.75000   0.30011   0.00000  Uiso   1.00
O370   O     0.37609   0.59383   0.28998   0.00000  Uiso   1.00
C371   C     0.83281   0.66524   0.24965   0.00000  Uiso   1.00
C372   C     0.85175   0.78466   0.45054   0.00000  Uiso   1.00
C373   C     0.83625   0.74745   0.02765   0.00000  Uiso   1.00
C374   C     0.83524   0.74681   0.47289   0.00000  Uiso   1.00
C375   C     0.73469   0.74964   0.23759   0.00000  Uiso   1.00
C376   C     0.93199   0.74989   0.26242   0.00000  Uiso   1.00
C377   C     0.67956   0.74849   0.23080   0.00000  Uiso   1.00
C378   C     0.98715   0.75022   0.26928   0.00000  Uiso   1.00
C379   C     0.79292   0.54704   0.26426   0.00000  Uiso   1.00
C380   C     0.83002   0.95467   0.20914   0.00000  Uiso   1.00
C381   C     0.79045   0.59298   0.26293   0.00000  Uiso   1.00
C382   C     0.83087   0.83525   0.24980   0.00000  Uiso   1.00
C383   C     0.82552   0.90869   0.20614   0.00000  Uiso   1.00
C384   C     0.83226   0.61730   0.24919   0.00000  Uiso   1.00
C385   C     0.82780   0.88423   0.24966   0.00000  Uiso   1.00
C386   C     0.87543   0.59595   0.23700   0.00000  Uiso   1.00
C387   C     0.82918   0.90742   0.29430   0.00000  Uiso   1.00
C388   C     0.87824   0.54977   0.23924   0.00000  Uiso   1.00
C389   C     0.83423   0.95371   0.29698   0.00000  Uiso   1.00
C390   C     0.83631   0.52551   0.25312   0.00000  Uiso   1.00
C391   C     0.83509   0.97707   0.25373   0.00000  Uiso   1.00
C392   C     0.74375   0.61494   0.27480   0.00000  Uiso   1.00
C393   C     0.88007   0.76138   0.06115   0.00000  Uiso   1.00
C394   C     0.81496   0.88826   0.15676   0.00000  Uiso   1.00
C395   C     0.92499   0.52707   0.22849   0.00000  Uiso   1.00
C396   C     0.83979   0.97761   0.34476   0.00000  Uiso   1.00
C397   C     0.93080   0.77006   0.04518   0.00000  Uiso   1.00
C398   C     0.80453   0.66664   0.46264   0.00000  Uiso   1.00
C399   C     0.75005   0.70734   0.11487   0.00000  Uiso   1.00
C400   C     0.88960   0.81828   0.38262   0.00000  Uiso   1.00
C401   C     0.81718   0.70994   0.44227   0.00000  Uiso   1.00
C402   C     0.87603   0.76498   0.11131   0.00000  Uiso   1.00
C403   C     0.81367   0.71385   0.39116   0.00000  Uiso   1.00
C404   C     0.79218   0.73291   0.09751   0.00000  Uiso   1.00
C405   C     0.85583   0.78411   0.40050   0.00000  Uiso   1.00
C406   C     0.79160   0.73544   0.04687   0.00000  Uiso   1.00
Cu407  Cu    0.83333   0.75000   0.29821   0.00000  Uiso   1.00
Cu408  Cu    0.83333   0.75001   0.20178   0.00000  Uiso   1.00
F409   F     0.98857   0.74505   0.18424   0.00000  Uiso   1.00
F410   F     0.67822   0.75295   0.31592   0.00000  Uiso   1.00
F411   F     0.91540   0.62067   0.22484   0.00000  Uiso   1.00
F412   F     0.82452   0.88505   0.33532   0.00000  Uiso   1.00
F413   F     0.74806   0.72397   0.01619   0.00000  Uiso   1.00
F414   F     0.86624   0.82151   0.47815   0.00000  Uiso   1.00
H415   H     0.76084   0.52754   0.27383   0.00000  Uiso   1.00
H416   H     0.81439   0.66064   0.00110   0.00000  Uiso   1.00
H417   H     0.75792   0.68640   0.14603   0.00000  Uiso   1.00
H418   H     0.90710   0.81256   0.35061   0.00000  Uiso   1.00
H419   H     0.82802   0.97366   0.17619   0.00000  Uiso   1.00
H420   H     0.90832   0.77797   0.13628   0.00000  Uiso   1.00
H421   H     0.79755   0.68664   0.36781   0.00000  Uiso   1.00
H422   H     0.73926   0.65018   0.27010   0.00000  Uiso   1.00
H423   H     0.78967   0.85935   0.14956   0.00000  Uiso   1.00
H424   H     0.92967   0.99221   0.23573   0.00000  Uiso   1.00
H425   H     0.84876   0.51280   0.34723   0.00000  Uiso   1.00
H426   H     0.93736   0.76032   0.00902   0.00000  Uiso   1.00
N427   N     0.83333   0.75001   0.12934   0.00000  Uiso   1.00
N428   N     0.83333   0.74999   0.37065   0.00000  Uiso   1.00
O429   O     0.83334   0.68572   0.29071   0.00000  Uiso   1.00
O430   O     0.83326   0.90450   0.12297   0.00000  Uiso   1.00
O431   O     0.95897   0.54686   0.21134   0.00000  Uiso   1.00
O432   O     0.83478   0.95848   0.38215   0.00000  Uiso   1.00
O433   O     0.96623   0.78782   0.07245   0.00000  Uiso   1.00
O434   O     0.78348   0.63675   0.43654   0.00000  Uiso   1.00
O435   O     0.70598   0.70854   0.09397   0.00000  Uiso   1.00
O436   O     0.90032   0.85323   0.40468   0.00000  Uiso   1.00
O437   O     0.83333   0.81428   0.20928   0.00000  Uiso   1.00
O438   O     0.83334   0.68573   0.20928   0.00000  Uiso   1.00
O439   O     0.83333   0.81427   0.29072   0.00000  Uiso   1.00
O440   O     0.75828   0.75000   0.28132   0.00000  Uiso   1.00
O441   O     0.90839   0.75000   0.21868   0.00000  Uiso   1.00
O442   O     0.75828   0.75000   0.19988   0.00000  Uiso   1.00
O443   O     0.90839   0.75000   0.30011   0.00000  Uiso   1.00
O444   O     0.70942   0.59383   0.28998   0.00000  Uiso   1.00
C445   C     0.16615   0.16524   0.74965   0.00000  Uiso   1.00
C446   C     0.18509   0.28466   0.95054   0.00000  Uiso   1.00
C447   C     0.16958   0.24745   0.52765   0.00000  Uiso   1.00
C448   C     0.16857   0.24681   0.97289   0.00000  Uiso   1.00
C449   C     0.06802   0.24964   0.73759   0.00000  Uiso   1.00
C450   C     0.26532   0.24989   0.76242   0.00000  Uiso   1.00
C451   C     0.01289   0.24849   0.73080   0.00000  Uiso   1.00
C452   C     0.32048   0.25022   0.76928   0.00000  Uiso   1.00
C453   C     0.12626   0.04704   0.76426   0.00000  Uiso   1.00
C454   C     0.16335   0.45467   0.70914   0.00000  Uiso   1.00
C455   C     0.12378   0.09298   0.76293   0.00000  Uiso   1.00
C456   C     0.16420   0.33525   0.74980   0.00000  Uiso   1.00
C457   C     0.15885   0.40869   0.70614   0.00000  Uiso   1.00
C458   C     0.16559   0.11730   0.74919   0.00000  Uiso   1.00
C459   C     0.16113   0.38423   0.74966   0.00000  Uiso   1.00
C460   C     0.20877   0.09595   0.73700   0.00000  Uiso   1.00
C461   C     0.16251   0.40742   0.79430   0.00000  Uiso   1.00
C462   C     0.21157   0.04977   0.73924   0.00000  Uiso   1.00
C463   C     0.16756   0.45371   0.79698   0.00000  Uiso   1.00
C464   C     0.16964   0.02551   0.75312   0.00000  Uiso   1.00
C465   C     0.16843   0.47707   0.75373   0.00000  Uiso   1.00
C466   C     0.07708   0.11494   0.77480   0.00000  Uiso   1.00
C467   C     0.21340   0.26138   0.56115   0.00000  Uiso   1.00
C468   C     0.14830   0.38826   0.65676   0.00000  Uiso   1.00
C469   C     0.25832   0.02707   0.72849   0.00000  Uiso   1.00
C470   C     0.17312   0.47761   0.84476   0.00000  Uiso   1.00
C471   C     0.26414   0.27006   0.54518   0.00000  Uiso   1.00
C472   C     0.13786   0.16664   0.96264   0.00000  Uiso   1.00
C473   C     0.08338   0.20734   0.61487   0.00000  Uiso   1.00
C474   C     0.22294   0.31828   0.88262   0.00000  Uiso   1.00
C475   C     0.15051   0.20994   0.94227   0.00000  Uiso   1.00
C476   C     0.20936   0.26498   0.61131   0.00000  Uiso   1.00
C477   C     0.14700   0.21385   0.89116   0.00000  Uiso   1.00
C478   C     0.12551   0.23291   0.59751   0.00000  Uiso   1.00
C479   C     0.18916   0.28411   0.90050   0.00000  Uiso   1.00
C480   C     0.12493   0.23544   0.54687   0.00000  Uiso   1.00
Cu481  Cu    0.16667   0.25000   0.79821   0.00000  Uiso   1.00
Cu482  Cu    0.16667   0.25001   0.70178   0.00000  Uiso   1.00
F483   F     0.32191   0.24505   0.68424   0.00000  Uiso   1.00
F484   F     0.01155   0.25295   0.81592   0.00000  Uiso   1.00
F485   F     0.24874   0.12067   0.72484   0.00000  Uiso   1.00
F486   F     0.15785   0.38505   0.83532   0.00000  Uiso   1.00
F487   F     0.08139   0.22397   0.51619   0.00000  Uiso   1.00
F488   F     0.19958   0.32151   0.97815   0.00000  Uiso   1.00
H489   H     0.09417   0.02754   0.77383   0.00000  Uiso   1.00
H490   H     0.14772   0.16064   0.50110   0.00000  Uiso   1.00
H491   H     0.09125   0.18640   0.64603   0.00000  Uiso   1.00
H492   H     0.24044   0.31256   0.85061   0.00000  Uiso   1.00
H493   H     0.16135   0.47366   0.67619   0.00000  Uiso   1.00
H494   H     0.24165   0.27797   0.63628   0.00000  Uiso   1.00
H495   H     0.13089   0.18664   0.86781   0.00000  Uiso   1.00
H496   H     0.07259   0.15018   0.77010   0.00000  Uiso   1.00
H497   H     0.12300   0.35935   0.64956   0.00000  Uiso   1.00
H498   H     0.26300   0.49221   0.73573   0.00000  Uiso   1.00
H499   H     0.18210   0.01280   0.84723   0.00000  Uiso   1.00
H500   H     0.27070   0.26032   0.50902   0.00000  Uiso   1.00
N501   N     0.16667   0.25001   0.62934   0.00000  Uiso   1.00
N502   N     0.16667   0.24999   0.87065   0.00000  Uiso   1.00
O503   O     0.16667   0.18572   0.79071   0.00000  Uiso   1.00
O504   O     0.16659   0.40450   0.62297   0.00000  Uiso   1.00
O505   O     0.29230   0.04686   0.71134   0.00000  Uiso   1.00
O506   O     0.16811   0.45848   0.88215   0.00000  Uiso   1.00
O507   O     0.29957   0.28782   0.57245   0.00000  Uiso   1.00
O508   O     0.11682   0.13675   0.93654   0.00000  Uiso   1.00
O509   O     0.03931   0.20854   0.59397   0.00000  Uiso   1.00
O510   O     0.23365   0.35323   0.90468   0.00000  Uiso   1.00
O511   O     0.16666   0.31428   0.70928   0.00000  Uiso   1.00
O512   O     0.16667   0.18573   0.70928   0.00000  Uiso   1.00
O513   O     0.16666   0.31427   0.79072   0.00000  Uiso   1.00
O514   O     0.09161   0.25000   0.78132   0.00000  Uiso   1.00
O515   O     0.24172   0.25000   0.71868   0.00000  Uiso   1.00
O516   O     0.09161   0.25000   0.69988   0.00000  Uiso   1.00
O517   O     0.24172   0.25000   0.80011   0.00000  Uiso   1.00
O518   O     0.04276   0.09383   0.78998   0.00000  Uiso   1.00
C519   C     0.49948   0.16524   0.74965   0.00000  Uiso   1.00
C520   C     0.51842   0.28466   0.95054   0.00000  Uiso   1.00
C521   C     0.50291   0.24745   0.52765   0.00000  Uiso   1.00
C522   C     0.50191   0.24681   0.97289   0.00000  Uiso   1.00
C523   C     0.40136   0.24964   0.73759   0.00000  Uiso   1.00
C524   C     0.59865   0.24989   0.76242   0.00000  Uiso   1.00
C525   C     0.34623   0.24849   0.73080   0.00000  Uiso   1.00
C526   C     0.65382   0.25022   0.76928   0.00000  Uiso   1.00
C527   C     0.45959   0.04704   0.76426   0.00000  Uiso   1.00
C528   C     0.49668   0.45467   0.70914   0.00000  Uiso   1.00
C529   C     0.45712   0.09298   0.76293   0.00000  Uiso   1.00
C530   C     0.49753   0.33525   0.74980   0.00000  Uiso   1.00
C531   C     0.49219   0.40869   0.70614   0.00000  Uiso   1.00
C532   C     0.49893   0.11730   0.74919   0.00000  Uiso   1.00
C533   C     0.49446   0.38423   0.74966   0.00000  Uiso   1.00
C534   C     0.54210   0.09595   0.73700   0.00000  Uiso   1.00
C535   C     0.49585   0.40742   0.79430   0.00000  Uiso   1.00
C536   C     0.54491   0.04977   0.73924   0.00000  Uiso   1.00
C537   C     0.50089   0.45371   0.79698   0.00000  Uiso   1.00
C538   C     0.50297   0.02551   0.75312   0.00000  Uiso   1.00
C539   C     0.50176   0.47707   0.75373   0.00000  Uiso   1.00
C540   C     0.41041   0.11494   0.77480   0.00000  Uiso   1.00
C541   C     0.54674   0.26138   0.56115   0.00000  Uiso   1.00
C542   C     0.48163   0.38826   0.65676   0.00000  Uiso   1.00
C543   C     0.59165   0.02707   0.72849   0.00000  Uiso   1.00
C544   C     0.50645   0.47761   0.84476   0.00000  Uiso   1.00
C545   C     0.59747   0.27006   0.54518   0.00000  Uiso   1.00
C546   C     0.47119   0.16664   0.96264   0.00000  Uiso   1.00
C547   C     0.41671   0.20734   0.61487   0.00000  Uiso   1.00
C548   C     0.55627   0.31828   0.88262   0.00000  Uiso   1.00
C549   C     0.48385   0.20994   0.94227   0.00000  Uiso   1.00
C550   C     0.54269   0.26498   0.61131   0.00000  Uiso   1.00
C551   C     0.48034   0.21385   0.89116   0.00000  Uiso   1.00
C552   C     0.45885   0.23291   0.59751   0.00000  Uiso   1.00
C553   C     0.52249   0.28411   0.90050   0.00000  Uiso   1.00
C554   C     0.45827   0.23544   0.54687   0.00000  Uiso   1.00
Cu555  Cu    0.50000   0.25000   0.79821   0.00000  Uiso   1.00
Cu556  Cu    0.50000   0.25001   0.70178   0.00000  Uiso   1.00
F557   F     0.65524   0.24505   0.68424   0.00000  Uiso   1.00
F558   F     0.34488   0.25295   0.81592   0.00000  Uiso   1.00
F559   F     0.58207   0.12067   0.72484   0.00000  Uiso   1.00
F560   F     0.49119   0.38505   0.83532   0.00000  Uiso   1.00
F561   F     0.41472   0.22397   0.51619   0.00000  Uiso   1.00
F562   F     0.53291   0.32151   0.97815   0.00000  Uiso   1.00
H563   H     0.42750   0.02754   0.77383   0.00000  Uiso   1.00
H564   H     0.48106   0.16064   0.50110   0.00000  Uiso   1.00
H565   H     0.42459   0.18640   0.64603   0.00000  Uiso   1.00
H566   H     0.57377   0.31256   0.85061   0.00000  Uiso   1.00
H567   H     0.49469   0.47366   0.67619   0.00000  Uiso   1.00
H568   H     0.57499   0.27797   0.63628   0.00000  Uiso   1.00
H569   H     0.46422   0.18664   0.86781   0.00000  Uiso   1.00
H570   H     0.40592   0.15018   0.77010   0.00000  Uiso   1.00
H571   H     0.45633   0.35935   0.64956   0.00000  Uiso   1.00
H572   H     0.59633   0.49221   0.73573   0.00000  Uiso   1.00
H573   H     0.51543   0.01280   0.84723   0.00000  Uiso   1.00
H574   H     0.60403   0.26032   0.50902   0.00000  Uiso   1.00
N575   N     0.50000   0.25001   0.62934   0.00000  Uiso   1.00
N576   N     0.50000   0.24999   0.87065   0.00000  Uiso   1.00
O577   O     0.50000   0.18572   0.79071   0.00000  Uiso   1.00
O578   O     0.49992   0.40450   0.62297   0.00000  Uiso   1.00
O579   O     0.62563   0.04686   0.71134   0.00000  Uiso   1.00
O580   O     0.50144   0.45848   0.88215   0.00000  Uiso   1.00
O581   O     0.63290   0.28782   0.57245   0.00000  Uiso   1.00
O582   O     0.45015   0.13675   0.93654   0.00000  Uiso   1.00
O583   O     0.37264   0.20854   0.59397   0.00000  Uiso   1.00
O584   O     0.56698   0.35323   0.90468   0.00000  Uiso   1.00
O585   O     0.50000   0.31428   0.70928   0.00000  Uiso   1.00
O586   O     0.50000   0.18573   0.70928   0.00000  Uiso   1.00
O587   O     0.50000   0.31427   0.79072   0.00000  Uiso   1.00
O588   O     0.42495   0.25000   0.78132   0.00000  Uiso   1.00
O589   O     0.57505   0.25000   0.71868   0.00000  Uiso   1.00
O590   O     0.42495   0.25000   0.69988   0.00000  Uiso   1.00
O591   O     0.57505   0.25000   0.80011   0.00000  Uiso   1.00
O592   O     0.37609   0.09383   0.78998   0.00000  Uiso   1.00
C593   C     0.83281   0.16524   0.74965   0.00000  Uiso   1.00
C594   C     0.85175   0.28466   0.95054   0.00000  Uiso   1.00
C595   C     0.83625   0.24745   0.52765   0.00000  Uiso   1.00
C596   C     0.83524   0.24681   0.97289   0.00000  Uiso   1.00
C597   C     0.73469   0.24964   0.73759   0.00000  Uiso   1.00
C598   C     0.93199   0.24989   0.76242   0.00000  Uiso   1.00
C599   C     0.67956   0.24849   0.73080   0.00000  Uiso   1.00
C600   C     0.98715   0.25022   0.76928   0.00000  Uiso   1.00
C601   C     0.79292   0.04704   0.76426   0.00000  Uiso   1.00
C602   C     0.83002   0.45467   0.70914   0.00000  Uiso   1.00
C603   C     0.79045   0.09298   0.76293   0.00000  Uiso   1.00
C604   C     0.83087   0.33525   0.74980   0.00000  Uiso   1.00
C605   C     0.82552   0.40869   0.70614   0.00000  Uiso   1.00
C606   C     0.83226   0.11730   0.74919   0.00000  Uiso   1.00
C607   C     0.82780   0.38423   0.74966   0.00000  Uiso   1.00
C608   C     0.87543   0.09595   0.73700   0.00000  Uiso   1.00
C609   C     0.82918   0.40742   0.79430   0.00000  Uiso   1.00
C610   C     0.87824   0.04977   0.73924   0.00000  Uiso   1.00
C611   C     0.83423   0.45371   0.79698   0.00000  Uiso   1.00
C612   C     0.83631   0.02551   0.75312   0.00000  Uiso   1.00
C613   C     0.83509   0.47707   0.75373   0.00000  Uiso   1.00
C614   C     0.74375   0.11494   0.77480   0.00000  Uiso   1.00
C615   C     0.88007   0.26138   0.56115   0.00000  Uiso   1.00
C616   C     0.81496   0.38826   0.65676   0.00000  Uiso   1.00
C617   C     0.92499   0.02707   0.72849   0.00000  Uiso   1.00
C618   C     0.83979   0.47761   0.84476   0.00000  Uiso   1.00
C619   C     0.93080   0.27006   0.54518   0.00000  Uiso   1.00
C620   C     0.80453   0.16664   0.96264   0.00000  Uiso   1.00
C621   C     0.75005   0.20734   0.61487   0.00000  Uiso   1.00
C622   C     0.88960   0.31828   0.88262   0.00000  Uiso   1.00
C623   C     0.81718   0.20994   0.94227   0.00000  Uiso   1.00
C624   C     0.87603   0.26498   0.61131   0.00000  Uiso   1.00
C625   C     0.81367   0.21385   0.89116   0.00000  Uiso   1.00
C626   C     0.79218   0.23291   0.59751   0.00000  Uiso   1.00
C627   C     0.85583   0.28411   0.90050   0.00000  Uiso   1.00
C628   C     0.79160   0.23544   0.54687   0.00000  Uiso   1.00
Cu629  Cu    0.83333   0.25000   0.79821   0.00000  Uiso   1.00
Cu630  Cu    0.83333   0.25001   0.70178   0.00000  Uiso   1.00
F631   F     0.98857   0.24505   0.68424   0.00000  Uiso   1.00
F632   F     0.67822   0.25295   0.81592   0.00000  Uiso   1.00
F633   F     0.91540   0.12067   0.72484   0.00000  Uiso   1.00
F634   F     0.82452   0.38505   0.83532   0.00000  Uiso   1.00
F635   F     0.74806   0.22397   0.51619   0.00000  Uiso   1.00
F636   F     0.86624   0.32151   0.97815   0.00000  Uiso   1.00
H637   H     0.76084   0.02754   0.77383   0.00000  Uiso   1.00
H638   H     0.81439   0.16064   0.50110   0.00000  Uiso   1.00
H639   H     0.75792   0.18640   0.64603   0.00000  Uiso   1.00
H640   H     0.90710   0.31256   0.85061   0.00000  Uiso   1.00
H641   H     0.82802   0.47366   0.67619   0.00000  Uiso   1.00
H642   H     0.90832   0.27797   0.63628   0.00000  Uiso   1.00
H643   H     0.79755   0.18664   0.86781   0.00000  Uiso   1.00
H644   H     0.73926   0.15018   0.77010   0.00000  Uiso   1.00
H645   H     0.78967   0.35935   0.64956   0.00000  Uiso   1.00
H646   H     0.92967   0.49221   0.73573   0.00000  Uiso   1.00
H647   H     0.84876   0.01280   0.84723   0.00000  Uiso   1.00
H648   H     0.93736   0.26032   0.50902   0.00000  Uiso   1.00
N649   N     0.83333   0.25001   0.62934   0.00000  Uiso   1.00
N650   N     0.83333   0.24999   0.87065   0.00000  Uiso   1.00
O651   O     0.83334   0.18572   0.79071   0.00000  Uiso   1.00
O652   O     0.83326   0.40450   0.62297   0.00000  Uiso   1.00
O653   O     0.95897   0.04686   0.71134   0.00000  Uiso   1.00
O654   O     0.83478   0.45848   0.88215   0.00000  Uiso   1.00
O655   O     0.96623   0.28782   0.57245   0.00000  Uiso   1.00
O656   O     0.78348   0.13675   0.93654   0.00000  Uiso   1.00
O657   O     0.70598   0.20854   0.59397   0.00000  Uiso   1.00
O658   O     0.90032   0.35323   0.90468   0.00000  Uiso   1.00
O659   O     0.83333   0.31428   0.70928   0.00000  Uiso   1.00
O660   O     0.83334   0.18573   0.70928   0.00000  Uiso   1.00
O661   O     0.83333   0.31427   0.79072   0.00000  Uiso   1.00
O662   O     0.75828   0.25000   0.78132   0.00000  Uiso   1.00
O663   O     0.90839   0.25000   0.71868   0.00000  Uiso   1.00
O664   O     0.75828   0.25000   0.69988   0.00000  Uiso   1.00
O665   O     0.90839   0.25000   0.80011   0.00000  Uiso   1.00
O666   O     0.70942   0.09383   0.78998   0.00000  Uiso   1.00
C667   C     0.16615   0.66524   0.74965   0.00000  Uiso   1.00
C668   C     0.18509   0.78466   0.95054   0.00000  Uiso   1.00
C669   C     0.16958   0.74745   0.52765   0.00000  Uiso   1.00
C670   C     0.16857   0.74681   0.97289   0.00000  Uiso   1.00
C671   C     0.06802   0.74964   0.73759   0.00000  Uiso   1.00
C672   C     0.26532   0.74989   0.76242   0.00000  Uiso   1.00
C673   C     0.01289   0.74849   0.73080   0.00000  Uiso   1.00
C674   C     0.32048   0.75022   0.76928   0.00000  Uiso   1.00
C675   C     0.12626   0.54704   0.76426   0.00000  Uiso   1.00
C676   C     0.16335   0.95467   0.70914   0.00000  Uiso   1.00
C677   C     0.12378   0.59298   0.76293   0.00000  Uiso   1.00
C678   C     0.16420   0.83525   0.74980   0.00000  Uiso   1.00
C679   C     0.15885   0.90869   0.70614   0.00000  Uiso   1.00
C680   C     0.16559   0.61730   0.74919   0.00000  Uiso   1.00
C681   C     0.16113   0.88423   0.74966   0.00000  Uiso   1.00
C682   C     0.20877   0.59595   0.73700   0.00000  Uiso   1.00
C683   C     0.16251   0.90742   0.79430   0.00000  Uiso   1.00
C684   C     0.21157   0.54977   0.73924   0.00000  Uiso   1.00
C685   C     0.16756   0.95371   0.79698   0.00000  Uiso   1.00
C686   C     0.16964   0.52551   0.75312   0.00000  Uiso   1.00
C687   C     0.16843   0.97707   0.75373   0.00000  Uiso   1.00
C688   C     0.07708   0.61494   0.77480   0.00000  Uiso   1.00
C689   C     0.21340   0.76138   0.56115   0.00000  Uiso   1.00
C690   C     0.14830   0.88826   0.65676   0.00000  Uiso   1.00
C691   C     0.25832   0.52707   0.72849   0.00000  Uiso   1.00
C692   C     0.17312   0.97761   0.84476   0.00000  Uiso   1.00
C693   C     0.26414   0.77006   0.54518   0.00000  Uiso   1.00
C694   C     0.13786   0.66664   0.96264   0.00000  Uiso   1.00
C695   C     0.08338   0.70734   0.61487   0.00000  Uiso   1.00
C696   C     0.22294   0.81828   0.88262   0.00000  Uiso   1.00
C697   C     0.15051   0.70994   0.94227   0.00000  Uiso   1.00
C698   C     0.20936   0.76498   0.61131   0.00000  Uiso   1.00
C699   C     0.14700   0.71385   0.89116   0.00000  Uiso   1.00
C700   C     0.12551   0.73291   0.59751   0.00000  Uiso   1.00
C701   C     0.18916   0.78411   0.90050   0.00000  Uiso   1.00
C702   C     0.12493   0.73544   0.54687   0.00000  Uiso   1.00
Cu703  Cu    0.16667   0.75000   0.79821   0.00000  Uiso   1.00
Cu704  Cu    0.16667   0.75001   0.70178   0.00000  Uiso   1.00
F705   F     0.32191   0.74505   0.68424   0.00000  Uiso   1.00
F706   F     0.01155   0.75295   0.81592   0.00000  Uiso   1.00
F707   F     0.24874   0.62067   0.72484   0.00000  Uiso   1.00
F708   F     0.15785   0.88505   0.83532   0.00000  Uiso   1.00
F709   F     0.08139   0.72397   0.51619   0.00000  Uiso   1.00
F710   F     0.19958   0.82151   0.97815   0.00000  Uiso   1.00
H711   H     0.09417   0.52754   0.77383   0.00000  Uiso   1.00
H712   H     0.14772   0.66064   0.50110   0.00000  Uiso   1.00
H713   H     0.09125   0.68640   0.64603   0.00000  Uiso   1.00
H714   H     0.24044   0.81256   0.85061   0.00000  Uiso   1.00
H715   H     0.16135   0.97366   0.67619   0.00000  Uiso   1.00
H716   H     0.24165   0.77797   0.63628   0.00000  Uiso   1.00
H717   H     0.13089   0.68664   0.86781   0.00000  Uiso   1.00
H718   H     0.07259   0.65018   0.77010   0.00000  Uiso   1.00
H719   H     0.12300   0.85935   0.64956   0.00000  Uiso   1.00
H720   H     0.26300   0.99221   0.73573   0.00000  Uiso   1.00
H721   H     0.18210   0.51280   0.84723   0.00000  Uiso   1.00
H722   H     0.27070   0.76032   0.50902   0.00000  Uiso   1.00
N723   N     0.16667   0.75001   0.62934   0.00000  Uiso   1.00
N724   N     0.16667   0.74999   0.87065   0.00000  Uiso   1.00
O725   O     0.16667   0.68572   0.79071   0.00000  Uiso   1.00
O726   O     0.16659   0.90450   0.62297   0.00000  Uiso   1.00
O727   O     0.29230   0.54686   0.71134   0.00000  Uiso   1.00
O728   O     0.16811   0.95848   0.88215   0.00000  Uiso   1.00
O729   O     0.29957   0.78782   0.57245   0.00000  Uiso   1.00
O730   O     0.11682   0.63675   0.93654   0.00000  Uiso   1.00
O731   O     0.03931   0.70854   0.59397   0.00000  Uiso   1.00
O732   O     0.23365   0.85323   0.90468   0.00000  Uiso   1.00
O733   O     0.16666   0.81428   0.70928   0.00000  Uiso   1.00
O734   O     0.16667   0.68573   0.70928   0.00000  Uiso   1.00
O735   O     0.16666   0.81427   0.79072   0.00000  Uiso   1.00
O736   O     0.09161   0.75000   0.78132   0.00000  Uiso   1.00
O737   O     0.24172   0.75000   0.71868   0.00000  Uiso   1.00
O738   O     0.09161   0.75000   0.69988   0.00000  Uiso   1.00
O739   O     0.24172   0.75000   0.80011   0.00000  Uiso   1.00
O740   O     0.04276   0.59383   0.78998   0.00000  Uiso   1.00
C741   C     0.49948   0.66524   0.74965   0.00000  Uiso   1.00
C742   C     0.51842   0.78466   0.95054   0.00000  Uiso   1.00
C743   C     0.50291   0.74745   0.52765   0.00000  Uiso   1.00
C744   C     0.50191   0.74681   0.97289   0.00000  Uiso   1.00
C745   C     0.40136   0.74964   0.73759   0.00000  Uiso   1.00
C746   C     0.59865   0.74989   0.76242   0.00000  Uiso   1.00
C747   C     0.34623   0.74849   0.73080   0.00000  Uiso   1.00
C748   C     0.65382   0.75022   0.76928   0.00000  Uiso   1.00
C749   C     0.45959   0.54704   0.76426   0.00000  Uiso   1.00
C750   C     0.49668   0.95467   0.70914   0.00000  Uiso   1.00
C751   C     0.45712   0.59298   0.76293   0.00000  Uiso   1.00
C752   C     0.49753   0.83525   0.74980   0.00000  Uiso   1.00
C753   C     0.49219   0.90869   0.70614   0.00000  Uiso   1.00
C754   C     0.49893   0.61730   0.74919   0.00000  Uiso   1.00
C755   C     0.49446   0.88423   0.74966   0.00000  Uiso   1.00
C756   C     0.54210   0.59595   0.73700   0.00000  Uiso   1.00
C757   C     0.49585   0.90742   0.79430   0.00000  Uiso   1.00
C758   C     0.54491   0.54977   0.73924   0.00000  Uiso   1.00
C759   C     0.50089   0.95371   0.79698   0.00000  Uiso   1.00
C760   C     0.50297   0.52551   0.75312   0.00000  Uiso   1.00
C761   C     0.50176   0.97707   0.75373   0.00000  Uiso   1.00
C762   C     0.41041   0.61494   0.77480   0.00000  Uiso   1.00
C763   C     0.54674   0.76138   0.56115   0.00000  Uiso   1.00
C764   C     0.48163   0.88826   0.65676   0.00000  Uiso   1.00
C765   C     0.59165   0.52707   0.72849   0.00000  Uiso   1.00
C766   C     0.50645   0.97761   0.84476   0.00000  Uiso   1.00
C767   C     0.59747   0.77006   0.54518   0.00000  Uiso   1.00
C768   C     0.47119   0.66664   0.96264   0.00000  Uiso   1.00
C769   C     0.41671   0.70734   0.61487   0.00000  Uiso   1.00
C770   C     0.55627   0.81828   0.88262   0.00000  Uiso   1.00
C771   C     0.48385   0.70994   0.94227   0.00000  Uiso   1.00
C772   C     0.54269   0.76498   0.61131   0.00000  Uiso   1.00
C773   C     0.48034   0.71385   0.89116   0.00000  Uiso   1.00
C774   C     0.45885   0.73291   0.59751   0.00000  Uiso   1.00
C775   C     0.52249   0.78411   0.90050   0.00000  Uiso   1.00
C776   C     0.45827   0.73544   0.54687   0.00000  Uiso   1.00
Cu777  Cu    0.50000   0.75000   0.79821   0.00000  Uiso   1.00
Cu778  Cu    0.50000   0.75001   0.70178   0.00000  Uiso   1.00
F779   F     0.65524   0.74505   0.68424   0.00000  Uiso   1.00
F780   F     0.34488   0.75295   0.81592   0.00000  Uiso   1.00
F781   F     0.58207   0.62067   0.72484   0.00000  Uiso   1.00
F782   F     0.49119   0.88505   0.83532   0.00000  Uiso   1.00
F783   F     0.41472   0.72397   0.51619   0.00000  Uiso   1.00
F784   F     0.53291   0.82151   0.97815   0.00000  Uiso   1.00
H785   H     0.42750   0.52754   0.77383   0.00000  Uiso   1.00
H786   H     0.48106   0.66064   0.50110   0.00000  Uiso   1.00
H787   H     0.42459   0.68640   0.64603   0.00000  Uiso   1.00
H788   H     0.57377   0.81256   0.85061   0.00000  Uiso   1.00
H789   H     0.49469   0.97366   0.67619   0.00000  Uiso   1.00
H790   H     0.57499   0.77797   0.63628   0.00000  Uiso   1.00
H791   H     0.46422   0.68664   0.86781   0.00000  Uiso   1.00
H792   H     0.40592   0.65018   0.77010   0.00000  Uiso   1.00
H793   H     0.45633   0.85935   0.64956   0.00000  Uiso   1.00
H794   H     0.59633   0.99221   0.73573   0.00000  Uiso   1.00
H795   H     0.51543   0.51280   0.84723   0.00000  Uiso   1.00
H796   H     0.60403   0.76032   0.50902   0.00000  Uiso   1.00
N797   N     0.50000   0.75001   0.62934   0.00000  Uiso   1.00
N798   N     0.50000   0.74999   0.87065   0.00000  Uiso   1.00
O799   O     0.50000   0.68572   0.79071   0.00000  Uiso   1.00
O800   O     0.49992   0.90450   0.62297   0.00000  Uiso   1.00
O801   O     0.62563   0.54686   0.71134   0.00000  Uiso   1.00
O802   O     0.50144   0.95848   0.88215   0.00000  Uiso   1.00
O803   O     0.63290   0.78782   0.57245   0.00000  Uiso   1.00
O804   O     0.45015   0.63675   0.93654   0.00000  Uiso   1.00
O805   O     0.37264   0.70854   0.59397   0.00000  Uiso   1.00
O806   O     0.56698   0.85323   0.90468   0.00000  Uiso   1.00
O807   O     0.50000   0.81428   0.70928   0.00000  Uiso   1.00
O808   O     0.50000   0.68573   0.70928   0.00000  Uiso   1.00
O809   O     0.50000   0.81427   0.79072   0.00000  Uiso   1.00
O810   O     0.42495   0.75000   0.78132   0.00000  Uiso   1.00
O811   O     0.57505   0.75000   0.71868   0.00000  Uiso   1.00
O812   O     0.42495   0.75000   0.69988   0.00000  Uiso   1.00
O813   O     0.57505   0.75000   0.80011   0.00000  Uiso   1.00
O814   O     0.37609   0.59383   0.78998   0.00000  Uiso   1.00
C815   C     0.83281   0.66524   0.74965   0.00000  Uiso   1.00
C816   C     0.85175   0.78466   0.95054   0.00000  Uiso   1.00
C817   C     0.83625   0.74745   0.52765   0.00000  Uiso   1.00
C818   C     0.83524   0.74681   0.97289   0.00000  Uiso   1.00
C819   C     0.73469   0.74964   0.73759   0.00000  Uiso   1.00
C820   C     0.93199   0.74989   0.76242   0.00000  Uiso   1.00
C821   C     0.67956   0.74849   0.73080   0.00000  Uiso   1.00
C822   C     0.98715   0.75022   0.76928   0.00000  Uiso   1.00
C823   C     0.79292   0.54704   0.76426   0.00000  Uiso   1.00
C824   C     0.83002   0.95467   0.70914   0.00000  Uiso   1.00
C825   C     0.79045   0.59298   0.76293   0.00000  Uiso   1.00
C826   C     0.83087   0.83525   0.74980   0.00000  Uiso   1.00
C827   C     0.82552   0.90869   0.70614   0.00000  Uiso   1.00
C828   C     0.83226   0.61730   0.74919   0.00000  Uiso   1.00
C829   C     0.82780   0.88423   0.74966   0.00000  Uiso   1.00
C830   C     0.87543   0.59595   0.73700   0.00000  Uiso   1.00
C831   C     0.82918   0.90742   0.79430   0.00000  Uiso   1.00
C832   C     0.87824   0.54977   0.73924   0.00000  Uiso   1.00
C833   C     0.83423   0.95371   0.79698   0.00000  Uiso   1.00
C834   C     0.83631   0.52551   0.75312   0.00000  Uiso   1.00
C835   C     0.83509   0.97707   0.75373   0.00000  Uiso   1.00
C836   C     0.74375   0.61494   0.77480   0.00000  Uiso   1.00
C837   C     0.88007   0.76138   0.56115   0.00000  Uiso   1.00
C838   C     0.81496   0.88826   0.65676   0.00000  Uiso   1.00
C839   C     0.92499   0.52707   0.72849   0.00000  Uiso   1.00
C840   C     0.83979   0.97761   0.84476   0.00000  Uiso   1.00
C841   C     0.93080   0.77006   0.54518   0.00000  Uiso   1.00
C842   C     0.80453   0.66664   0.96264   0.00000  Uiso   1.00
C843   C     0.75005   0.70734   0.61487   0.00000  Uiso   1.00
C844   C     0.88960   0.81828   0.88262   0.00000  Uiso   1.00
C845   C     0.81718   0.70994   0.94227   0.00000  Uiso   1.00
C846   C     0.87603   0.76498   0.61131   0.00000  Uiso   1.00
C847   C     0.81367   0.71385   0.89116   0.00000  Uiso   1.00
C848   C     0.79218   0.73291   0.59751   0.00000  Uiso   1.00
C849   C     0.85583   0.78411   0.90050   0.00000  Uiso   1.00
C850   C     0.79160   0.73544   0.54687   0.00000  Uiso   1.00
Cu851  Cu    0.83333   0.75000   0.79821   0.00000  Uiso   1.00
Cu852  Cu    0.83333   0.75001   0.70178   0.00000  Uiso   1.00
F853   F     0.98857   0.74505   0.68424   0.00000  Uiso   1.00
F854   F     0.67822   0.75295   0.81592   0.00000  Uiso   1.00
F855   F     0.91540   0.62067   0.72484   0.00000  Uiso   1.00
F856   F     0.82452   0.88505   0.83532   0.00000  Uiso   1.00
F857   F     0.74806   0.72397   0.51619   0.00000  Uiso   1.00
F858   F     0.86624   0.82151   0.97815   0.00000  Uiso   1.00
H859   H     0.76084   0.52754   0.77383   0.00000  Uiso   1.00
H860   H     0.81439   0.66064   0.50110   0.00000  Uiso   1.00
H861   H     0.75792   0.68640   0.64603   0.00000  Uiso   1.00
H862   H     0.90710   0.81256   0.85061   0.00000  Uiso   1.00
H863   H     0.82802   0.97366   0.67619   0.00000  Uiso   1.00
H864   H     0.90832   0.77797   0.63628   0.00000  Uiso   1.00
H865   H     0.79755   0.68664   0.86781   0.00000  Uiso   1.00
H866   H     0.73926   0.65018   0.77010   0.00000  Uiso   1.00
H867   H     0.78967   0.85935   0.64956   0.00000  Uiso   1.00
H868   H     0.92967   0.99221   0.73573   0.00000  Uiso   1.00
H869   H     0.84876   0.51280   0.84723   0.00000  Uiso   1.00
H870   H     0.93736   0.76032   0.50902   0.00000  Uiso   1.00
N871   N     0.83333   0.75001   0.62934   0.00000  Uiso   1.00
N872   N     0.83333   0.74999   0.87065   0.00000  Uiso   1.00
O873   O     0.83334   0.68572   0.79071   0.00000  Uiso   1.00
O874   O     0.83326   0.90450   0.62297   0.00000  Uiso   1.00
O875   O     0.95897   0.54686   0.71134   0.00000  Uiso   1.00
O876   O     0.83478   0.95848   0.88215   0.00000  Uiso   1.00
O877   O     0.96623   0.78782   0.57245   0.00000  Uiso   1.00
O878   O     0.78348   0.63675   0.93654   0.00000  Uiso   1.00
O879   O     0.70598   0.70854   0.59397   0.00000  Uiso   1.00
O880   O     0.90032   0.85323   0.90468   0.00000  Uiso   1.00
O881   O     0.83333   0.81428   0.70928   0.00000  Uiso   1.00
O882   O     0.83334   0.68573   0.70928   0.00000  Uiso   1.00
O883   O     0.83333   0.81427   0.79072   0.00000  Uiso   1.00
O884   O     0.75828   0.75000   0.78132   0.00000  Uiso   1.00
O885   O     0.90839   0.75000   0.71868   0.00000  Uiso   1.00
O886   O     0.75828   0.75000   0.69988   0.00000  Uiso   1.00
O887   O     0.90839   0.75000   0.80011   0.00000  Uiso   1.00
O888   O     0.70942   0.59383   0.78998   0.00000  Uiso   1.00
loop_
_geom_bond_atom_site_label_1
_geom_bond_atom_site_label_2
_geom_bond_distance
_geom_bond_site_symmetry_2
_ccdc_geom_bond_type
C1     C14     1.451   .     S
C1     O59     1.291   .     A
C1     O68     1.294   .     A
C2     C35     1.413   .     A
C2     C4      1.401   .     A
C2     F44     1.360   .     S
C3     C23     1.424   .     A
C3     C36     1.402   .     A
C3     C448    1.521   1_554 S
C4     C31     1.424   .     A
C4     C447    1.521   .     S
C5     O70     1.284   .     A
C5     C7      1.435   .     S
C5     O72     1.295   .     A
C6     O71     1.285   .     A
C6     O73     1.295   .     A
C6     C8      1.436   .     S
C7     C156    1.350   1_455 S
C7     F187    1.362   1_455 S
C8     C81     1.350   .     S
C8     F114    1.363   .     S
C9     H45     1.085   .     S
C9     C11     1.395   .     A
C9     C20     1.400   .     A
C10    C21     1.394   .     A
C10    H49     1.085   .     S
C10    C13     1.395   .     A
C11    C22     1.488   .     S
C11    C14     1.410   .     A
C12    O69     1.307   .     A
C12    C15     1.487   .     S
C12    O67     1.298   .     A
C13    C15     1.424   .     A
C13    C24     1.486   .     S
C14    C16     1.403   .     A
C15    C17     1.414   .     A
C16    C18     1.404   .     A
C16    F41     1.360   .     S
C17    C19     1.404   .     A
C17    F42     1.356   .     S
C18    C25     1.490   .     S
C18    C20     1.413   .     A
C19    C26     1.492   .     S
C19    C21     1.408   .     A
C20    C243    1.467   1_545 S
C21    C242    1.467   .     S
C22    H52     1.084   .     S
C22    O74     1.221   .     D
C23    C32     1.419   .     A
C23    C27     1.485   .     S
C24    O60     1.222   .     D
C24    H53     1.084   .     S
C25    O61     1.221   .     D
C25    H276    1.084   1_545 S
C26    O62     1.221   .     D
C26    H277    1.084   .     S
C27    O63     1.221   .     D
C27    H56     1.084   .     S
C28    O64     1.221   .     D
C28    C31     1.485   .     S
C28    H490    1.084   .     S
C29    H47     1.081   .     S
C29    O65     1.221   .     D
C29    C34     1.478   .     S
C30    O66     1.221   .     D
C30    C35     1.484   .     S
C30    H48     1.075   .     S
C31    C33     1.420   .     A
C32    H50     1.079   .     S
C32    N57     1.365   .     A
C33    H51     1.081   .     S
C33    N58     1.366   .     A
C34    N57     1.380   .     A
C34    C36     1.412   .     A
C35    N58     1.382   .     A
C36    F43     1.360   .     S
Cu37   O69     1.960   .     S
Cu37   N58     2.018   .     S
Cu37   O70     1.962   .     S
Cu37   O59     1.954   .     S
Cu37   Cu38    2.686   .     S
Cu37   O73     1.968   .     S
Cu38   N57     2.018   .     S
Cu38   O72     1.968   .     S
Cu38   O68     1.960   .     S
Cu38   O67     1.954   .     S
Cu38   O71     1.962   .     S
F39    C81     1.362   .     S
F40    C156    1.363   1_455 S
H46    C472    1.084   1_554 S
H54    C247    1.084   .     S
H55    C248    1.084   1_545 S
C75    C88     1.451   .     S
C75    O133    1.291   .     A
C75    O142    1.294   .     A
C76    C109    1.413   .     A
C76    C78     1.401   .     A
C76    F118    1.360   .     S
C77    C97     1.424   .     A
C77    C110    1.402   .     A
C77    C522    1.521   1_554 S
C78    C105    1.424   .     A
C78    C521    1.521   .     S
C79    O144    1.284   .     A
C79    C81     1.435   .     S
C79    O146    1.295   .     A
C80    O145    1.285   .     A
C80    O147    1.295   .     A
C80    C82     1.436   .     S
C82    C155    1.350   .     S
C82    F188    1.363   .     S
C83    H119    1.085   .     S
C83    C85     1.395   .     A
C83    C94     1.400   .     A
C84    C95     1.394   .     A
C84    H123    1.085   .     S
C84    C87     1.395   .     A
C85    C96     1.488   .     S
C85    C88     1.410   .     A
C86    O143    1.307   .     A
C86    C89     1.487   .     S
C86    O141    1.298   .     A
C87    C89     1.424   .     A
C87    C98     1.486   .     S
C88    C90     1.403   .     A
C89    C91     1.414   .     A
C90    C92     1.404   .     A
C90    F115    1.360   .     S
C91    C93     1.404   .     A
C91    F116    1.356   .     S
C92    C99     1.490   .     S
C92    C94     1.413   .     A
C93    C100    1.492   .     S
C93    C95     1.408   .     A
C94    C317    1.467   1_545 S
C95    C316    1.467   .     S
C96    H126    1.084   .     S
C96    O148    1.221   .     D
C97    C106    1.419   .     A
C97    C101    1.485   .     S
C98    O134    1.222   .     D
C98    H127    1.084   .     S
C99    O135    1.221   .     D
C99    H350    1.084   1_545 S
C100   O136    1.221   .     D
C100   H351    1.084   .     S
C101   O137    1.221   .     D
C101   H130    1.084   .     S
C102   O138    1.221   .     D
C102   C105    1.485   .     S
C102   H564    1.084   .     S
C103   H121    1.081   .     S
C103   O139    1.221   .     D
C103   C108    1.478   .     S
C104   O140    1.221   .     D
C104   C109    1.484   .     S
C104   H122    1.075   .     S
C105   C107    1.420   .     A
C106   H124    1.079   .     S
C106   N131    1.365   .     A
C107   H125    1.081   .     S
C107   N132    1.366   .     A
C108   N131    1.380   .     A
C108   C110    1.412   .     A
C109   N132    1.382   .     A
C110   F117    1.360   .     S
Cu111  O143    1.960   .     S
Cu111  N132    2.018   .     S
Cu111  O144    1.962   .     S
Cu111  O133    1.954   .     S
Cu111  Cu112   2.686   .     S
Cu111  O147    1.968   .     S
Cu112  N131    2.018   .     S
Cu112  O146    1.968   .     S
Cu112  O142    1.960   .     S
Cu112  O141    1.954   .     S
Cu112  O145    1.962   .     S
F113   C155    1.362   .     S
H120   C546    1.084   1_554 S
H128   C321    1.084   .     S
H129   C322    1.084   1_545 S
C149   C162    1.451   .     S
C149   O207    1.291   .     A
C149   O216    1.294   .     A
C150   C183    1.413   .     A
C150   C152    1.401   .     A
C150   F192    1.360   .     S
C151   C171    1.424   .     A
C151   C184    1.402   .     A
C151   C596    1.521   1_554 S
C152   C179    1.424   .     A
C152   C595    1.521   .     S
C153   O218    1.284   .     A
C153   C155    1.435   .     S
C153   O220    1.295   .     A
C154   O219    1.285   .     A
C154   O221    1.295   .     A
C154   C156    1.436   .     S
C156   C7      1.350   1_655 S
C156   F40     1.363   1_655 S
C157   H193    1.085   .     S
C157   C159    1.395   .     A
C157   C168    1.400   .     A
C158   C169    1.394   .     A
C158   H197    1.085   .     S
C158   C161    1.395   .     A
C159   C170    1.488   .     S
C159   C162    1.410   .     A
C160   O217    1.307   .     A
C160   C163    1.487   .     S
C160   O215    1.298   .     A
C161   C163    1.424   .     A
C161   C172    1.486   .     S
C162   C164    1.403   .     A
C163   C165    1.414   .     A
C164   C166    1.404   .     A
C164   F189    1.360   .     S
C165   C167    1.404   .     A
C165   F190    1.356   .     S
C166   C173    1.490   .     S
C166   C168    1.413   .     A
C167   C174    1.492   .     S
C167   C169    1.408   .     A
C168   C391    1.467   1_545 S
C169   C390    1.467   .     S
C170   H200    1.084   .     S
C170   O222    1.221   .     D
C171   C180    1.419   .     A
C171   C175    1.485   .     S
C172   O208    1.222   .     D
C172   H201    1.084   .     S
C173   O209    1.221   .     D
C173   H424    1.084   1_545 S
C174   O210    1.221   .     D
C174   H425    1.084   .     S
C175   O211    1.221   .     D
C175   H204    1.084   .     S
C176   O212    1.221   .     D
C176   C179    1.485   .     S
C176   H638    1.084   .     S
C177   H195    1.081   .     S
C177   O213    1.221   .     D
C177   C182    1.478   .     S
C178   O214    1.221   .     D
C178   C183    1.484   .     S
C178   H196    1.075   .     S
C179   C181    1.420   .     A
C180   H198    1.079   .     S
C180   N205    1.365   .     A
C181   H199    1.081   .     S
C181   N206    1.366   .     A
C182   N205    1.380   .     A
C182   C184    1.412   .     A
C183   N206    1.382   .     A
C184   F191    1.360   .     S
Cu185  O217    1.960   .     S
Cu185  N206    2.018   .     S
Cu185  O218    1.962   .     S
Cu185  O207    1.954   .     S
Cu185  Cu186   2.686   .     S
Cu185  O221    1.968   .     S
Cu186  N205    2.018   .     S
Cu186  O220    1.968   .     S
Cu186  O216    1.960   .     S
Cu186  O215    1.954   .     S
Cu186  O219    1.962   .     S
F187   C7      1.362   1_655 S
H194   C620    1.084   1_554 S
H202   C395    1.084   .     S
H203   C396    1.084   1_545 S
C223   C236    1.451   .     S
C223   O281    1.291   .     A
C223   O290    1.294   .     A
C224   C257    1.413   .     A
C224   C226    1.401   .     A
C224   F266    1.360   .     S
C225   C245    1.424   .     A
C225   C258    1.402   .     A
C225   C670    1.521   1_554 S
C226   C253    1.424   .     A
C226   C669    1.521   .     S
C227   O292    1.284   .     A
C227   C229    1.435   .     S
C227   O294    1.295   .     A
C228   O293    1.285   .     A
C228   O295    1.295   .     A
C228   C230    1.436   .     S
C229   C378    1.350   1_455 S
C229   F409    1.362   1_455 S
C230   C303    1.350   .     S
C230   F336    1.363   .     S
C231   H267    1.085   .     S
C231   C233    1.395   .     A
C231   C242    1.400   .     A
C232   C243    1.394   .     A
C232   H271    1.085   .     S
C232   C235    1.395   .     A
C233   C244    1.488   .     S
C233   C236    1.410   .     A
C234   O291    1.307   .     A
C234   C237    1.487   .     S
C234   O289    1.298   .     A
C235   C237    1.424   .     A
C235   C246    1.486   .     S
C236   C238    1.403   .     A
C237   C239    1.414   .     A
C238   C240    1.404   .     A
C238   F263    1.360   .     S
C239   C241    1.404   .     A
C239   F264    1.356   .     S
C240   C247    1.490   .     S
C240   C242    1.413   .     A
C241   C248    1.492   .     S
C241   C243    1.408   .     A
C243   C20     1.467   1_565 S
C244   H274    1.084   .     S
C244   O296    1.221   .     D
C245   C254    1.419   .     A
C245   C249    1.485   .     S
C246   O282    1.222   .     D
C246   H275    1.084   .     S
C247   O283    1.221   .     D
C248   O284    1.221   .     D
C248   H55     1.084   1_565 S
C249   O285    1.221   .     D
C249   H278    1.084   .     S
C250   O286    1.221   .     D
C250   C253    1.485   .     S
C250   H712    1.084   .     S
C251   H269    1.081   .     S
C251   O287    1.221   .     D
C251   C256    1.478   .     S
C252   O288    1.221   .     D
C252   C257    1.484   .     S
C252   H270    1.075   .     S
C253   C255    1.420   .     A
C254   H272    1.079   .     S
C254   N279    1.365   .     A
C255   H273    1.081   .     S
C255   N280    1.366   .     A
C256   N279    1.380   .     A
C256   C258    1.412   .     A
C257   N280    1.382   .     A
C258   F265    1.360   .     S
Cu259  O291    1.960   .     S
Cu259  N280    2.018   .     S
Cu259  O292    1.962   .     S
Cu259  O281    1.954   .     S
Cu259  Cu260   2.686   .     S
Cu259  O295    1.968   .     S
Cu260  N279    2.018   .     S
Cu260  O294    1.968   .     S
Cu260  O290    1.960   .     S
Cu260  O289    1.954   .     S
Cu260  O293    1.962   .     S
F261   C303    1.362   .     S
F262   C378    1.363   1_455 S
H268   C694    1.084   1_554 S
H276   C25     1.084   1_565 S
C297   C310    1.451   .     S
C297   O355    1.291   .     A
C297   O364    1.294   .     A
C298   C331    1.413   .     A
C298   C300    1.401   .     A
C298   F340    1.360   .     S
C299   C319    1.424   .     A
C299   C332    1.402   .     A
C299   C744    1.521   1_554 S
C300   C327    1.424   .     A
C300   C743    1.521   .     S
C301   O366    1.284   .     A
C301   C303    1.435   .     S
C301   O368    1.295   .     A
C302   O367    1.285   .     A
C302   O369    1.295   .     A
C302   C304    1.436   .     S
C304   C377    1.350   .     S
C304   F410    1.363   .     S
C305   H341    1.085   .     S
C305   C307    1.395   .     A
C305   C316    1.400   .     A
C306   C317    1.394   .     A
C306   H345    1.085   .     S
C306   C309    1.395   .     A
C307   C318    1.488   .     S
C307   C310    1.410   .     A
C308   O365    1.307   .     A
C308   C311    1.487   .     S
C308   O363    1.298   .     A
C309   C311    1.424   .     A
C309   C320    1.486   .     S
C310   C312    1.403   .     A
C311   C313    1.414   .     A
C312   C314    1.404   .     A
C312   F337    1.360   .     S
C313   C315    1.404   .     A
C313   F338    1.356   .     S
C314   C321    1.490   .     S
C314   C316    1.413   .     A
C315   C322    1.492   .     S
C315   C317    1.408   .     A
C317   C94     1.467   1_565 S
C318   H348    1.084   .     S
C318   O370    1.221   .     D
C319   C328    1.419   .     A
C319   C323    1.485   .     S
C320   O356    1.222   .     D
C320   H349    1.084   .     S
C321   O357    1.221   .     D
C322   O358    1.221   .     D
C322   H129    1.084   1_565 S
C323   O359    1.221   .     D
C323   H352    1.084   .     S
C324   O360    1.221   .     D
C324   C327    1.485   .     S
C324   H786    1.084   .     S
C325   H343    1.081   .     S
C325   O361    1.221   .     D
C325   C330    1.478   .     S
C326   O362    1.221   .     D
C326   C331    1.484   .     S
C326   H344    1.075   .     S
C327   C329    1.420   .     A
C328   H346    1.079   .     S
C328   N353    1.365   .     A
C329   H347    1.081   .     S
C329   N354    1.366   .     A
C330   N353    1.380   .     A
C330   C332    1.412   .     A
C331   N354    1.382   .     A
C332   F339    1.360   .     S
Cu333  O365    1.960   .     S
Cu333  N354    2.018   .     S
Cu333  O366    1.962   .     S
Cu333  O355    1.954   .     S
Cu333  Cu334   2.686   .     S
Cu333  O369    1.968   .     S
Cu334  N353    2.018   .     S
Cu334  O368    1.968   .     S
Cu334  O364    1.960   .     S
Cu334  O363    1.954   .     S
Cu334  O367    1.962   .     S
F335   C377    1.362   .     S
H342   C768    1.084   1_554 S
H350   C99     1.084   1_565 S
C371   C384    1.451   .     S
C371   O429    1.291   .     A
C371   O438    1.294   .     A
C372   C405    1.413   .     A
C372   C374    1.401   .     A
C372   F414    1.360   .     S
C373   C393    1.424   .     A
C373   C406    1.402   .     A
C373   C818    1.521   1_554 S
C374   C401    1.424   .     A
C374   C817    1.521   .     S
C375   O440    1.284   .     A
C375   C377    1.435   .     S
C375   O442    1.295   .     A
C376   O441    1.285   .     A
C376   O443    1.295   .     A
C376   C378    1.436   .     S
C378   C229    1.350   1_655 S
C378   F262    1.363   1_655 S
C379   H415    1.085   .     S
C379   C381    1.395   .     A
C379   C390    1.400   .     A
C380   C391    1.394   .     A
C380   H419    1.085   .     S
C380   C383    1.395   .     A
C381   C392    1.488   .     S
C381   C384    1.410   .     A
C382   O439    1.307   .     A
C382   C385    1.487   .     S
C382   O437    1.298   .     A
C383   C385    1.424   .     A
C383   C394    1.486   .     S
C384   C386    1.403   .     A
C385   C387    1.414   .     A
C386   C388    1.404   .     A
C386   F411    1.360   .     S
C387   C389    1.404   .     A
C387   F412    1.356   .     S
C388   C395    1.490   .     S
C388   C390    1.413   .     A
C389   C396    1.492   .     S
C389   C391    1.408   .     A
C391   C168    1.467   1_565 S
C392   H422    1.084   .     S
C392   O444    1.221   .     D
C393   C402    1.419   .     A
C393   C397    1.485   .     S
C394   O430    1.222   .     D
C394   H423    1.084   .     S
C395   O431    1.221   .     D
C396   O432    1.221   .     D
C396   H203    1.084   1_565 S
C397   O433    1.221   .     D
C397   H426    1.084   .     S
C398   O434    1.221   .     D
C398   C401    1.485   .     S
C398   H860    1.084   .     S
C399   H417    1.081   .     S
C399   O435    1.221   .     D
C399   C404    1.478   .     S
C400   O436    1.221   .     D
C400   C405    1.484   .     S
C400   H418    1.075   .     S
C401   C403    1.420   .     A
C402   H420    1.079   .     S
C402   N427    1.365   .     A
C403   H421    1.081   .     S
C403   N428    1.366   .     A
C404   N427    1.380   .     A
C404   C406    1.412   .     A
C405   N428    1.382   .     A
C406   F413    1.360   .     S
Cu407  O439    1.960   .     S
Cu407  N428    2.018   .     S
Cu407  O440    1.962   .     S
Cu407  O429    1.954   .     S
Cu407  Cu408   2.686   .     S
Cu407  O443    1.968   .     S
Cu408  N427    2.018   .     S
Cu408  O442    1.968   .     S
Cu408  O438    1.960   .     S
Cu408  O437    1.954   .     S
Cu408  O441    1.962   .     S
F409   C229    1.362   1_655 S
H416   C842    1.084   1_554 S
H424   C173    1.084   1_565 S
C445   C458    1.451   .     S
C445   O503    1.291   .     A
C445   O512    1.294   .     A
C446   C479    1.413   .     A
C446   C448    1.401   .     A
C446   F488    1.360   .     S
C447   C467    1.424   .     A
C447   C480    1.402   .     A
C448   C475    1.424   .     A
C448   C3      1.521   1_556 S
C449   O514    1.284   .     A
C449   C451    1.435   .     S
C449   O516    1.295   .     A
C450   O515    1.285   .     A
C450   O517    1.295   .     A
C450   C452    1.436   .     S
C451   C600    1.350   1_455 S
C451   F631    1.362   1_455 S
C452   C525    1.350   .     S
C452   F558    1.363   .     S
C453   H489    1.085   .     S
C453   C455    1.395   .     A
C453   C464    1.400   .     A
C454   C465    1.394   .     A
C454   H493    1.085   .     S
C454   C457    1.395   .     A
C455   C466    1.488   .     S
C455   C458    1.410   .     A
C456   O513    1.307   .     A
C456   C459    1.487   .     S
C456   O511    1.298   .     A
C457   C459    1.424   .     A
C457   C468    1.486   .     S
C458   C460    1.403   .     A
C459   C461    1.414   .     A
C460   C462    1.404   .     A
C460   F485    1.360   .     S
C461   C463    1.404   .     A
C461   F486    1.356   .     S
C462   C469    1.490   .     S
C462   C464    1.413   .     A
C463   C470    1.492   .     S
C463   C465    1.408   .     A
C464   C687    1.467   1_545 S
C465   C686    1.467   .     S
C466   H496    1.084   .     S
C466   O518    1.221   .     D
C467   C476    1.419   .     A
C467   C471    1.485   .     S
C468   O504    1.222   .     D
C468   H497    1.084   .     S
C469   O505    1.221   .     D
C469   H720    1.084   1_545 S
C470   O506    1.221   .     D
C470   H721    1.084   .     S
C471   O507    1.221   .     D
C471   H500    1.084   .     S
C472   O508    1.221   .     D
C472   C475    1.485   .     S
C472   H46     1.084   1_556 S
C473   H491    1.081   .     S
C473   O509    1.221   .     D
C473   C478    1.478   .     S
C474   O510    1.221   .     D
C474   C479    1.484   .     S
C474   H492    1.075   .     S
C475   C477    1.420   .     A
C476   H494    1.079   .     S
C476   N501    1.365   .     A
C477   H495    1.081   .     S
C477   N502    1.366   .     A
C478   N501    1.380   .     A
C478   C480    1.412   .     A
C479   N502    1.382   .     A
C480   F487    1.360   .     S
Cu481  O513    1.960   .     S
Cu481  N502    2.018   .     S
Cu481  O514    1.962   .     S
Cu481  O503    1.954   .     S
Cu481  Cu482   2.686   .     S
Cu481  O517    1.968   .     S
Cu482  N501    2.018   .     S
Cu482  O516    1.968   .     S
Cu482  O512    1.960   .     S
Cu482  O511    1.954   .     S
Cu482  O515    1.962   .     S
F483   C525    1.362   .     S
F484   C600    1.363   1_455 S
H498   C691    1.084   .     S
H499   C692    1.084   1_545 S
C519   C532    1.451   .     S
C519   O577    1.291   .     A
C519   O586    1.294   .     A
C520   C553    1.413   .     A
C520   C522    1.401   .     A
C520   F562    1.360   .     S
C521   C541    1.424   .     A
C521   C554    1.402   .     A
C522   C549    1.424   .     A
C522   C77     1.521   1_556 S
C523   O588    1.284   .     A
C523   C525    1.435   .     S
C523   O590    1.295   .     A
C524   O589    1.285   .     A
C524   O591    1.295   .     A
C524   C526    1.436   .     S
C526   C599    1.350   .     S
C526   F632    1.363   .     S
C527   H563    1.085   .     S
C527   C529    1.395   .     A
C527   C538    1.400   .     A
C528   C539    1.394   .     A
C528   H567    1.085   .     S
C528   C531    1.395   .     A
C529   C540    1.488   .     S
C529   C532    1.410   .     A
C530   O587    1.307   .     A
C530   C533    1.487   .     S
C530   O585    1.298   .     A
C531   C533    1.424   .     A
C531   C542    1.486   .     S
C532   C534    1.403   .     A
C533   C535    1.414   .     A
C534   C536    1.404   .     A
C534   F559    1.360   .     S
C535   C537    1.404   .     A
C535   F560    1.356   .     S
C536   C543    1.490   .     S
C536   C538    1.413   .     A
C537   C544    1.492   .     S
C537   C539    1.408   .     A
C538   C761    1.467   1_545 S
C539   C760    1.467   .     S
C540   H570    1.084   .     S
C540   O592    1.221   .     D
C541   C550    1.419   .     A
C541   C545    1.485   .     S
C542   O578    1.222   .     D
C542   H571    1.084   .     S
C543   O579    1.221   .     D
C543   H794    1.084   1_545 S
C544   O580    1.221   .     D
C544   H795    1.084   .     S
C545   O581    1.221   .     D
C545   H574    1.084   .     S
C546   O582    1.221   .     D
C546   C549    1.485   .     S
C546   H120    1.084   1_556 S
C547   H565    1.081   .     S
C547   O583    1.221   .     D
C547   C552    1.478   .     S
C548   O584    1.221   .     D
C548   C553    1.484   .     S
C548   H566    1.075   .     S
C549   C551    1.420   .     A
C550   H568    1.079   .     S
C550   N575    1.365   .     A
C551   H569    1.081   .     S
C551   N576    1.366   .     A
C552   N575    1.380   .     A
C552   C554    1.412   .     A
C553   N576    1.382   .     A
C554   F561    1.360   .     S
Cu555  O587    1.960   .     S
Cu555  N576    2.018   .     S
Cu555  O588    1.962   .     S
Cu555  O577    1.954   .     S
Cu555  Cu556   2.686   .     S
Cu555  O591    1.968   .     S
Cu556  N575    2.018   .     S
Cu556  O590    1.968   .     S
Cu556  O586    1.960   .     S
Cu556  O585    1.954   .     S
Cu556  O589    1.962   .     S
F557   C599    1.362   .     S
H572   C765    1.084   .     S
H573   C766    1.084   1_545 S
C593   C606    1.451   .     S
C593   O651    1.291   .     A
C593   O660    1.294   .     A
C594   C627    1.413   .     A
C594   C596    1.401   .     A
C594   F636    1.360   .     S
C595   C615    1.424   .     A
C595   C628    1.402   .     A
C596   C623    1.424   .     A
C596   C151    1.521   1_556 S
C597   O662    1.284   .     A
C597   C599    1.435   .     S
C597   O664    1.295   .     A
C598   O663    1.285   .     A
C598   O665    1.295   .     A
C598   C600    1.436   .     S
C600   C451    1.350   1_655 S
C600   F484    1.363   1_655 S
C601   H637    1.085   .     S
C601   C603    1.395   .     A
C601   C612    1.400   .     A
C602   C613    1.394   .     A
C602   H641    1.085   .     S
C602   C605    1.395   .     A
C603   C614    1.488   .     S
C603   C606    1.410   .     A
C604   O661    1.307   .     A
C604   C607    1.487   .     S
C604   O659    1.298   .     A
C605   C607    1.424   .     A
C605   C616    1.486   .     S
C606   C608    1.403   .     A
C607   C609    1.414   .     A
C608   C610    1.404   .     A
C608   F633    1.360   .     S
C609   C611    1.404   .     A
C609   F634    1.356   .     S
C610   C617    1.490   .     S
C610   C612    1.413   .     A
C611   C618    1.492   .     S
C611   C613    1.408   .     A
C612   C835    1.467   1_545 S
C613   C834    1.467   .     S
C614   H644    1.084   .     S
C614   O666    1.221   .     D
C615   C624    1.419   .     A
C615   C619    1.485   .     S
C616   O652    1.222   .     D
C616   H645    1.084   .     S
C617   O653    1.221   .     D
C617   H868    1.084   1_545 S
C618   O654    1.221   .     D
C618   H869    1.084   .     S
C619   O655    1.221   .     D
C619   H648    1.084   .     S
C620   O656    1.221   .     D
C620   C623    1.485   .     S
C620   H194    1.084   1_556 S
C621   H639    1.081   .     S
C621   O657    1.221   .     D
C621   C626    1.478   .     S
C622   O658    1.221   .     D
C622   C627    1.484   .     S
C622   H640    1.075   .     S
C623   C625    1.420   .     A
C624   H642    1.079   .     S
C624   N649    1.365   .     A
C625   H643    1.081   .     S
C625   N650    1.366   .     A
C626   N649    1.380   .     A
C626   C628    1.412   .     A
C627   N650    1.382   .     A
C628   F635    1.360   .     S
Cu629  O661    1.960   .     S
Cu629  N650    2.018   .     S
Cu629  O662    1.962   .     S
Cu629  O651    1.954   .     S
Cu629  Cu630   2.686   .     S
Cu629  O665    1.968   .     S
Cu630  N649    2.018   .     S
Cu630  O664    1.968   .     S
Cu630  O660    1.960   .     S
Cu630  O659    1.954   .     S
Cu630  O663    1.962   .     S
F631   C451    1.362   1_655 S
H646   C839    1.084   .     S
H647   C840    1.084   1_545 S
C667   C680    1.451   .     S
C667   O725    1.291   .     A
C667   O734    1.294   .     A
C668   C701    1.413   .     A
C668   C670    1.401   .     A
C668   F710    1.360   .     S
C669   C689    1.424   .     A
C669   C702    1.402   .     A
C670   C697    1.424   .     A
C670   C225    1.521   1_556 S
C671   O736    1.284   .     A
C671   C673    1.435   .     S
C671   O738    1.295   .     A
C672   O737    1.285   .     A
C672   O739    1.295   .     A
C672   C674    1.436   .     S
C673   C822    1.350   1_455 S
C673   F853    1.362   1_455 S
C674   C747    1.350   .     S
C674   F780    1.363   .     S
C675   H711    1.085   .     S
C675   C677    1.395   .     A
C675   C686    1.400   .     A
C676   C687    1.394   .     A
C676   H715    1.085   .     S
C676   C679    1.395   .     A
C677   C688    1.488   .     S
C677   C680    1.410   .     A
C678   O735    1.307   .     A
C678   C681    1.487   .     S
C678   O733    1.298   .     A
C679   C681    1.424   .     A
C679   C690    1.486   .     S
C680   C682    1.403   .     A
C681   C683    1.414   .     A
C682   C684    1.404   .     A
C682   F707    1.360   .     S
C683   C685    1.404   .     A
C683   F708    1.356   .     S
C684   C691    1.490   .     S
C684   C686    1.413   .     A
C685   C692    1.492   .     S
C685   C687    1.408   .     A
C687   C464    1.467   1_565 S
C688   H718    1.084   .     S
C688   O740    1.221   .     D
C689   C698    1.419   .     A
C689   C693    1.485   .     S
C690   O726    1.222   .     D
C690   H719    1.084   .     S
C691   O727    1.221   .     D
C692   O728    1.221   .     D
C692   H499    1.084   1_565 S
C693   O729    1.221   .     D
C693   H722    1.084   .     S
C694   O730    1.221   .     D
C694   C697    1.485   .     S
C694   H268    1.084   1_556 S
C695   H713    1.081   .     S
C695   O731    1.221   .     D
C695   C700    1.478   .     S
C696   O732    1.221   .     D
C696   C701    1.484   .     S
C696   H714    1.075   .     S
C697   C699    1.420   .     A
C698   H716    1.079   .     S
C698   N723    1.365   .     A
C699   H717    1.081   .     S
C699   N724    1.366   .     A
C700   N723    1.380   .     A
C700   C702    1.412   .     A
C701   N724    1.382   .     A
C702   F709    1.360   .     S
Cu703  O735    1.960   .     S
Cu703  N724    2.018   .     S
Cu703  O736    1.962   .     S
Cu703  O725    1.954   .     S
Cu703  Cu704   2.686   .     S
Cu703  O739    1.968   .     S
Cu704  N723    2.018   .     S
Cu704  O738    1.968   .     S
Cu704  O734    1.960   .     S
Cu704  O733    1.954   .     S
Cu704  O737    1.962   .     S
F705   C747    1.362   .     S
F706   C822    1.363   1_455 S
H720   C469    1.084   1_565 S
C741   C754    1.451   .     S
C741   O799    1.291   .     A
C741   O808    1.294   .     A
C742   C775    1.413   .     A
C742   C744    1.401   .     A
C742   F784    1.360   .     S
C743   C763    1.424   .     A
C743   C776    1.402   .     A
C744   C771    1.424   .     A
C744   C299    1.521   1_556 S
C745   O810    1.284   .     A
C745   C747    1.435   .     S
C745   O812    1.295   .     A
C746   O811    1.285   .     A
C746   O813    1.295   .     A
C746   C748    1.436   .     S
C748   C821    1.350   .     S
C748   F854    1.363   .     S
C749   H785    1.085   .     S
C749   C751    1.395   .     A
C749   C760    1.400   .     A
C750   C761    1.394   .     A
C750   H789    1.085   .     S
C750   C753    1.395   .     A
C751   C762    1.488   .     S
C751   C754    1.410   .     A
C752   O809    1.307   .     A
C752   C755    1.487   .     S
C752   O807    1.298   .     A
C753   C755    1.424   .     A
C753   C764    1.486   .     S
C754   C756    1.403   .     A
C755   C757    1.414   .     A
C756   C758    1.404   .     A
C756   F781    1.360   .     S
C757   C759    1.404   .     A
C757   F782    1.356   .     S
C758   C765    1.490   .     S
C758   C760    1.413   .     A
C759   C766    1.492   .     S
C759   C761    1.408   .     A
C761   C538    1.467   1_565 S
C762   H792    1.084   .     S
C762   O814    1.221   .     D
C763   C772    1.419   .     A
C763   C767    1.485   .     S
C764   O800    1.222   .     D
C764   H793    1.084   .     S
C765   O801    1.221   .     D
C766   O802    1.221   .     D
C766   H573    1.084   1_565 S
C767   O803    1.221   .     D
C767   H796    1.084   .     S
C768   O804    1.221   .     D
C768   C771    1.485   .     S
C768   H342    1.084   1_556 S
C769   H787    1.081   .     S
C769   O805    1.221   .     D
C769   C774    1.478   .     S
C770   O806    1.221   .     D
C770   C775    1.484   .     S
C770   H788    1.075   .     S
C771   C773    1.420   .     A
C772   H790    1.079   .     S
C772   N797    1.365   .     A
C773   H791    1.081   .     S
C773   N798    1.366   .     A
C774   N797    1.380   .     A
C774   C776    1.412   .     A
C775   N798    1.382   .     A
C776   F783    1.360   .     S
Cu777  O809    1.960   .     S
Cu777  N798    2.018   .     S
Cu777  O810    1.962   .     S
Cu777  O799    1.954   .     S
Cu777  Cu778   2.686   .     S
Cu777  O813    1.968   .     S
Cu778  N797    2.018   .     S
Cu778  O812    1.968   .     S
Cu778  O808    1.960   .     S
Cu778  O807    1.954   .     S
Cu778  O811    1.962   .     S
F779   C821    1.362   .     S
H794   C543    1.084   1_565 S
C815   C828    1.451   .     S
C815   O873    1.291   .     A
C815   O882    1.294   .     A
C816   C849    1.413   .     A
C816   C818    1.401   .     A
C816   F858    1.360   .     S
C817   C837    1.424   .     A
C817   C850    1.402   .     A
C818   C845    1.424   .     A
C818   C373    1.521   1_556 S
C819   O884    1.284   .     A
C819   C821    1.435   .     S
C819   O886    1.295   .     A
C820   O885    1.285   .     A
C820   O887    1.295   .     A
C820   C822    1.436   .     S
C822   C673    1.350   1_655 S
C822   F706    1.363   1_655 S
C823   H859    1.085   .     S
C823   C825    1.395   .     A
C823   C834    1.400   .     A
C824   C835    1.394   .     A
C824   H863    1.085   .     S
C824   C827    1.395   .     A
C825   C836    1.488   .     S
C825   C828    1.410   .     A
C826   O883    1.307   .     A
C826   C829    1.487   .     S
C826   O881    1.298   .     A
C827   C829    1.424   .     A
C827   C838    1.486   .     S
C828   C830    1.403   .     A
C829   C831    1.414   .     A
C830   C832    1.404   .     A
C830   F855    1.360   .     S
C831   C833    1.404   .     A
C831   F856    1.356   .     S
C832   C839    1.490   .     S
C832   C834    1.413   .     A
C833   C840    1.492   .     S
C833   C835    1.408   .     A
C835   C612    1.467   1_565 S
C836   H866    1.084   .     S
C836   O888    1.221   .     D
C837   C846    1.419   .     A
C837   C841    1.485   .     S
C838   O874    1.222   .     D
C838   H867    1.084   .     S
C839   O875    1.221   .     D
C840   O876    1.221   .     D
C840   H647    1.084   1_565 S
C841   O877    1.221   .     D
C841   H870    1.084   .     S
C842   O878    1.221   .     D
C842   C845    1.485   .     S
C842   H416    1.084   1_556 S
C843   H861    1.081   .     S
C843   O879    1.221   .     D
C843   C848    1.478   .     S
C844   O880    1.221   .     D
C844   C849    1.484   .     S
C844   H862    1.075   .     S
C845   C847    1.420   .     A
C846   H864    1.079   .     S
C846   N871    1.365   .     A
C847   H865    1.081   .     S
C847   N872    1.366   .     A
C848   N871    1.380   .     A
C848   C850    1.412   .     A
C849   N872    1.382   .     A
C850   F857    1.360   .     S
Cu851  O883    1.960   .     S
Cu851  N872    2.018   .     S
Cu851  O884    1.962   .     S
Cu851  O873    1.954   .     S
Cu851  Cu852   2.686   .     S
Cu851  O887    1.968   .     S
Cu852  N871    2.018   .     S
Cu852  O886    1.968   .     S
Cu852  O882    1.960   .     S
Cu852  O881    1.954   .     S
Cu852  O885    1.962   .     S
F853   C673    1.362   1_655 S
H868   C617    1.084   1_565 S
