data_str_m2_o1_o10_pcu_sym.121
_audit_creation_date              2020-01-03
_audit_creation_method            'Materials Studio'
_symmetry_space_group_name_H-M    'P1'
_symmetry_Int_Tables_number       1
_symmetry_cell_setting            triclinic
loop_
_symmetry_equiv_pos_as_xyz
  x,y,z
_cell_length_a                    26.3372
_cell_length_b                    32.9917
_cell_length_c                    28.8155
_cell_angle_alpha                 89.3467
_cell_angle_beta                  97.3645
_cell_angle_gamma                 92.6133
loop_
_atom_site_label
_atom_site_type_symbol
_atom_site_fract_x
_atom_site_fract_y
_atom_site_fract_z
_atom_site_U_iso_or_equiv
_atom_site_adp_type
_atom_site_occupancy
O1     O     0.16666   0.10655   0.20625   0.00000  Uiso   1.00
O2     O     0.16667   0.22678   0.12709   0.00000  Uiso   1.00
O3     O     0.16666   0.10654   0.12706   0.00000  Uiso   1.00
O4     O     0.16667   0.22679   0.20628   0.00000  Uiso   1.00
C5     C     0.16861   0.08750   0.16716   0.00000  Uiso   1.00
C6     C     0.16472   0.24583   0.16617   0.00000  Uiso   1.00
O7     O     0.09161   0.16667   0.19712   0.00000  Uiso   1.00
O8     O     0.24172   0.16666   0.13621   0.00000  Uiso   1.00
O9     O     0.09161   0.16666   0.11793   0.00000  Uiso   1.00
O10    O     0.24172   0.16667   0.21540   0.00000  Uiso   1.00
C11    C     0.06818   0.16578   0.15513   0.00000  Uiso   1.00
C12    C     0.26515   0.16755   0.17820   0.00000  Uiso   1.00
Cu13   Cu    0.16667   0.16667   0.21355   0.00000  Uiso   1.00
Cu14   Cu    0.16667   0.16666   0.11978   0.00000  Uiso   1.00
N15    N     0.16668   0.16668   0.28403   0.00000  Uiso   1.00
N16    N     0.16665   0.16666   0.04931   0.00000  Uiso   1.00
C17    C     0.01353   0.15815   0.15112   0.00000  Uiso   1.00
C18    C     0.31980   0.17518   0.18221   0.00000  Uiso   1.00
C19    C     0.17641   0.02196   0.12631   0.00000  Uiso   1.00
C20    C     0.15693   0.31137   0.20703   0.00000  Uiso   1.00
C21    C     0.17063   0.31300   0.12460   0.00000  Uiso   1.00
C22    C     0.16271   0.02033   0.20873   0.00000  Uiso   1.00
C23    C     0.16266   0.29054   0.16546   0.00000  Uiso   1.00
C24    C     0.17067   0.04279   0.16787   0.00000  Uiso   1.00
C25    C     0.12866   0.14617   0.02037   0.00000  Uiso   1.00
C26    C     0.20467   0.18716   0.31296   0.00000  Uiso   1.00
C27    C     0.12930   0.14559   0.30454   0.00000  Uiso   1.00
C28    C     0.20404   0.18774   0.02880   0.00000  Uiso   1.00
N29    N     0.32547   0.12527   0.12153   0.00000  Uiso   1.00
O30    O     0.29951   0.13278   0.08112   0.00000  Uiso   1.00
O31    O     0.00790   0.08886   0.13047   0.00000  Uiso   1.00
N32    N     0.00786   0.20806   0.21181   0.00000  Uiso   1.00
O33    O     0.03382   0.20055   0.25221   0.00000  Uiso   1.00
O34    O     0.32544   0.24447   0.20286   0.00000  Uiso   1.00
N35    N     0.19015   0.04333   0.08569   0.00000  Uiso   1.00
O36    O     0.23531   0.06123   0.08714   0.00000  Uiso   1.00
O37    O     0.16136   0.03956   0.04563   0.00000  Uiso   1.00
N38    N     0.14319   0.29000   0.24765   0.00000  Uiso   1.00
O39    O     0.09802   0.27210   0.24620   0.00000  Uiso   1.00
O40    O     0.17198   0.29377   0.28770   0.00000  Uiso   1.00
N41    N     0.17288   0.29346   0.08069   0.00000  Uiso   1.00
O42    O     0.13111   0.27720   0.05801   0.00000  Uiso   1.00
O43    O     0.21273   0.30012   0.05878   0.00000  Uiso   1.00
N44    N     0.16045   0.03987   0.25265   0.00000  Uiso   1.00
O45    O     0.20222   0.05613   0.27532   0.00000  Uiso   1.00
O46    O     0.12060   0.03321   0.27456   0.00000  Uiso   1.00
N47    N     0.08515   0.12795   0.03867   0.00000  Uiso   1.00
O48    O     0.04022   0.14176   0.02494   0.00000  Uiso   1.00
O49    O     0.08814   0.09295   0.05968   0.00000  Uiso   1.00
N50    N     0.24819   0.20538   0.29466   0.00000  Uiso   1.00
O51    O     0.29312   0.19158   0.30840   0.00000  Uiso   1.00
O52    O     0.24519   0.24038   0.27365   0.00000  Uiso   1.00
Cl53   Cl    0.08198   0.11515   0.27091   0.00000  Uiso   1.00
Cl54   Cl    0.25136   0.21818   0.06242   0.00000  Uiso   1.00
O55    O     0.50000   0.10655   0.20625   0.00000  Uiso   1.00
O56    O     0.50000   0.22678   0.12709   0.00000  Uiso   1.00
O57    O     0.50000   0.10654   0.12706   0.00000  Uiso   1.00
O58    O     0.50000   0.22679   0.20628   0.00000  Uiso   1.00
C59    C     0.50194   0.08750   0.16716   0.00000  Uiso   1.00
C60    C     0.49806   0.24583   0.16617   0.00000  Uiso   1.00
O61    O     0.42495   0.16667   0.19712   0.00000  Uiso   1.00
O62    O     0.57505   0.16666   0.13621   0.00000  Uiso   1.00
O63    O     0.42494   0.16666   0.11793   0.00000  Uiso   1.00
O64    O     0.57506   0.16667   0.21540   0.00000  Uiso   1.00
C65    C     0.40152   0.16578   0.15513   0.00000  Uiso   1.00
C66    C     0.59848   0.16755   0.17820   0.00000  Uiso   1.00
Cu67   Cu    0.50000   0.16667   0.21355   0.00000  Uiso   1.00
Cu68   Cu    0.50000   0.16666   0.11978   0.00000  Uiso   1.00
N69    N     0.50001   0.16668   0.28403   0.00000  Uiso   1.00
N70    N     0.49999   0.16666   0.04931   0.00000  Uiso   1.00
C71    C     0.34687   0.15815   0.15112   0.00000  Uiso   1.00
C72    C     0.65313   0.17518   0.18221   0.00000  Uiso   1.00
C73    C     0.50974   0.02196   0.12631   0.00000  Uiso   1.00
C74    C     0.49026   0.31137   0.20703   0.00000  Uiso   1.00
C75    C     0.50396   0.31300   0.12460   0.00000  Uiso   1.00
C76    C     0.49604   0.02033   0.20873   0.00000  Uiso   1.00
C77    C     0.49600   0.29054   0.16546   0.00000  Uiso   1.00
C78    C     0.50400   0.04279   0.16787   0.00000  Uiso   1.00
C79    C     0.46199   0.14617   0.02037   0.00000  Uiso   1.00
C80    C     0.53801   0.18716   0.31296   0.00000  Uiso   1.00
C81    C     0.46263   0.14559   0.30454   0.00000  Uiso   1.00
C82    C     0.53737   0.18774   0.02880   0.00000  Uiso   1.00
N83    N     0.65881   0.12527   0.12153   0.00000  Uiso   1.00
O84    O     0.63285   0.13278   0.08112   0.00000  Uiso   1.00
O85    O     0.34123   0.08886   0.13047   0.00000  Uiso   1.00
N86    N     0.34119   0.20806   0.21181   0.00000  Uiso   1.00
O87    O     0.36715   0.20055   0.25221   0.00000  Uiso   1.00
O88    O     0.65877   0.24447   0.20286   0.00000  Uiso   1.00
N89    N     0.52348   0.04333   0.08569   0.00000  Uiso   1.00
O90    O     0.56865   0.06123   0.08714   0.00000  Uiso   1.00
O91    O     0.49469   0.03956   0.04563   0.00000  Uiso   1.00
N92    N     0.47652   0.29000   0.24765   0.00000  Uiso   1.00
O93    O     0.43135   0.27210   0.24620   0.00000  Uiso   1.00
O94    O     0.50531   0.29377   0.28770   0.00000  Uiso   1.00
N95    N     0.50622   0.29346   0.08069   0.00000  Uiso   1.00
O96    O     0.46445   0.27720   0.05801   0.00000  Uiso   1.00
O97    O     0.54606   0.30012   0.05878   0.00000  Uiso   1.00
N98    N     0.49378   0.03987   0.25265   0.00000  Uiso   1.00
O99    O     0.53555   0.05613   0.27532   0.00000  Uiso   1.00
O100   O     0.45393   0.03321   0.27456   0.00000  Uiso   1.00
N101   N     0.41848   0.12795   0.03867   0.00000  Uiso   1.00
O102   O     0.37355   0.14176   0.02494   0.00000  Uiso   1.00
O103   O     0.42148   0.09295   0.05968   0.00000  Uiso   1.00
N104   N     0.58152   0.20538   0.29466   0.00000  Uiso   1.00
O105   O     0.62645   0.19158   0.30840   0.00000  Uiso   1.00
O106   O     0.57852   0.24038   0.27365   0.00000  Uiso   1.00
Cl107  Cl    0.41531   0.11515   0.27091   0.00000  Uiso   1.00
Cl108  Cl    0.58469   0.21818   0.06242   0.00000  Uiso   1.00
O109   O     0.83333   0.10655   0.20625   0.00000  Uiso   1.00
O110   O     0.83334   0.22678   0.12709   0.00000  Uiso   1.00
O111   O     0.83333   0.10654   0.12706   0.00000  Uiso   1.00
O112   O     0.83334   0.22679   0.20628   0.00000  Uiso   1.00
C113   C     0.83528   0.08750   0.16716   0.00000  Uiso   1.00
C114   C     0.83139   0.24583   0.16617   0.00000  Uiso   1.00
O115   O     0.75828   0.16667   0.19712   0.00000  Uiso   1.00
O116   O     0.90839   0.16666   0.13621   0.00000  Uiso   1.00
O117   O     0.75828   0.16666   0.11793   0.00000  Uiso   1.00
O118   O     0.90839   0.16667   0.21540   0.00000  Uiso   1.00
C119   C     0.73485   0.16578   0.15513   0.00000  Uiso   1.00
C120   C     0.93182   0.16755   0.17820   0.00000  Uiso   1.00
Cu121  Cu    0.83333   0.16667   0.21355   0.00000  Uiso   1.00
Cu122  Cu    0.83333   0.16666   0.11978   0.00000  Uiso   1.00
N123   N     0.83335   0.16668   0.28403   0.00000  Uiso   1.00
N124   N     0.83332   0.16666   0.04931   0.00000  Uiso   1.00
C125   C     0.68020   0.15815   0.15112   0.00000  Uiso   1.00
C126   C     0.98647   0.17518   0.18221   0.00000  Uiso   1.00
C127   C     0.84307   0.02196   0.12631   0.00000  Uiso   1.00
C128   C     0.82359   0.31137   0.20703   0.00000  Uiso   1.00
C129   C     0.83729   0.31300   0.12460   0.00000  Uiso   1.00
C130   C     0.82937   0.02033   0.20873   0.00000  Uiso   1.00
C131   C     0.82933   0.29054   0.16546   0.00000  Uiso   1.00
C132   C     0.83734   0.04279   0.16787   0.00000  Uiso   1.00
C133   C     0.79533   0.14617   0.02037   0.00000  Uiso   1.00
C134   C     0.87134   0.18716   0.31296   0.00000  Uiso   1.00
C135   C     0.79596   0.14559   0.30454   0.00000  Uiso   1.00
C136   C     0.87070   0.18774   0.02880   0.00000  Uiso   1.00
N137   N     0.99214   0.12527   0.12153   0.00000  Uiso   1.00
O138   O     0.96618   0.13278   0.08112   0.00000  Uiso   1.00
O139   O     0.67456   0.08886   0.13047   0.00000  Uiso   1.00
N140   N     0.67453   0.20806   0.21181   0.00000  Uiso   1.00
O141   O     0.70048   0.20055   0.25221   0.00000  Uiso   1.00
O142   O     0.99211   0.24447   0.20286   0.00000  Uiso   1.00
N143   N     0.85681   0.04333   0.08569   0.00000  Uiso   1.00
O144   O     0.90198   0.06123   0.08714   0.00000  Uiso   1.00
O145   O     0.82802   0.03956   0.04563   0.00000  Uiso   1.00
N146   N     0.80986   0.29000   0.24765   0.00000  Uiso   1.00
O147   O     0.76469   0.27210   0.24620   0.00000  Uiso   1.00
O148   O     0.83865   0.29377   0.28770   0.00000  Uiso   1.00
N149   N     0.83955   0.29346   0.08069   0.00000  Uiso   1.00
O150   O     0.79778   0.27720   0.05801   0.00000  Uiso   1.00
O151   O     0.87940   0.30012   0.05878   0.00000  Uiso   1.00
N152   N     0.82711   0.03987   0.25265   0.00000  Uiso   1.00
O153   O     0.86888   0.05613   0.27532   0.00000  Uiso   1.00
O154   O     0.78727   0.03321   0.27456   0.00000  Uiso   1.00
N155   N     0.75181   0.12795   0.03867   0.00000  Uiso   1.00
O156   O     0.70688   0.14176   0.02494   0.00000  Uiso   1.00
O157   O     0.75481   0.09295   0.05968   0.00000  Uiso   1.00
N158   N     0.91485   0.20538   0.29466   0.00000  Uiso   1.00
O159   O     0.95978   0.19158   0.30840   0.00000  Uiso   1.00
O160   O     0.91186   0.24038   0.27365   0.00000  Uiso   1.00
Cl161  Cl    0.74864   0.11515   0.27091   0.00000  Uiso   1.00
Cl162  Cl    0.91802   0.21818   0.06242   0.00000  Uiso   1.00
O163   O     0.16666   0.43989   0.20625   0.00000  Uiso   1.00
O164   O     0.16667   0.56011   0.12709   0.00000  Uiso   1.00
O165   O     0.16666   0.43988   0.12706   0.00000  Uiso   1.00
O166   O     0.16667   0.56012   0.20628   0.00000  Uiso   1.00
C167   C     0.16861   0.42083   0.16716   0.00000  Uiso   1.00
C168   C     0.16472   0.57917   0.16617   0.00000  Uiso   1.00
O169   O     0.09161   0.50000   0.19712   0.00000  Uiso   1.00
O170   O     0.24172   0.50000   0.13621   0.00000  Uiso   1.00
O171   O     0.09161   0.49999   0.11793   0.00000  Uiso   1.00
O172   O     0.24172   0.50001   0.21540   0.00000  Uiso   1.00
C173   C     0.06818   0.49912   0.15513   0.00000  Uiso   1.00
C174   C     0.26515   0.50088   0.17820   0.00000  Uiso   1.00
Cu175  Cu    0.16667   0.50001   0.21355   0.00000  Uiso   1.00
Cu176  Cu    0.16667   0.49999   0.11978   0.00000  Uiso   1.00
N177   N     0.16668   0.50001   0.28403   0.00000  Uiso   1.00
N178   N     0.16665   0.49999   0.04931   0.00000  Uiso   1.00
C179   C     0.01353   0.49148   0.15112   0.00000  Uiso   1.00
C180   C     0.31980   0.50852   0.18221   0.00000  Uiso   1.00
C181   C     0.17641   0.35529   0.12631   0.00000  Uiso   1.00
C182   C     0.15693   0.64471   0.20703   0.00000  Uiso   1.00
C183   C     0.17063   0.64634   0.12460   0.00000  Uiso   1.00
C184   C     0.16271   0.35366   0.20873   0.00000  Uiso   1.00
C185   C     0.16266   0.62388   0.16546   0.00000  Uiso   1.00
C186   C     0.17067   0.37612   0.16787   0.00000  Uiso   1.00
C187   C     0.12866   0.47951   0.02037   0.00000  Uiso   1.00
C188   C     0.20467   0.52049   0.31296   0.00000  Uiso   1.00
C189   C     0.12930   0.47892   0.30454   0.00000  Uiso   1.00
C190   C     0.20404   0.52108   0.02880   0.00000  Uiso   1.00
N191   N     0.32547   0.45860   0.12153   0.00000  Uiso   1.00
O192   O     0.29951   0.46612   0.08112   0.00000  Uiso   1.00
O193   O     0.00790   0.42219   0.13047   0.00000  Uiso   1.00
N194   N     0.00786   0.54140   0.21181   0.00000  Uiso   1.00
O195   O     0.03382   0.53388   0.25221   0.00000  Uiso   1.00
O196   O     0.32544   0.57781   0.20286   0.00000  Uiso   1.00
N197   N     0.19015   0.37667   0.08569   0.00000  Uiso   1.00
O198   O     0.23531   0.39456   0.08714   0.00000  Uiso   1.00
O199   O     0.16136   0.37289   0.04563   0.00000  Uiso   1.00
N200   N     0.14319   0.62333   0.24765   0.00000  Uiso   1.00
O201   O     0.09802   0.60544   0.24620   0.00000  Uiso   1.00
O202   O     0.17198   0.62711   0.28770   0.00000  Uiso   1.00
N203   N     0.17288   0.62679   0.08069   0.00000  Uiso   1.00
O204   O     0.13111   0.61053   0.05801   0.00000  Uiso   1.00
O205   O     0.21273   0.63345   0.05878   0.00000  Uiso   1.00
N206   N     0.16045   0.37320   0.25265   0.00000  Uiso   1.00
O207   O     0.20222   0.38947   0.27532   0.00000  Uiso   1.00
O208   O     0.12060   0.36654   0.27456   0.00000  Uiso   1.00
N209   N     0.08515   0.46129   0.03867   0.00000  Uiso   1.00
O210   O     0.04022   0.47509   0.02494   0.00000  Uiso   1.00
O211   O     0.08814   0.42628   0.05968   0.00000  Uiso   1.00
N212   N     0.24819   0.53871   0.29466   0.00000  Uiso   1.00
O213   O     0.29312   0.52491   0.30840   0.00000  Uiso   1.00
O214   O     0.24519   0.57371   0.27365   0.00000  Uiso   1.00
Cl215  Cl    0.08198   0.44849   0.27091   0.00000  Uiso   1.00
Cl216  Cl    0.25136   0.55151   0.06242   0.00000  Uiso   1.00
O217   O     0.50000   0.43989   0.20625   0.00000  Uiso   1.00
O218   O     0.50000   0.56011   0.12709   0.00000  Uiso   1.00
O219   O     0.50000   0.43988   0.12706   0.00000  Uiso   1.00
O220   O     0.50000   0.56012   0.20628   0.00000  Uiso   1.00
C221   C     0.50194   0.42083   0.16716   0.00000  Uiso   1.00
C222   C     0.49806   0.57917   0.16617   0.00000  Uiso   1.00
O223   O     0.42495   0.50000   0.19712   0.00000  Uiso   1.00
O224   O     0.57505   0.50000   0.13621   0.00000  Uiso   1.00
O225   O     0.42494   0.49999   0.11793   0.00000  Uiso   1.00
O226   O     0.57506   0.50001   0.21540   0.00000  Uiso   1.00
C227   C     0.40152   0.49912   0.15513   0.00000  Uiso   1.00
C228   C     0.59848   0.50088   0.17820   0.00000  Uiso   1.00
Cu229  Cu    0.50000   0.50001   0.21355   0.00000  Uiso   1.00
Cu230  Cu    0.50000   0.49999   0.11978   0.00000  Uiso   1.00
N231   N     0.50001   0.50001   0.28403   0.00000  Uiso   1.00
N232   N     0.49999   0.49999   0.04931   0.00000  Uiso   1.00
C233   C     0.34687   0.49148   0.15112   0.00000  Uiso   1.00
C234   C     0.65313   0.50852   0.18221   0.00000  Uiso   1.00
C235   C     0.50974   0.35529   0.12631   0.00000  Uiso   1.00
C236   C     0.49026   0.64471   0.20703   0.00000  Uiso   1.00
C237   C     0.50396   0.64634   0.12460   0.00000  Uiso   1.00
C238   C     0.49604   0.35366   0.20873   0.00000  Uiso   1.00
C239   C     0.49600   0.62388   0.16546   0.00000  Uiso   1.00
C240   C     0.50400   0.37612   0.16787   0.00000  Uiso   1.00
C241   C     0.46199   0.47951   0.02037   0.00000  Uiso   1.00
C242   C     0.53801   0.52049   0.31296   0.00000  Uiso   1.00
C243   C     0.46263   0.47892   0.30454   0.00000  Uiso   1.00
C244   C     0.53737   0.52108   0.02880   0.00000  Uiso   1.00
N245   N     0.65881   0.45860   0.12153   0.00000  Uiso   1.00
O246   O     0.63285   0.46612   0.08112   0.00000  Uiso   1.00
O247   O     0.34123   0.42219   0.13047   0.00000  Uiso   1.00
N248   N     0.34119   0.54140   0.21181   0.00000  Uiso   1.00
O249   O     0.36715   0.53388   0.25221   0.00000  Uiso   1.00
O250   O     0.65877   0.57781   0.20286   0.00000  Uiso   1.00
N251   N     0.52348   0.37667   0.08569   0.00000  Uiso   1.00
O252   O     0.56865   0.39456   0.08714   0.00000  Uiso   1.00
O253   O     0.49469   0.37289   0.04563   0.00000  Uiso   1.00
N254   N     0.47652   0.62333   0.24765   0.00000  Uiso   1.00
O255   O     0.43135   0.60544   0.24620   0.00000  Uiso   1.00
O256   O     0.50531   0.62711   0.28770   0.00000  Uiso   1.00
N257   N     0.50622   0.62679   0.08069   0.00000  Uiso   1.00
O258   O     0.46445   0.61053   0.05801   0.00000  Uiso   1.00
O259   O     0.54606   0.63345   0.05878   0.00000  Uiso   1.00
N260   N     0.49378   0.37320   0.25265   0.00000  Uiso   1.00
O261   O     0.53555   0.38947   0.27532   0.00000  Uiso   1.00
O262   O     0.45393   0.36654   0.27456   0.00000  Uiso   1.00
N263   N     0.41848   0.46129   0.03867   0.00000  Uiso   1.00
O264   O     0.37355   0.47509   0.02494   0.00000  Uiso   1.00
O265   O     0.42148   0.42628   0.05968   0.00000  Uiso   1.00
N266   N     0.58152   0.53871   0.29466   0.00000  Uiso   1.00
O267   O     0.62645   0.52491   0.30840   0.00000  Uiso   1.00
O268   O     0.57852   0.57371   0.27365   0.00000  Uiso   1.00
Cl269  Cl    0.41531   0.44849   0.27091   0.00000  Uiso   1.00
Cl270  Cl    0.58469   0.55151   0.06242   0.00000  Uiso   1.00
O271   O     0.83333   0.43989   0.20625   0.00000  Uiso   1.00
O272   O     0.83334   0.56011   0.12709   0.00000  Uiso   1.00
O273   O     0.83333   0.43988   0.12706   0.00000  Uiso   1.00
O274   O     0.83334   0.56012   0.20628   0.00000  Uiso   1.00
C275   C     0.83528   0.42083   0.16716   0.00000  Uiso   1.00
C276   C     0.83139   0.57917   0.16617   0.00000  Uiso   1.00
O277   O     0.75828   0.50000   0.19712   0.00000  Uiso   1.00
O278   O     0.90839   0.50000   0.13621   0.00000  Uiso   1.00
O279   O     0.75828   0.49999   0.11793   0.00000  Uiso   1.00
O280   O     0.90839   0.50001   0.21540   0.00000  Uiso   1.00
C281   C     0.73485   0.49912   0.15513   0.00000  Uiso   1.00
C282   C     0.93182   0.50088   0.17820   0.00000  Uiso   1.00
Cu283  Cu    0.83333   0.50001   0.21355   0.00000  Uiso   1.00
Cu284  Cu    0.83333   0.49999   0.11978   0.00000  Uiso   1.00
N285   N     0.83335   0.50001   0.28403   0.00000  Uiso   1.00
N286   N     0.83332   0.49999   0.04931   0.00000  Uiso   1.00
C287   C     0.68020   0.49148   0.15112   0.00000  Uiso   1.00
C288   C     0.98647   0.50852   0.18221   0.00000  Uiso   1.00
C289   C     0.84307   0.35529   0.12631   0.00000  Uiso   1.00
C290   C     0.82359   0.64471   0.20703   0.00000  Uiso   1.00
C291   C     0.83729   0.64634   0.12460   0.00000  Uiso   1.00
C292   C     0.82937   0.35366   0.20873   0.00000  Uiso   1.00
C293   C     0.82933   0.62388   0.16546   0.00000  Uiso   1.00
C294   C     0.83734   0.37612   0.16787   0.00000  Uiso   1.00
C295   C     0.79533   0.47951   0.02037   0.00000  Uiso   1.00
C296   C     0.87134   0.52049   0.31296   0.00000  Uiso   1.00
C297   C     0.79596   0.47892   0.30454   0.00000  Uiso   1.00
C298   C     0.87070   0.52108   0.02880   0.00000  Uiso   1.00
N299   N     0.99214   0.45860   0.12153   0.00000  Uiso   1.00
O300   O     0.96618   0.46612   0.08112   0.00000  Uiso   1.00
O301   O     0.67456   0.42219   0.13047   0.00000  Uiso   1.00
N302   N     0.67453   0.54140   0.21181   0.00000  Uiso   1.00
O303   O     0.70048   0.53388   0.25221   0.00000  Uiso   1.00
O304   O     0.99211   0.57781   0.20286   0.00000  Uiso   1.00
N305   N     0.85681   0.37667   0.08569   0.00000  Uiso   1.00
O306   O     0.90198   0.39456   0.08714   0.00000  Uiso   1.00
O307   O     0.82802   0.37289   0.04563   0.00000  Uiso   1.00
N308   N     0.80986   0.62333   0.24765   0.00000  Uiso   1.00
O309   O     0.76469   0.60544   0.24620   0.00000  Uiso   1.00
O310   O     0.83865   0.62711   0.28770   0.00000  Uiso   1.00
N311   N     0.83955   0.62679   0.08069   0.00000  Uiso   1.00
O312   O     0.79778   0.61053   0.05801   0.00000  Uiso   1.00
O313   O     0.87940   0.63345   0.05878   0.00000  Uiso   1.00
N314   N     0.82711   0.37320   0.25265   0.00000  Uiso   1.00
O315   O     0.86888   0.38947   0.27532   0.00000  Uiso   1.00
O316   O     0.78727   0.36654   0.27456   0.00000  Uiso   1.00
N317   N     0.75181   0.46129   0.03867   0.00000  Uiso   1.00
O318   O     0.70688   0.47509   0.02494   0.00000  Uiso   1.00
O319   O     0.75481   0.42628   0.05968   0.00000  Uiso   1.00
N320   N     0.91485   0.53871   0.29466   0.00000  Uiso   1.00
O321   O     0.95978   0.52491   0.30840   0.00000  Uiso   1.00
O322   O     0.91186   0.57371   0.27365   0.00000  Uiso   1.00
Cl323  Cl    0.74864   0.44849   0.27091   0.00000  Uiso   1.00
Cl324  Cl    0.91802   0.55151   0.06242   0.00000  Uiso   1.00
O325   O     0.16666   0.77322   0.20625   0.00000  Uiso   1.00
O326   O     0.16667   0.89345   0.12709   0.00000  Uiso   1.00
O327   O     0.16666   0.77321   0.12706   0.00000  Uiso   1.00
O328   O     0.16667   0.89346   0.20628   0.00000  Uiso   1.00
C329   C     0.16861   0.75417   0.16716   0.00000  Uiso   1.00
C330   C     0.16472   0.91250   0.16617   0.00000  Uiso   1.00
O331   O     0.09161   0.83334   0.19712   0.00000  Uiso   1.00
O332   O     0.24172   0.83333   0.13621   0.00000  Uiso   1.00
O333   O     0.09161   0.83333   0.11793   0.00000  Uiso   1.00
O334   O     0.24172   0.83334   0.21540   0.00000  Uiso   1.00
C335   C     0.06818   0.83245   0.15513   0.00000  Uiso   1.00
C336   C     0.26515   0.83422   0.17820   0.00000  Uiso   1.00
Cu337  Cu    0.16667   0.83334   0.21355   0.00000  Uiso   1.00
Cu338  Cu    0.16667   0.83333   0.11978   0.00000  Uiso   1.00
N339   N     0.16668   0.83334   0.28403   0.00000  Uiso   1.00
N340   N     0.16665   0.83332   0.04931   0.00000  Uiso   1.00
C341   C     0.01353   0.82482   0.15112   0.00000  Uiso   1.00
C342   C     0.31980   0.84185   0.18221   0.00000  Uiso   1.00
C343   C     0.17641   0.68863   0.12631   0.00000  Uiso   1.00
C344   C     0.15693   0.97804   0.20703   0.00000  Uiso   1.00
C345   C     0.17063   0.97967   0.12460   0.00000  Uiso   1.00
C346   C     0.16271   0.68699   0.20873   0.00000  Uiso   1.00
C347   C     0.16266   0.95721   0.16546   0.00000  Uiso   1.00
C348   C     0.17067   0.70946   0.16787   0.00000  Uiso   1.00
C349   C     0.12866   0.81284   0.02037   0.00000  Uiso   1.00
C350   C     0.20467   0.85383   0.31296   0.00000  Uiso   1.00
C351   C     0.12930   0.81225   0.30454   0.00000  Uiso   1.00
C352   C     0.20404   0.85441   0.02880   0.00000  Uiso   1.00
N353   N     0.32547   0.79194   0.12153   0.00000  Uiso   1.00
O354   O     0.29951   0.79945   0.08112   0.00000  Uiso   1.00
O355   O     0.00790   0.75553   0.13047   0.00000  Uiso   1.00
N356   N     0.00786   0.87473   0.21181   0.00000  Uiso   1.00
O357   O     0.03382   0.86722   0.25221   0.00000  Uiso   1.00
O358   O     0.32544   0.91114   0.20286   0.00000  Uiso   1.00
N359   N     0.19015   0.71000   0.08569   0.00000  Uiso   1.00
O360   O     0.23531   0.72790   0.08714   0.00000  Uiso   1.00
O361   O     0.16136   0.70623   0.04563   0.00000  Uiso   1.00
N362   N     0.14319   0.95667   0.24765   0.00000  Uiso   1.00
O363   O     0.09802   0.93877   0.24620   0.00000  Uiso   1.00
O364   O     0.17198   0.96044   0.28770   0.00000  Uiso   1.00
N365   N     0.17288   0.96013   0.08069   0.00000  Uiso   1.00
O366   O     0.13111   0.94387   0.05801   0.00000  Uiso   1.00
O367   O     0.21273   0.96679   0.05878   0.00000  Uiso   1.00
N368   N     0.16045   0.70654   0.25265   0.00000  Uiso   1.00
O369   O     0.20222   0.72280   0.27532   0.00000  Uiso   1.00
O370   O     0.12060   0.69988   0.27456   0.00000  Uiso   1.00
N371   N     0.08515   0.79462   0.03867   0.00000  Uiso   1.00
O372   O     0.04022   0.80842   0.02494   0.00000  Uiso   1.00
O373   O     0.08814   0.75962   0.05968   0.00000  Uiso   1.00
N374   N     0.24819   0.87205   0.29466   0.00000  Uiso   1.00
O375   O     0.29312   0.85824   0.30840   0.00000  Uiso   1.00
O376   O     0.24519   0.90705   0.27365   0.00000  Uiso   1.00
Cl377  Cl    0.08198   0.78182   0.27091   0.00000  Uiso   1.00
Cl378  Cl    0.25136   0.88485   0.06242   0.00000  Uiso   1.00
O379   O     0.50000   0.77322   0.20625   0.00000  Uiso   1.00
O380   O     0.50000   0.89345   0.12709   0.00000  Uiso   1.00
O381   O     0.50000   0.77321   0.12706   0.00000  Uiso   1.00
O382   O     0.50000   0.89346   0.20628   0.00000  Uiso   1.00
C383   C     0.50194   0.75417   0.16716   0.00000  Uiso   1.00
C384   C     0.49806   0.91250   0.16617   0.00000  Uiso   1.00
O385   O     0.42495   0.83334   0.19712   0.00000  Uiso   1.00
O386   O     0.57505   0.83333   0.13621   0.00000  Uiso   1.00
O387   O     0.42494   0.83333   0.11793   0.00000  Uiso   1.00
O388   O     0.57506   0.83334   0.21540   0.00000  Uiso   1.00
C389   C     0.40152   0.83245   0.15513   0.00000  Uiso   1.00
C390   C     0.59848   0.83422   0.17820   0.00000  Uiso   1.00
Cu391  Cu    0.50000   0.83334   0.21355   0.00000  Uiso   1.00
Cu392  Cu    0.50000   0.83333   0.11978   0.00000  Uiso   1.00
N393   N     0.50001   0.83334   0.28403   0.00000  Uiso   1.00
N394   N     0.49999   0.83332   0.04931   0.00000  Uiso   1.00
C395   C     0.34687   0.82482   0.15112   0.00000  Uiso   1.00
C396   C     0.65313   0.84185   0.18221   0.00000  Uiso   1.00
C397   C     0.50974   0.68863   0.12631   0.00000  Uiso   1.00
C398   C     0.49026   0.97804   0.20703   0.00000  Uiso   1.00
C399   C     0.50396   0.97967   0.12460   0.00000  Uiso   1.00
C400   C     0.49604   0.68699   0.20873   0.00000  Uiso   1.00
C401   C     0.49600   0.95721   0.16546   0.00000  Uiso   1.00
C402   C     0.50400   0.70946   0.16787   0.00000  Uiso   1.00
C403   C     0.46199   0.81284   0.02037   0.00000  Uiso   1.00
C404   C     0.53801   0.85383   0.31296   0.00000  Uiso   1.00
C405   C     0.46263   0.81225   0.30454   0.00000  Uiso   1.00
C406   C     0.53737   0.85441   0.02880   0.00000  Uiso   1.00
N407   N     0.65881   0.79194   0.12153   0.00000  Uiso   1.00
O408   O     0.63285   0.79945   0.08112   0.00000  Uiso   1.00
O409   O     0.34123   0.75553   0.13047   0.00000  Uiso   1.00
N410   N     0.34119   0.87473   0.21181   0.00000  Uiso   1.00
O411   O     0.36715   0.86722   0.25221   0.00000  Uiso   1.00
O412   O     0.65877   0.91114   0.20286   0.00000  Uiso   1.00
N413   N     0.52348   0.71000   0.08569   0.00000  Uiso   1.00
O414   O     0.56865   0.72790   0.08714   0.00000  Uiso   1.00
O415   O     0.49469   0.70623   0.04563   0.00000  Uiso   1.00
N416   N     0.47652   0.95667   0.24765   0.00000  Uiso   1.00
O417   O     0.43135   0.93877   0.24620   0.00000  Uiso   1.00
O418   O     0.50531   0.96044   0.28770   0.00000  Uiso   1.00
N419   N     0.50622   0.96013   0.08069   0.00000  Uiso   1.00
O420   O     0.46445   0.94387   0.05801   0.00000  Uiso   1.00
O421   O     0.54606   0.96679   0.05878   0.00000  Uiso   1.00
N422   N     0.49378   0.70654   0.25265   0.00000  Uiso   1.00
O423   O     0.53555   0.72280   0.27532   0.00000  Uiso   1.00
O424   O     0.45393   0.69988   0.27456   0.00000  Uiso   1.00
N425   N     0.41848   0.79462   0.03867   0.00000  Uiso   1.00
O426   O     0.37355   0.80842   0.02494   0.00000  Uiso   1.00
O427   O     0.42148   0.75962   0.05968   0.00000  Uiso   1.00
N428   N     0.58152   0.87205   0.29466   0.00000  Uiso   1.00
O429   O     0.62645   0.85824   0.30840   0.00000  Uiso   1.00
O430   O     0.57852   0.90705   0.27365   0.00000  Uiso   1.00
Cl431  Cl    0.41531   0.78182   0.27091   0.00000  Uiso   1.00
Cl432  Cl    0.58469   0.88485   0.06242   0.00000  Uiso   1.00
O433   O     0.83333   0.77322   0.20625   0.00000  Uiso   1.00
O434   O     0.83334   0.89345   0.12709   0.00000  Uiso   1.00
O435   O     0.83333   0.77321   0.12706   0.00000  Uiso   1.00
O436   O     0.83334   0.89346   0.20628   0.00000  Uiso   1.00
C437   C     0.83528   0.75417   0.16716   0.00000  Uiso   1.00
C438   C     0.83139   0.91250   0.16617   0.00000  Uiso   1.00
O439   O     0.75828   0.83334   0.19712   0.00000  Uiso   1.00
O440   O     0.90839   0.83333   0.13621   0.00000  Uiso   1.00
O441   O     0.75828   0.83333   0.11793   0.00000  Uiso   1.00
O442   O     0.90839   0.83334   0.21540   0.00000  Uiso   1.00
C443   C     0.73485   0.83245   0.15513   0.00000  Uiso   1.00
C444   C     0.93182   0.83422   0.17820   0.00000  Uiso   1.00
Cu445  Cu    0.83333   0.83334   0.21355   0.00000  Uiso   1.00
Cu446  Cu    0.83333   0.83333   0.11978   0.00000  Uiso   1.00
N447   N     0.83335   0.83334   0.28403   0.00000  Uiso   1.00
N448   N     0.83332   0.83332   0.04931   0.00000  Uiso   1.00
C449   C     0.68020   0.82482   0.15112   0.00000  Uiso   1.00
C450   C     0.98647   0.84185   0.18221   0.00000  Uiso   1.00
C451   C     0.84307   0.68863   0.12631   0.00000  Uiso   1.00
C452   C     0.82359   0.97804   0.20703   0.00000  Uiso   1.00
C453   C     0.83729   0.97967   0.12460   0.00000  Uiso   1.00
C454   C     0.82937   0.68699   0.20873   0.00000  Uiso   1.00
C455   C     0.82933   0.95721   0.16546   0.00000  Uiso   1.00
C456   C     0.83734   0.70946   0.16787   0.00000  Uiso   1.00
C457   C     0.79533   0.81284   0.02037   0.00000  Uiso   1.00
C458   C     0.87134   0.85383   0.31296   0.00000  Uiso   1.00
C459   C     0.79596   0.81225   0.30454   0.00000  Uiso   1.00
C460   C     0.87070   0.85441   0.02880   0.00000  Uiso   1.00
N461   N     0.99214   0.79194   0.12153   0.00000  Uiso   1.00
O462   O     0.96618   0.79945   0.08112   0.00000  Uiso   1.00
O463   O     0.67456   0.75553   0.13047   0.00000  Uiso   1.00
N464   N     0.67453   0.87473   0.21181   0.00000  Uiso   1.00
O465   O     0.70048   0.86722   0.25221   0.00000  Uiso   1.00
O466   O     0.99211   0.91114   0.20286   0.00000  Uiso   1.00
N467   N     0.85681   0.71000   0.08569   0.00000  Uiso   1.00
O468   O     0.90198   0.72790   0.08714   0.00000  Uiso   1.00
O469   O     0.82802   0.70623   0.04563   0.00000  Uiso   1.00
N470   N     0.80986   0.95667   0.24765   0.00000  Uiso   1.00
O471   O     0.76469   0.93877   0.24620   0.00000  Uiso   1.00
O472   O     0.83865   0.96044   0.28770   0.00000  Uiso   1.00
N473   N     0.83955   0.96013   0.08069   0.00000  Uiso   1.00
O474   O     0.79778   0.94387   0.05801   0.00000  Uiso   1.00
O475   O     0.87940   0.96679   0.05878   0.00000  Uiso   1.00
N476   N     0.82711   0.70654   0.25265   0.00000  Uiso   1.00
O477   O     0.86888   0.72280   0.27532   0.00000  Uiso   1.00
O478   O     0.78727   0.69988   0.27456   0.00000  Uiso   1.00
N479   N     0.75181   0.79462   0.03867   0.00000  Uiso   1.00
O480   O     0.70688   0.80842   0.02494   0.00000  Uiso   1.00
O481   O     0.75481   0.75962   0.05968   0.00000  Uiso   1.00
N482   N     0.91485   0.87205   0.29466   0.00000  Uiso   1.00
O483   O     0.95978   0.85824   0.30840   0.00000  Uiso   1.00
O484   O     0.91186   0.90705   0.27365   0.00000  Uiso   1.00
Cl485  Cl    0.74864   0.78182   0.27091   0.00000  Uiso   1.00
Cl486  Cl    0.91802   0.88485   0.06242   0.00000  Uiso   1.00
O487   O     0.16666   0.10655   0.53958   0.00000  Uiso   1.00
O488   O     0.16667   0.22678   0.46042   0.00000  Uiso   1.00
O489   O     0.16666   0.10654   0.46039   0.00000  Uiso   1.00
O490   O     0.16667   0.22679   0.53961   0.00000  Uiso   1.00
C491   C     0.16861   0.08750   0.50050   0.00000  Uiso   1.00
C492   C     0.16472   0.24583   0.49950   0.00000  Uiso   1.00
O493   O     0.09161   0.16667   0.53046   0.00000  Uiso   1.00
O494   O     0.24172   0.16666   0.46954   0.00000  Uiso   1.00
O495   O     0.09161   0.16666   0.45127   0.00000  Uiso   1.00
O496   O     0.24172   0.16667   0.54873   0.00000  Uiso   1.00
C497   C     0.06818   0.16578   0.48846   0.00000  Uiso   1.00
C498   C     0.26515   0.16755   0.51154   0.00000  Uiso   1.00
Cu499  Cu    0.16667   0.16667   0.54689   0.00000  Uiso   1.00
Cu500  Cu    0.16667   0.16666   0.45311   0.00000  Uiso   1.00
N501   N     0.16668   0.16668   0.61736   0.00000  Uiso   1.00
N502   N     0.16665   0.16666   0.38264   0.00000  Uiso   1.00
C503   C     0.01353   0.15815   0.48446   0.00000  Uiso   1.00
C504   C     0.31980   0.17518   0.51554   0.00000  Uiso   1.00
C505   C     0.17641   0.02196   0.45964   0.00000  Uiso   1.00
C506   C     0.15693   0.31137   0.54036   0.00000  Uiso   1.00
C507   C     0.17063   0.31300   0.45794   0.00000  Uiso   1.00
C508   C     0.16271   0.02033   0.54206   0.00000  Uiso   1.00
C509   C     0.16266   0.29054   0.49879   0.00000  Uiso   1.00
C510   C     0.17067   0.04279   0.50121   0.00000  Uiso   1.00
C511   C     0.12866   0.14617   0.35371   0.00000  Uiso   1.00
C512   C     0.20467   0.18716   0.64629   0.00000  Uiso   1.00
C513   C     0.12930   0.14559   0.63787   0.00000  Uiso   1.00
C514   C     0.20404   0.18774   0.36213   0.00000  Uiso   1.00
N515   N     0.32547   0.12527   0.45486   0.00000  Uiso   1.00
O516   O     0.29951   0.13278   0.41445   0.00000  Uiso   1.00
O517   O     0.00790   0.08886   0.46380   0.00000  Uiso   1.00
N518   N     0.00786   0.20806   0.54514   0.00000  Uiso   1.00
O519   O     0.03382   0.20055   0.58555   0.00000  Uiso   1.00
O520   O     0.32544   0.24447   0.53619   0.00000  Uiso   1.00
N521   N     0.19015   0.04333   0.41902   0.00000  Uiso   1.00
O522   O     0.23531   0.06123   0.42047   0.00000  Uiso   1.00
O523   O     0.16136   0.03956   0.37897   0.00000  Uiso   1.00
N524   N     0.14319   0.29000   0.58098   0.00000  Uiso   1.00
O525   O     0.09802   0.27210   0.57953   0.00000  Uiso   1.00
O526   O     0.17198   0.29377   0.62103   0.00000  Uiso   1.00
N527   N     0.17288   0.29346   0.41402   0.00000  Uiso   1.00
O528   O     0.13111   0.27720   0.39135   0.00000  Uiso   1.00
O529   O     0.21273   0.30012   0.39211   0.00000  Uiso   1.00
N530   N     0.16045   0.03987   0.58598   0.00000  Uiso   1.00
O531   O     0.20222   0.05613   0.60866   0.00000  Uiso   1.00
O532   O     0.12060   0.03321   0.60789   0.00000  Uiso   1.00
N533   N     0.08515   0.12795   0.37200   0.00000  Uiso   1.00
O534   O     0.04022   0.14176   0.35827   0.00000  Uiso   1.00
O535   O     0.08814   0.09295   0.39301   0.00000  Uiso   1.00
N536   N     0.24819   0.20538   0.62800   0.00000  Uiso   1.00
O537   O     0.29312   0.19158   0.64173   0.00000  Uiso   1.00
O538   O     0.24519   0.24038   0.60698   0.00000  Uiso   1.00
Cl539  Cl    0.08198   0.11515   0.60424   0.00000  Uiso   1.00
Cl540  Cl    0.25136   0.21818   0.39576   0.00000  Uiso   1.00
O541   O     0.50000   0.10655   0.53958   0.00000  Uiso   1.00
O542   O     0.50000   0.22678   0.46042   0.00000  Uiso   1.00
O543   O     0.50000   0.10654   0.46039   0.00000  Uiso   1.00
O544   O     0.50000   0.22679   0.53961   0.00000  Uiso   1.00
C545   C     0.50194   0.08750   0.50050   0.00000  Uiso   1.00
C546   C     0.49806   0.24583   0.49950   0.00000  Uiso   1.00
O547   O     0.42495   0.16667   0.53046   0.00000  Uiso   1.00
O548   O     0.57505   0.16666   0.46954   0.00000  Uiso   1.00
O549   O     0.42494   0.16666   0.45127   0.00000  Uiso   1.00
O550   O     0.57506   0.16667   0.54873   0.00000  Uiso   1.00
C551   C     0.40152   0.16578   0.48846   0.00000  Uiso   1.00
C552   C     0.59848   0.16755   0.51154   0.00000  Uiso   1.00
Cu553  Cu    0.50000   0.16667   0.54689   0.00000  Uiso   1.00
Cu554  Cu    0.50000   0.16666   0.45311   0.00000  Uiso   1.00
N555   N     0.50001   0.16668   0.61736   0.00000  Uiso   1.00
N556   N     0.49999   0.16666   0.38264   0.00000  Uiso   1.00
C557   C     0.34687   0.15815   0.48446   0.00000  Uiso   1.00
C558   C     0.65313   0.17518   0.51554   0.00000  Uiso   1.00
C559   C     0.50974   0.02196   0.45964   0.00000  Uiso   1.00
C560   C     0.49026   0.31137   0.54036   0.00000  Uiso   1.00
C561   C     0.50396   0.31300   0.45794   0.00000  Uiso   1.00
C562   C     0.49604   0.02033   0.54206   0.00000  Uiso   1.00
C563   C     0.49600   0.29054   0.49879   0.00000  Uiso   1.00
C564   C     0.50400   0.04279   0.50121   0.00000  Uiso   1.00
C565   C     0.46199   0.14617   0.35371   0.00000  Uiso   1.00
C566   C     0.53801   0.18716   0.64629   0.00000  Uiso   1.00
C567   C     0.46263   0.14559   0.63787   0.00000  Uiso   1.00
C568   C     0.53737   0.18774   0.36213   0.00000  Uiso   1.00
N569   N     0.65881   0.12527   0.45486   0.00000  Uiso   1.00
O570   O     0.63285   0.13278   0.41445   0.00000  Uiso   1.00
O571   O     0.34123   0.08886   0.46380   0.00000  Uiso   1.00
N572   N     0.34119   0.20806   0.54514   0.00000  Uiso   1.00
O573   O     0.36715   0.20055   0.58555   0.00000  Uiso   1.00
O574   O     0.65877   0.24447   0.53619   0.00000  Uiso   1.00
N575   N     0.52348   0.04333   0.41902   0.00000  Uiso   1.00
O576   O     0.56865   0.06123   0.42047   0.00000  Uiso   1.00
O577   O     0.49469   0.03956   0.37897   0.00000  Uiso   1.00
N578   N     0.47652   0.29000   0.58098   0.00000  Uiso   1.00
O579   O     0.43135   0.27210   0.57953   0.00000  Uiso   1.00
O580   O     0.50531   0.29377   0.62103   0.00000  Uiso   1.00
N581   N     0.50622   0.29346   0.41402   0.00000  Uiso   1.00
O582   O     0.46445   0.27720   0.39135   0.00000  Uiso   1.00
O583   O     0.54606   0.30012   0.39211   0.00000  Uiso   1.00
N584   N     0.49378   0.03987   0.58598   0.00000  Uiso   1.00
O585   O     0.53555   0.05613   0.60866   0.00000  Uiso   1.00
O586   O     0.45393   0.03321   0.60789   0.00000  Uiso   1.00
N587   N     0.41848   0.12795   0.37200   0.00000  Uiso   1.00
O588   O     0.37355   0.14176   0.35827   0.00000  Uiso   1.00
O589   O     0.42148   0.09295   0.39301   0.00000  Uiso   1.00
N590   N     0.58152   0.20538   0.62800   0.00000  Uiso   1.00
O591   O     0.62645   0.19158   0.64173   0.00000  Uiso   1.00
O592   O     0.57852   0.24038   0.60698   0.00000  Uiso   1.00
Cl593  Cl    0.41531   0.11515   0.60424   0.00000  Uiso   1.00
Cl594  Cl    0.58469   0.21818   0.39576   0.00000  Uiso   1.00
O595   O     0.83333   0.10655   0.53958   0.00000  Uiso   1.00
O596   O     0.83334   0.22678   0.46042   0.00000  Uiso   1.00
O597   O     0.83333   0.10654   0.46039   0.00000  Uiso   1.00
O598   O     0.83334   0.22679   0.53961   0.00000  Uiso   1.00
C599   C     0.83528   0.08750   0.50050   0.00000  Uiso   1.00
C600   C     0.83139   0.24583   0.49950   0.00000  Uiso   1.00
O601   O     0.75828   0.16667   0.53046   0.00000  Uiso   1.00
O602   O     0.90839   0.16666   0.46954   0.00000  Uiso   1.00
O603   O     0.75828   0.16666   0.45127   0.00000  Uiso   1.00
O604   O     0.90839   0.16667   0.54873   0.00000  Uiso   1.00
C605   C     0.73485   0.16578   0.48846   0.00000  Uiso   1.00
C606   C     0.93182   0.16755   0.51154   0.00000  Uiso   1.00
Cu607  Cu    0.83333   0.16667   0.54689   0.00000  Uiso   1.00
Cu608  Cu    0.83333   0.16666   0.45311   0.00000  Uiso   1.00
N609   N     0.83335   0.16668   0.61736   0.00000  Uiso   1.00
N610   N     0.83332   0.16666   0.38264   0.00000  Uiso   1.00
C611   C     0.68020   0.15815   0.48446   0.00000  Uiso   1.00
C612   C     0.98647   0.17518   0.51554   0.00000  Uiso   1.00
C613   C     0.84307   0.02196   0.45964   0.00000  Uiso   1.00
C614   C     0.82359   0.31137   0.54036   0.00000  Uiso   1.00
C615   C     0.83729   0.31300   0.45794   0.00000  Uiso   1.00
C616   C     0.82937   0.02033   0.54206   0.00000  Uiso   1.00
C617   C     0.82933   0.29054   0.49879   0.00000  Uiso   1.00
C618   C     0.83734   0.04279   0.50121   0.00000  Uiso   1.00
C619   C     0.79533   0.14617   0.35371   0.00000  Uiso   1.00
C620   C     0.87134   0.18716   0.64629   0.00000  Uiso   1.00
C621   C     0.79596   0.14559   0.63787   0.00000  Uiso   1.00
C622   C     0.87070   0.18774   0.36213   0.00000  Uiso   1.00
N623   N     0.99214   0.12527   0.45486   0.00000  Uiso   1.00
O624   O     0.96618   0.13278   0.41445   0.00000  Uiso   1.00
O625   O     0.67456   0.08886   0.46380   0.00000  Uiso   1.00
N626   N     0.67453   0.20806   0.54514   0.00000  Uiso   1.00
O627   O     0.70048   0.20055   0.58555   0.00000  Uiso   1.00
O628   O     0.99211   0.24447   0.53619   0.00000  Uiso   1.00
N629   N     0.85681   0.04333   0.41902   0.00000  Uiso   1.00
O630   O     0.90198   0.06123   0.42047   0.00000  Uiso   1.00
O631   O     0.82802   0.03956   0.37897   0.00000  Uiso   1.00
N632   N     0.80986   0.29000   0.58098   0.00000  Uiso   1.00
O633   O     0.76469   0.27210   0.57953   0.00000  Uiso   1.00
O634   O     0.83865   0.29377   0.62103   0.00000  Uiso   1.00
N635   N     0.83955   0.29346   0.41402   0.00000  Uiso   1.00
O636   O     0.79778   0.27720   0.39135   0.00000  Uiso   1.00
O637   O     0.87940   0.30012   0.39211   0.00000  Uiso   1.00
N638   N     0.82711   0.03987   0.58598   0.00000  Uiso   1.00
O639   O     0.86888   0.05613   0.60866   0.00000  Uiso   1.00
O640   O     0.78727   0.03321   0.60789   0.00000  Uiso   1.00
N641   N     0.75181   0.12795   0.37200   0.00000  Uiso   1.00
O642   O     0.70688   0.14176   0.35827   0.00000  Uiso   1.00
O643   O     0.75481   0.09295   0.39301   0.00000  Uiso   1.00
N644   N     0.91485   0.20538   0.62800   0.00000  Uiso   1.00
O645   O     0.95978   0.19158   0.64173   0.00000  Uiso   1.00
O646   O     0.91186   0.24038   0.60698   0.00000  Uiso   1.00
Cl647  Cl    0.74864   0.11515   0.60424   0.00000  Uiso   1.00
Cl648  Cl    0.91802   0.21818   0.39576   0.00000  Uiso   1.00
O649   O     0.16666   0.43989   0.53958   0.00000  Uiso   1.00
O650   O     0.16667   0.56011   0.46042   0.00000  Uiso   1.00
O651   O     0.16666   0.43988   0.46039   0.00000  Uiso   1.00
O652   O     0.16667   0.56012   0.53961   0.00000  Uiso   1.00
C653   C     0.16861   0.42083   0.50050   0.00000  Uiso   1.00
C654   C     0.16472   0.57917   0.49950   0.00000  Uiso   1.00
O655   O     0.09161   0.50000   0.53046   0.00000  Uiso   1.00
O656   O     0.24172   0.50000   0.46954   0.00000  Uiso   1.00
O657   O     0.09161   0.49999   0.45127   0.00000  Uiso   1.00
O658   O     0.24172   0.50001   0.54873   0.00000  Uiso   1.00
C659   C     0.06818   0.49912   0.48846   0.00000  Uiso   1.00
C660   C     0.26515   0.50088   0.51154   0.00000  Uiso   1.00
Cu661  Cu    0.16667   0.50001   0.54689   0.00000  Uiso   1.00
Cu662  Cu    0.16667   0.49999   0.45311   0.00000  Uiso   1.00
N663   N     0.16668   0.50001   0.61736   0.00000  Uiso   1.00
N664   N     0.16665   0.49999   0.38264   0.00000  Uiso   1.00
C665   C     0.01353   0.49148   0.48446   0.00000  Uiso   1.00
C666   C     0.31980   0.50852   0.51554   0.00000  Uiso   1.00
C667   C     0.17641   0.35529   0.45964   0.00000  Uiso   1.00
C668   C     0.15693   0.64471   0.54036   0.00000  Uiso   1.00
C669   C     0.17063   0.64634   0.45794   0.00000  Uiso   1.00
C670   C     0.16271   0.35366   0.54206   0.00000  Uiso   1.00
C671   C     0.16266   0.62388   0.49879   0.00000  Uiso   1.00
C672   C     0.17067   0.37612   0.50121   0.00000  Uiso   1.00
C673   C     0.12866   0.47951   0.35371   0.00000  Uiso   1.00
C674   C     0.20467   0.52049   0.64629   0.00000  Uiso   1.00
C675   C     0.12930   0.47892   0.63787   0.00000  Uiso   1.00
C676   C     0.20404   0.52108   0.36213   0.00000  Uiso   1.00
N677   N     0.32547   0.45860   0.45486   0.00000  Uiso   1.00
O678   O     0.29951   0.46612   0.41445   0.00000  Uiso   1.00
O679   O     0.00790   0.42219   0.46380   0.00000  Uiso   1.00
N680   N     0.00786   0.54140   0.54514   0.00000  Uiso   1.00
O681   O     0.03382   0.53388   0.58555   0.00000  Uiso   1.00
O682   O     0.32544   0.57781   0.53619   0.00000  Uiso   1.00
N683   N     0.19015   0.37667   0.41902   0.00000  Uiso   1.00
O684   O     0.23531   0.39456   0.42047   0.00000  Uiso   1.00
O685   O     0.16136   0.37289   0.37897   0.00000  Uiso   1.00
N686   N     0.14319   0.62333   0.58098   0.00000  Uiso   1.00
O687   O     0.09802   0.60544   0.57953   0.00000  Uiso   1.00
O688   O     0.17198   0.62711   0.62103   0.00000  Uiso   1.00
N689   N     0.17288   0.62679   0.41402   0.00000  Uiso   1.00
O690   O     0.13111   0.61053   0.39135   0.00000  Uiso   1.00
O691   O     0.21273   0.63345   0.39211   0.00000  Uiso   1.00
N692   N     0.16045   0.37320   0.58598   0.00000  Uiso   1.00
O693   O     0.20222   0.38947   0.60866   0.00000  Uiso   1.00
O694   O     0.12060   0.36654   0.60789   0.00000  Uiso   1.00
N695   N     0.08515   0.46129   0.37200   0.00000  Uiso   1.00
O696   O     0.04022   0.47509   0.35827   0.00000  Uiso   1.00
O697   O     0.08814   0.42628   0.39301   0.00000  Uiso   1.00
N698   N     0.24819   0.53871   0.62800   0.00000  Uiso   1.00
O699   O     0.29312   0.52491   0.64173   0.00000  Uiso   1.00
O700   O     0.24519   0.57371   0.60698   0.00000  Uiso   1.00
Cl701  Cl    0.08198   0.44849   0.60424   0.00000  Uiso   1.00
Cl702  Cl    0.25136   0.55151   0.39576   0.00000  Uiso   1.00
O703   O     0.50000   0.43989   0.53958   0.00000  Uiso   1.00
O704   O     0.50000   0.56011   0.46042   0.00000  Uiso   1.00
O705   O     0.50000   0.43988   0.46039   0.00000  Uiso   1.00
O706   O     0.50000   0.56012   0.53961   0.00000  Uiso   1.00
C707   C     0.50194   0.42083   0.50050   0.00000  Uiso   1.00
C708   C     0.49806   0.57917   0.49950   0.00000  Uiso   1.00
O709   O     0.42495   0.50000   0.53046   0.00000  Uiso   1.00
O710   O     0.57505   0.50000   0.46954   0.00000  Uiso   1.00
O711   O     0.42494   0.49999   0.45127   0.00000  Uiso   1.00
O712   O     0.57506   0.50001   0.54873   0.00000  Uiso   1.00
C713   C     0.40152   0.49912   0.48846   0.00000  Uiso   1.00
C714   C     0.59848   0.50088   0.51154   0.00000  Uiso   1.00
Cu715  Cu    0.50000   0.50001   0.54689   0.00000  Uiso   1.00
Cu716  Cu    0.50000   0.49999   0.45311   0.00000  Uiso   1.00
N717   N     0.50001   0.50001   0.61736   0.00000  Uiso   1.00
N718   N     0.49999   0.49999   0.38264   0.00000  Uiso   1.00
C719   C     0.34687   0.49148   0.48446   0.00000  Uiso   1.00
C720   C     0.65313   0.50852   0.51554   0.00000  Uiso   1.00
C721   C     0.50974   0.35529   0.45964   0.00000  Uiso   1.00
C722   C     0.49026   0.64471   0.54036   0.00000  Uiso   1.00
C723   C     0.50396   0.64634   0.45794   0.00000  Uiso   1.00
C724   C     0.49604   0.35366   0.54206   0.00000  Uiso   1.00
C725   C     0.49600   0.62388   0.49879   0.00000  Uiso   1.00
C726   C     0.50400   0.37612   0.50121   0.00000  Uiso   1.00
C727   C     0.46199   0.47951   0.35371   0.00000  Uiso   1.00
C728   C     0.53801   0.52049   0.64629   0.00000  Uiso   1.00
C729   C     0.46263   0.47892   0.63787   0.00000  Uiso   1.00
C730   C     0.53737   0.52108   0.36213   0.00000  Uiso   1.00
N731   N     0.65881   0.45860   0.45486   0.00000  Uiso   1.00
O732   O     0.63285   0.46612   0.41445   0.00000  Uiso   1.00
O733   O     0.34123   0.42219   0.46380   0.00000  Uiso   1.00
N734   N     0.34119   0.54140   0.54514   0.00000  Uiso   1.00
O735   O     0.36715   0.53388   0.58555   0.00000  Uiso   1.00
O736   O     0.65877   0.57781   0.53619   0.00000  Uiso   1.00
N737   N     0.52348   0.37667   0.41902   0.00000  Uiso   1.00
O738   O     0.56865   0.39456   0.42047   0.00000  Uiso   1.00
O739   O     0.49469   0.37289   0.37897   0.00000  Uiso   1.00
N740   N     0.47652   0.62333   0.58098   0.00000  Uiso   1.00
O741   O     0.43135   0.60544   0.57953   0.00000  Uiso   1.00
O742   O     0.50531   0.62711   0.62103   0.00000  Uiso   1.00
N743   N     0.50622   0.62679   0.41402   0.00000  Uiso   1.00
O744   O     0.46445   0.61053   0.39135   0.00000  Uiso   1.00
O745   O     0.54606   0.63345   0.39211   0.00000  Uiso   1.00
N746   N     0.49378   0.37320   0.58598   0.00000  Uiso   1.00
O747   O     0.53555   0.38947   0.60866   0.00000  Uiso   1.00
O748   O     0.45393   0.36654   0.60789   0.00000  Uiso   1.00
N749   N     0.41848   0.46129   0.37200   0.00000  Uiso   1.00
O750   O     0.37355   0.47509   0.35827   0.00000  Uiso   1.00
O751   O     0.42148   0.42628   0.39301   0.00000  Uiso   1.00
N752   N     0.58152   0.53871   0.62800   0.00000  Uiso   1.00
O753   O     0.62645   0.52491   0.64173   0.00000  Uiso   1.00
O754   O     0.57852   0.57371   0.60698   0.00000  Uiso   1.00
Cl755  Cl    0.41531   0.44849   0.60424   0.00000  Uiso   1.00
Cl756  Cl    0.58469   0.55151   0.39576   0.00000  Uiso   1.00
O757   O     0.83333   0.43989   0.53958   0.00000  Uiso   1.00
O758   O     0.83334   0.56011   0.46042   0.00000  Uiso   1.00
O759   O     0.83333   0.43988   0.46039   0.00000  Uiso   1.00
O760   O     0.83334   0.56012   0.53961   0.00000  Uiso   1.00
C761   C     0.83528   0.42083   0.50050   0.00000  Uiso   1.00
C762   C     0.83139   0.57917   0.49950   0.00000  Uiso   1.00
O763   O     0.75828   0.50000   0.53046   0.00000  Uiso   1.00
O764   O     0.90839   0.50000   0.46954   0.00000  Uiso   1.00
O765   O     0.75828   0.49999   0.45127   0.00000  Uiso   1.00
O766   O     0.90839   0.50001   0.54873   0.00000  Uiso   1.00
C767   C     0.73485   0.49912   0.48846   0.00000  Uiso   1.00
C768   C     0.93182   0.50088   0.51154   0.00000  Uiso   1.00
Cu769  Cu    0.83333   0.50001   0.54689   0.00000  Uiso   1.00
Cu770  Cu    0.83333   0.49999   0.45311   0.00000  Uiso   1.00
N771   N     0.83335   0.50001   0.61736   0.00000  Uiso   1.00
N772   N     0.83332   0.49999   0.38264   0.00000  Uiso   1.00
C773   C     0.68020   0.49148   0.48446   0.00000  Uiso   1.00
C774   C     0.98647   0.50852   0.51554   0.00000  Uiso   1.00
C775   C     0.84307   0.35529   0.45964   0.00000  Uiso   1.00
C776   C     0.82359   0.64471   0.54036   0.00000  Uiso   1.00
C777   C     0.83729   0.64634   0.45794   0.00000  Uiso   1.00
C778   C     0.82937   0.35366   0.54206   0.00000  Uiso   1.00
C779   C     0.82933   0.62388   0.49879   0.00000  Uiso   1.00
C780   C     0.83734   0.37612   0.50121   0.00000  Uiso   1.00
C781   C     0.79533   0.47951   0.35371   0.00000  Uiso   1.00
C782   C     0.87134   0.52049   0.64629   0.00000  Uiso   1.00
C783   C     0.79596   0.47892   0.63787   0.00000  Uiso   1.00
C784   C     0.87070   0.52108   0.36213   0.00000  Uiso   1.00
N785   N     0.99214   0.45860   0.45486   0.00000  Uiso   1.00
O786   O     0.96618   0.46612   0.41445   0.00000  Uiso   1.00
O787   O     0.67456   0.42219   0.46380   0.00000  Uiso   1.00
N788   N     0.67453   0.54140   0.54514   0.00000  Uiso   1.00
O789   O     0.70048   0.53388   0.58555   0.00000  Uiso   1.00
O790   O     0.99211   0.57781   0.53619   0.00000  Uiso   1.00
N791   N     0.85681   0.37667   0.41902   0.00000  Uiso   1.00
O792   O     0.90198   0.39456   0.42047   0.00000  Uiso   1.00
O793   O     0.82802   0.37289   0.37897   0.00000  Uiso   1.00
N794   N     0.80986   0.62333   0.58098   0.00000  Uiso   1.00
O795   O     0.76469   0.60544   0.57953   0.00000  Uiso   1.00
O796   O     0.83865   0.62711   0.62103   0.00000  Uiso   1.00
N797   N     0.83955   0.62679   0.41402   0.00000  Uiso   1.00
O798   O     0.79778   0.61053   0.39135   0.00000  Uiso   1.00
O799   O     0.87940   0.63345   0.39211   0.00000  Uiso   1.00
N800   N     0.82711   0.37320   0.58598   0.00000  Uiso   1.00
O801   O     0.86888   0.38947   0.60866   0.00000  Uiso   1.00
O802   O     0.78727   0.36654   0.60789   0.00000  Uiso   1.00
N803   N     0.75181   0.46129   0.37200   0.00000  Uiso   1.00
O804   O     0.70688   0.47509   0.35827   0.00000  Uiso   1.00
O805   O     0.75481   0.42628   0.39301   0.00000  Uiso   1.00
N806   N     0.91485   0.53871   0.62800   0.00000  Uiso   1.00
O807   O     0.95978   0.52491   0.64173   0.00000  Uiso   1.00
O808   O     0.91186   0.57371   0.60698   0.00000  Uiso   1.00
Cl809  Cl    0.74864   0.44849   0.60424   0.00000  Uiso   1.00
Cl810  Cl    0.91802   0.55151   0.39576   0.00000  Uiso   1.00
O811   O     0.16666   0.77322   0.53958   0.00000  Uiso   1.00
O812   O     0.16667   0.89345   0.46042   0.00000  Uiso   1.00
O813   O     0.16666   0.77321   0.46039   0.00000  Uiso   1.00
O814   O     0.16667   0.89346   0.53961   0.00000  Uiso   1.00
C815   C     0.16861   0.75417   0.50050   0.00000  Uiso   1.00
C816   C     0.16472   0.91250   0.49950   0.00000  Uiso   1.00
O817   O     0.09161   0.83334   0.53046   0.00000  Uiso   1.00
O818   O     0.24172   0.83333   0.46954   0.00000  Uiso   1.00
O819   O     0.09161   0.83333   0.45127   0.00000  Uiso   1.00
O820   O     0.24172   0.83334   0.54873   0.00000  Uiso   1.00
C821   C     0.06818   0.83245   0.48846   0.00000  Uiso   1.00
C822   C     0.26515   0.83422   0.51154   0.00000  Uiso   1.00
Cu823  Cu    0.16667   0.83334   0.54689   0.00000  Uiso   1.00
Cu824  Cu    0.16667   0.83333   0.45311   0.00000  Uiso   1.00
N825   N     0.16668   0.83334   0.61736   0.00000  Uiso   1.00
N826   N     0.16665   0.83332   0.38264   0.00000  Uiso   1.00
C827   C     0.01353   0.82482   0.48446   0.00000  Uiso   1.00
C828   C     0.31980   0.84185   0.51554   0.00000  Uiso   1.00
C829   C     0.17641   0.68863   0.45964   0.00000  Uiso   1.00
C830   C     0.15693   0.97804   0.54036   0.00000  Uiso   1.00
C831   C     0.17063   0.97967   0.45794   0.00000  Uiso   1.00
C832   C     0.16271   0.68699   0.54206   0.00000  Uiso   1.00
C833   C     0.16266   0.95721   0.49879   0.00000  Uiso   1.00
C834   C     0.17067   0.70946   0.50121   0.00000  Uiso   1.00
C835   C     0.12866   0.81284   0.35371   0.00000  Uiso   1.00
C836   C     0.20467   0.85383   0.64629   0.00000  Uiso   1.00
C837   C     0.12930   0.81225   0.63787   0.00000  Uiso   1.00
C838   C     0.20404   0.85441   0.36213   0.00000  Uiso   1.00
N839   N     0.32547   0.79194   0.45486   0.00000  Uiso   1.00
O840   O     0.29951   0.79945   0.41445   0.00000  Uiso   1.00
O841   O     0.00790   0.75553   0.46380   0.00000  Uiso   1.00
N842   N     0.00786   0.87473   0.54514   0.00000  Uiso   1.00
O843   O     0.03382   0.86722   0.58555   0.00000  Uiso   1.00
O844   O     0.32544   0.91114   0.53619   0.00000  Uiso   1.00
N845   N     0.19015   0.71000   0.41902   0.00000  Uiso   1.00
O846   O     0.23531   0.72790   0.42047   0.00000  Uiso   1.00
O847   O     0.16136   0.70623   0.37897   0.00000  Uiso   1.00
N848   N     0.14319   0.95667   0.58098   0.00000  Uiso   1.00
O849   O     0.09802   0.93877   0.57953   0.00000  Uiso   1.00
O850   O     0.17198   0.96044   0.62103   0.00000  Uiso   1.00
N851   N     0.17288   0.96013   0.41402   0.00000  Uiso   1.00
O852   O     0.13111   0.94387   0.39135   0.00000  Uiso   1.00
O853   O     0.21273   0.96679   0.39211   0.00000  Uiso   1.00
N854   N     0.16045   0.70654   0.58598   0.00000  Uiso   1.00
O855   O     0.20222   0.72280   0.60866   0.00000  Uiso   1.00
O856   O     0.12060   0.69988   0.60789   0.00000  Uiso   1.00
N857   N     0.08515   0.79462   0.37200   0.00000  Uiso   1.00
O858   O     0.04022   0.80842   0.35827   0.00000  Uiso   1.00
O859   O     0.08814   0.75962   0.39301   0.00000  Uiso   1.00
N860   N     0.24819   0.87205   0.62800   0.00000  Uiso   1.00
O861   O     0.29312   0.85824   0.64173   0.00000  Uiso   1.00
O862   O     0.24519   0.90705   0.60698   0.00000  Uiso   1.00
Cl863  Cl    0.08198   0.78182   0.60424   0.00000  Uiso   1.00
Cl864  Cl    0.25136   0.88485   0.39576   0.00000  Uiso   1.00
O865   O     0.50000   0.77322   0.53958   0.00000  Uiso   1.00
O866   O     0.50000   0.89345   0.46042   0.00000  Uiso   1.00
O867   O     0.50000   0.77321   0.46039   0.00000  Uiso   1.00
O868   O     0.50000   0.89346   0.53961   0.00000  Uiso   1.00
C869   C     0.50194   0.75417   0.50050   0.00000  Uiso   1.00
C870   C     0.49806   0.91250   0.49950   0.00000  Uiso   1.00
O871   O     0.42495   0.83334   0.53046   0.00000  Uiso   1.00
O872   O     0.57505   0.83333   0.46954   0.00000  Uiso   1.00
O873   O     0.42494   0.83333   0.45127   0.00000  Uiso   1.00
O874   O     0.57506   0.83334   0.54873   0.00000  Uiso   1.00
C875   C     0.40152   0.83245   0.48846   0.00000  Uiso   1.00
C876   C     0.59848   0.83422   0.51154   0.00000  Uiso   1.00
Cu877  Cu    0.50000   0.83334   0.54689   0.00000  Uiso   1.00
Cu878  Cu    0.50000   0.83333   0.45311   0.00000  Uiso   1.00
N879   N     0.50001   0.83334   0.61736   0.00000  Uiso   1.00
N880   N     0.49999   0.83332   0.38264   0.00000  Uiso   1.00
C881   C     0.34687   0.82482   0.48446   0.00000  Uiso   1.00
C882   C     0.65313   0.84185   0.51554   0.00000  Uiso   1.00
C883   C     0.50974   0.68863   0.45964   0.00000  Uiso   1.00
C884   C     0.49026   0.97804   0.54036   0.00000  Uiso   1.00
C885   C     0.50396   0.97967   0.45794   0.00000  Uiso   1.00
C886   C     0.49604   0.68699   0.54206   0.00000  Uiso   1.00
C887   C     0.49600   0.95721   0.49879   0.00000  Uiso   1.00
C888   C     0.50400   0.70946   0.50121   0.00000  Uiso   1.00
C889   C     0.46199   0.81284   0.35371   0.00000  Uiso   1.00
C890   C     0.53801   0.85383   0.64629   0.00000  Uiso   1.00
C891   C     0.46263   0.81225   0.63787   0.00000  Uiso   1.00
C892   C     0.53737   0.85441   0.36213   0.00000  Uiso   1.00
N893   N     0.65881   0.79194   0.45486   0.00000  Uiso   1.00
O894   O     0.63285   0.79945   0.41445   0.00000  Uiso   1.00
O895   O     0.34123   0.75553   0.46380   0.00000  Uiso   1.00
N896   N     0.34119   0.87473   0.54514   0.00000  Uiso   1.00
O897   O     0.36715   0.86722   0.58555   0.00000  Uiso   1.00
O898   O     0.65877   0.91114   0.53619   0.00000  Uiso   1.00
N899   N     0.52348   0.71000   0.41902   0.00000  Uiso   1.00
O900   O     0.56865   0.72790   0.42047   0.00000  Uiso   1.00
O901   O     0.49469   0.70623   0.37897   0.00000  Uiso   1.00
N902   N     0.47652   0.95667   0.58098   0.00000  Uiso   1.00
O903   O     0.43135   0.93877   0.57953   0.00000  Uiso   1.00
O904   O     0.50531   0.96044   0.62103   0.00000  Uiso   1.00
N905   N     0.50622   0.96013   0.41402   0.00000  Uiso   1.00
O906   O     0.46445   0.94387   0.39135   0.00000  Uiso   1.00
O907   O     0.54606   0.96679   0.39211   0.00000  Uiso   1.00
N908   N     0.49378   0.70654   0.58598   0.00000  Uiso   1.00
O909   O     0.53555   0.72280   0.60866   0.00000  Uiso   1.00
O910   O     0.45393   0.69988   0.60789   0.00000  Uiso   1.00
N911   N     0.41848   0.79462   0.37200   0.00000  Uiso   1.00
O912   O     0.37355   0.80842   0.35827   0.00000  Uiso   1.00
O913   O     0.42148   0.75962   0.39301   0.00000  Uiso   1.00
N914   N     0.58152   0.87205   0.62800   0.00000  Uiso   1.00
O915   O     0.62645   0.85824   0.64173   0.00000  Uiso   1.00
O916   O     0.57852   0.90705   0.60698   0.00000  Uiso   1.00
Cl917  Cl    0.41531   0.78182   0.60424   0.00000  Uiso   1.00
Cl918  Cl    0.58469   0.88485   0.39576   0.00000  Uiso   1.00
O919   O     0.83333   0.77322   0.53958   0.00000  Uiso   1.00
O920   O     0.83334   0.89345   0.46042   0.00000  Uiso   1.00
O921   O     0.83333   0.77321   0.46039   0.00000  Uiso   1.00
O922   O     0.83334   0.89346   0.53961   0.00000  Uiso   1.00
C923   C     0.83528   0.75417   0.50050   0.00000  Uiso   1.00
C924   C     0.83139   0.91250   0.49950   0.00000  Uiso   1.00
O925   O     0.75828   0.83334   0.53046   0.00000  Uiso   1.00
O926   O     0.90839   0.83333   0.46954   0.00000  Uiso   1.00
O927   O     0.75828   0.83333   0.45127   0.00000  Uiso   1.00
O928   O     0.90839   0.83334   0.54873   0.00000  Uiso   1.00
C929   C     0.73485   0.83245   0.48846   0.00000  Uiso   1.00
C930   C     0.93182   0.83422   0.51154   0.00000  Uiso   1.00
Cu931  Cu    0.83333   0.83334   0.54689   0.00000  Uiso   1.00
Cu932  Cu    0.83333   0.83333   0.45311   0.00000  Uiso   1.00
N933   N     0.83335   0.83334   0.61736   0.00000  Uiso   1.00
N934   N     0.83332   0.83332   0.38264   0.00000  Uiso   1.00
C935   C     0.68020   0.82482   0.48446   0.00000  Uiso   1.00
C936   C     0.98647   0.84185   0.51554   0.00000  Uiso   1.00
C937   C     0.84307   0.68863   0.45964   0.00000  Uiso   1.00
C938   C     0.82359   0.97804   0.54036   0.00000  Uiso   1.00
C939   C     0.83729   0.97967   0.45794   0.00000  Uiso   1.00
C940   C     0.82937   0.68699   0.54206   0.00000  Uiso   1.00
C941   C     0.82933   0.95721   0.49879   0.00000  Uiso   1.00
C942   C     0.83734   0.70946   0.50121   0.00000  Uiso   1.00
C943   C     0.79533   0.81284   0.35371   0.00000  Uiso   1.00
C944   C     0.87134   0.85383   0.64629   0.00000  Uiso   1.00
C945   C     0.79596   0.81225   0.63787   0.00000  Uiso   1.00
C946   C     0.87070   0.85441   0.36213   0.00000  Uiso   1.00
N947   N     0.99214   0.79194   0.45486   0.00000  Uiso   1.00
O948   O     0.96618   0.79945   0.41445   0.00000  Uiso   1.00
O949   O     0.67456   0.75553   0.46380   0.00000  Uiso   1.00
N950   N     0.67453   0.87473   0.54514   0.00000  Uiso   1.00
O951   O     0.70048   0.86722   0.58555   0.00000  Uiso   1.00
O952   O     0.99211   0.91114   0.53619   0.00000  Uiso   1.00
N953   N     0.85681   0.71000   0.41902   0.00000  Uiso   1.00
O954   O     0.90198   0.72790   0.42047   0.00000  Uiso   1.00
O955   O     0.82802   0.70623   0.37897   0.00000  Uiso   1.00
N956   N     0.80986   0.95667   0.58098   0.00000  Uiso   1.00
O957   O     0.76469   0.93877   0.57953   0.00000  Uiso   1.00
O958   O     0.83865   0.96044   0.62103   0.00000  Uiso   1.00
N959   N     0.83955   0.96013   0.41402   0.00000  Uiso   1.00
O960   O     0.79778   0.94387   0.39135   0.00000  Uiso   1.00
O961   O     0.87940   0.96679   0.39211   0.00000  Uiso   1.00
N962   N     0.82711   0.70654   0.58598   0.00000  Uiso   1.00
O963   O     0.86888   0.72280   0.60866   0.00000  Uiso   1.00
O964   O     0.78727   0.69988   0.60789   0.00000  Uiso   1.00
N965   N     0.75181   0.79462   0.37200   0.00000  Uiso   1.00
O966   O     0.70688   0.80842   0.35827   0.00000  Uiso   1.00
O967   O     0.75481   0.75962   0.39301   0.00000  Uiso   1.00
N968   N     0.91485   0.87205   0.62800   0.00000  Uiso   1.00
O969   O     0.95978   0.85824   0.64173   0.00000  Uiso   1.00
O970   O     0.91186   0.90705   0.60698   0.00000  Uiso   1.00
Cl971  Cl    0.74864   0.78182   0.60424   0.00000  Uiso   1.00
Cl972  Cl    0.91802   0.88485   0.39576   0.00000  Uiso   1.00
O973   O     0.16666   0.10655   0.87291   0.00000  Uiso   1.00
O974   O     0.16667   0.22678   0.79375   0.00000  Uiso   1.00
O975   O     0.16666   0.10654   0.79372   0.00000  Uiso   1.00
O976   O     0.16667   0.22679   0.87294   0.00000  Uiso   1.00
C977   C     0.16861   0.08750   0.83383   0.00000  Uiso   1.00
C978   C     0.16472   0.24583   0.83284   0.00000  Uiso   1.00
O979   O     0.09161   0.16667   0.86379   0.00000  Uiso   1.00
O980   O     0.24172   0.16666   0.80288   0.00000  Uiso   1.00
O981   O     0.09161   0.16666   0.78460   0.00000  Uiso   1.00
O982   O     0.24172   0.16667   0.88207   0.00000  Uiso   1.00
C983   C     0.06818   0.16578   0.82180   0.00000  Uiso   1.00
C984   C     0.26515   0.16755   0.84487   0.00000  Uiso   1.00
Cu985  Cu    0.16667   0.16667   0.88022   0.00000  Uiso   1.00
Cu986  Cu    0.16667   0.16666   0.78645   0.00000  Uiso   1.00
N987   N     0.16668   0.16668   0.95069   0.00000  Uiso   1.00
N988   N     0.16665   0.16666   0.71597   0.00000  Uiso   1.00
C989   C     0.01353   0.15815   0.81779   0.00000  Uiso   1.00
C990   C     0.31980   0.17518   0.84888   0.00000  Uiso   1.00
C991   C     0.17641   0.02196   0.79297   0.00000  Uiso   1.00
C992   C     0.15693   0.31137   0.87369   0.00000  Uiso   1.00
C993   C     0.17063   0.31300   0.79127   0.00000  Uiso   1.00
C994   C     0.16271   0.02033   0.87540   0.00000  Uiso   1.00
C995   C     0.16266   0.29054   0.83213   0.00000  Uiso   1.00
C996   C     0.17067   0.04279   0.83454   0.00000  Uiso   1.00
C997   C     0.12866   0.14617   0.68704   0.00000  Uiso   1.00
C998   C     0.20467   0.18716   0.97963   0.00000  Uiso   1.00
C999   C     0.12930   0.14559   0.97120   0.00000  Uiso   1.00
C1000  C     0.20404   0.18774   0.69546   0.00000  Uiso   1.00
N1001  N     0.32547   0.12527   0.78819   0.00000  Uiso   1.00
O1002  O     0.29951   0.13278   0.74779   0.00000  Uiso   1.00
O1003  O     0.00790   0.08886   0.79714   0.00000  Uiso   1.00
N1004  N     0.00786   0.20806   0.87847   0.00000  Uiso   1.00
O1005  O     0.03382   0.20055   0.91888   0.00000  Uiso   1.00
O1006  O     0.32544   0.24447   0.86953   0.00000  Uiso   1.00
N1007  N     0.19015   0.04333   0.75235   0.00000  Uiso   1.00
O1008  O     0.23531   0.06123   0.75381   0.00000  Uiso   1.00
O1009  O     0.16136   0.03956   0.71230   0.00000  Uiso   1.00
N1010  N     0.14319   0.29000   0.91431   0.00000  Uiso   1.00
O1011  O     0.09802   0.27210   0.91286   0.00000  Uiso   1.00
O1012  O     0.17198   0.29377   0.95437   0.00000  Uiso   1.00
N1013  N     0.17288   0.29346   0.74735   0.00000  Uiso   1.00
O1014  O     0.13111   0.27720   0.72468   0.00000  Uiso   1.00
O1015  O     0.21273   0.30012   0.72545   0.00000  Uiso   1.00
N1016  N     0.16045   0.03987   0.91931   0.00000  Uiso   1.00
O1017  O     0.20222   0.05613   0.94199   0.00000  Uiso   1.00
O1018  O     0.12060   0.03321   0.94122   0.00000  Uiso   1.00
N1019  N     0.08515   0.12795   0.70534   0.00000  Uiso   1.00
O1020  O     0.04022   0.14176   0.69160   0.00000  Uiso   1.00
O1021  O     0.08814   0.09295   0.72635   0.00000  Uiso   1.00
N1022  N     0.24819   0.20538   0.96133   0.00000  Uiso   1.00
O1023  O     0.29312   0.19158   0.97507   0.00000  Uiso   1.00
O1024  O     0.24519   0.24038   0.94032   0.00000  Uiso   1.00
Cl1025 Cl    0.08198   0.11515   0.93758   0.00000  Uiso   1.00
Cl1026 Cl    0.25136   0.21818   0.72909   0.00000  Uiso   1.00
O1027  O     0.50000   0.10655   0.87291   0.00000  Uiso   1.00
O1028  O     0.50000   0.22678   0.79375   0.00000  Uiso   1.00
O1029  O     0.50000   0.10654   0.79372   0.00000  Uiso   1.00
O1030  O     0.50000   0.22679   0.87294   0.00000  Uiso   1.00
C1031  C     0.50194   0.08750   0.83383   0.00000  Uiso   1.00
C1032  C     0.49806   0.24583   0.83284   0.00000  Uiso   1.00
O1033  O     0.42495   0.16667   0.86379   0.00000  Uiso   1.00
O1034  O     0.57505   0.16666   0.80288   0.00000  Uiso   1.00
O1035  O     0.42494   0.16666   0.78460   0.00000  Uiso   1.00
O1036  O     0.57506   0.16667   0.88207   0.00000  Uiso   1.00
C1037  C     0.40152   0.16578   0.82180   0.00000  Uiso   1.00
C1038  C     0.59848   0.16755   0.84487   0.00000  Uiso   1.00
Cu1039 Cu    0.50000   0.16667   0.88022   0.00000  Uiso   1.00
Cu1040 Cu    0.50000   0.16666   0.78645   0.00000  Uiso   1.00
N1041  N     0.50001   0.16668   0.95069   0.00000  Uiso   1.00
N1042  N     0.49999   0.16666   0.71597   0.00000  Uiso   1.00
C1043  C     0.34687   0.15815   0.81779   0.00000  Uiso   1.00
C1044  C     0.65313   0.17518   0.84888   0.00000  Uiso   1.00
C1045  C     0.50974   0.02196   0.79297   0.00000  Uiso   1.00
C1046  C     0.49026   0.31137   0.87369   0.00000  Uiso   1.00
C1047  C     0.50396   0.31300   0.79127   0.00000  Uiso   1.00
C1048  C     0.49604   0.02033   0.87540   0.00000  Uiso   1.00
C1049  C     0.49600   0.29054   0.83213   0.00000  Uiso   1.00
C1050  C     0.50400   0.04279   0.83454   0.00000  Uiso   1.00
C1051  C     0.46199   0.14617   0.68704   0.00000  Uiso   1.00
C1052  C     0.53801   0.18716   0.97963   0.00000  Uiso   1.00
C1053  C     0.46263   0.14559   0.97120   0.00000  Uiso   1.00
C1054  C     0.53737   0.18774   0.69546   0.00000  Uiso   1.00
N1055  N     0.65881   0.12527   0.78819   0.00000  Uiso   1.00
O1056  O     0.63285   0.13278   0.74779   0.00000  Uiso   1.00
O1057  O     0.34123   0.08886   0.79714   0.00000  Uiso   1.00
N1058  N     0.34119   0.20806   0.87847   0.00000  Uiso   1.00
O1059  O     0.36715   0.20055   0.91888   0.00000  Uiso   1.00
O1060  O     0.65877   0.24447   0.86953   0.00000  Uiso   1.00
N1061  N     0.52348   0.04333   0.75235   0.00000  Uiso   1.00
O1062  O     0.56865   0.06123   0.75381   0.00000  Uiso   1.00
O1063  O     0.49469   0.03956   0.71230   0.00000  Uiso   1.00
N1064  N     0.47652   0.29000   0.91431   0.00000  Uiso   1.00
O1065  O     0.43135   0.27210   0.91286   0.00000  Uiso   1.00
O1066  O     0.50531   0.29377   0.95437   0.00000  Uiso   1.00
N1067  N     0.50622   0.29346   0.74735   0.00000  Uiso   1.00
O1068  O     0.46445   0.27720   0.72468   0.00000  Uiso   1.00
O1069  O     0.54606   0.30012   0.72545   0.00000  Uiso   1.00
N1070  N     0.49378   0.03987   0.91931   0.00000  Uiso   1.00
O1071  O     0.53555   0.05613   0.94199   0.00000  Uiso   1.00
O1072  O     0.45393   0.03321   0.94122   0.00000  Uiso   1.00
N1073  N     0.41848   0.12795   0.70534   0.00000  Uiso   1.00
O1074  O     0.37355   0.14176   0.69160   0.00000  Uiso   1.00
O1075  O     0.42148   0.09295   0.72635   0.00000  Uiso   1.00
N1076  N     0.58152   0.20538   0.96133   0.00000  Uiso   1.00
O1077  O     0.62645   0.19158   0.97507   0.00000  Uiso   1.00
O1078  O     0.57852   0.24038   0.94032   0.00000  Uiso   1.00
Cl1079 Cl    0.41531   0.11515   0.93758   0.00000  Uiso   1.00
Cl1080 Cl    0.58469   0.21818   0.72909   0.00000  Uiso   1.00
O1081  O     0.83333   0.10655   0.87291   0.00000  Uiso   1.00
O1082  O     0.83334   0.22678   0.79375   0.00000  Uiso   1.00
O1083  O     0.83333   0.10654   0.79372   0.00000  Uiso   1.00
O1084  O     0.83334   0.22679   0.87294   0.00000  Uiso   1.00
C1085  C     0.83528   0.08750   0.83383   0.00000  Uiso   1.00
C1086  C     0.83139   0.24583   0.83284   0.00000  Uiso   1.00
O1087  O     0.75828   0.16667   0.86379   0.00000  Uiso   1.00
O1088  O     0.90839   0.16666   0.80288   0.00000  Uiso   1.00
O1089  O     0.75828   0.16666   0.78460   0.00000  Uiso   1.00
O1090  O     0.90839   0.16667   0.88207   0.00000  Uiso   1.00
C1091  C     0.73485   0.16578   0.82180   0.00000  Uiso   1.00
C1092  C     0.93182   0.16755   0.84487   0.00000  Uiso   1.00
Cu1093 Cu    0.83333   0.16667   0.88022   0.00000  Uiso   1.00
Cu1094 Cu    0.83333   0.16666   0.78645   0.00000  Uiso   1.00
N1095  N     0.83335   0.16668   0.95069   0.00000  Uiso   1.00
N1096  N     0.83332   0.16666   0.71597   0.00000  Uiso   1.00
C1097  C     0.68020   0.15815   0.81779   0.00000  Uiso   1.00
C1098  C     0.98647   0.17518   0.84888   0.00000  Uiso   1.00
C1099  C     0.84307   0.02196   0.79297   0.00000  Uiso   1.00
C1100  C     0.82359   0.31137   0.87369   0.00000  Uiso   1.00
C1101  C     0.83729   0.31300   0.79127   0.00000  Uiso   1.00
C1102  C     0.82937   0.02033   0.87540   0.00000  Uiso   1.00
C1103  C     0.82933   0.29054   0.83213   0.00000  Uiso   1.00
C1104  C     0.83734   0.04279   0.83454   0.00000  Uiso   1.00
C1105  C     0.79533   0.14617   0.68704   0.00000  Uiso   1.00
C1106  C     0.87134   0.18716   0.97963   0.00000  Uiso   1.00
C1107  C     0.79596   0.14559   0.97120   0.00000  Uiso   1.00
C1108  C     0.87070   0.18774   0.69546   0.00000  Uiso   1.00
N1109  N     0.99214   0.12527   0.78819   0.00000  Uiso   1.00
O1110  O     0.96618   0.13278   0.74779   0.00000  Uiso   1.00
O1111  O     0.67456   0.08886   0.79714   0.00000  Uiso   1.00
N1112  N     0.67453   0.20806   0.87847   0.00000  Uiso   1.00
O1113  O     0.70048   0.20055   0.91888   0.00000  Uiso   1.00
O1114  O     0.99211   0.24447   0.86953   0.00000  Uiso   1.00
N1115  N     0.85681   0.04333   0.75235   0.00000  Uiso   1.00
O1116  O     0.90198   0.06123   0.75381   0.00000  Uiso   1.00
O1117  O     0.82802   0.03956   0.71230   0.00000  Uiso   1.00
N1118  N     0.80986   0.29000   0.91431   0.00000  Uiso   1.00
O1119  O     0.76469   0.27210   0.91286   0.00000  Uiso   1.00
O1120  O     0.83865   0.29377   0.95437   0.00000  Uiso   1.00
N1121  N     0.83955   0.29346   0.74735   0.00000  Uiso   1.00
O1122  O     0.79778   0.27720   0.72468   0.00000  Uiso   1.00
O1123  O     0.87940   0.30012   0.72545   0.00000  Uiso   1.00
N1124  N     0.82711   0.03987   0.91931   0.00000  Uiso   1.00
O1125  O     0.86888   0.05613   0.94199   0.00000  Uiso   1.00
O1126  O     0.78727   0.03321   0.94122   0.00000  Uiso   1.00
N1127  N     0.75181   0.12795   0.70534   0.00000  Uiso   1.00
O1128  O     0.70688   0.14176   0.69160   0.00000  Uiso   1.00
O1129  O     0.75481   0.09295   0.72635   0.00000  Uiso   1.00
N1130  N     0.91485   0.20538   0.96133   0.00000  Uiso   1.00
O1131  O     0.95978   0.19158   0.97507   0.00000  Uiso   1.00
O1132  O     0.91186   0.24038   0.94032   0.00000  Uiso   1.00
Cl1133 Cl    0.74864   0.11515   0.93758   0.00000  Uiso   1.00
Cl1134 Cl    0.91802   0.21818   0.72909   0.00000  Uiso   1.00
O1135  O     0.16666   0.43989   0.87291   0.00000  Uiso   1.00
O1136  O     0.16667   0.56011   0.79375   0.00000  Uiso   1.00
O1137  O     0.16666   0.43988   0.79372   0.00000  Uiso   1.00
O1138  O     0.16667   0.56012   0.87294   0.00000  Uiso   1.00
C1139  C     0.16861   0.42083   0.83383   0.00000  Uiso   1.00
C1140  C     0.16472   0.57917   0.83284   0.00000  Uiso   1.00
O1141  O     0.09161   0.50000   0.86379   0.00000  Uiso   1.00
O1142  O     0.24172   0.50000   0.80288   0.00000  Uiso   1.00
O1143  O     0.09161   0.49999   0.78460   0.00000  Uiso   1.00
O1144  O     0.24172   0.50001   0.88207   0.00000  Uiso   1.00
C1145  C     0.06818   0.49912   0.82180   0.00000  Uiso   1.00
C1146  C     0.26515   0.50088   0.84487   0.00000  Uiso   1.00
Cu1147 Cu    0.16667   0.50001   0.88022   0.00000  Uiso   1.00
Cu1148 Cu    0.16667   0.49999   0.78645   0.00000  Uiso   1.00
N1149  N     0.16668   0.50001   0.95069   0.00000  Uiso   1.00
N1150  N     0.16665   0.49999   0.71597   0.00000  Uiso   1.00
C1151  C     0.01353   0.49148   0.81779   0.00000  Uiso   1.00
C1152  C     0.31980   0.50852   0.84888   0.00000  Uiso   1.00
C1153  C     0.17641   0.35529   0.79297   0.00000  Uiso   1.00
C1154  C     0.15693   0.64471   0.87369   0.00000  Uiso   1.00
C1155  C     0.17063   0.64634   0.79127   0.00000  Uiso   1.00
C1156  C     0.16271   0.35366   0.87540   0.00000  Uiso   1.00
C1157  C     0.16266   0.62388   0.83213   0.00000  Uiso   1.00
C1158  C     0.17067   0.37612   0.83454   0.00000  Uiso   1.00
C1159  C     0.12866   0.47951   0.68704   0.00000  Uiso   1.00
C1160  C     0.20467   0.52049   0.97963   0.00000  Uiso   1.00
C1161  C     0.12930   0.47892   0.97120   0.00000  Uiso   1.00
C1162  C     0.20404   0.52108   0.69546   0.00000  Uiso   1.00
N1163  N     0.32547   0.45860   0.78819   0.00000  Uiso   1.00
O1164  O     0.29951   0.46612   0.74779   0.00000  Uiso   1.00
O1165  O     0.00790   0.42219   0.79714   0.00000  Uiso   1.00
N1166  N     0.00786   0.54140   0.87847   0.00000  Uiso   1.00
O1167  O     0.03382   0.53388   0.91888   0.00000  Uiso   1.00
O1168  O     0.32544   0.57781   0.86953   0.00000  Uiso   1.00
N1169  N     0.19015   0.37667   0.75235   0.00000  Uiso   1.00
O1170  O     0.23531   0.39456   0.75381   0.00000  Uiso   1.00
O1171  O     0.16136   0.37289   0.71230   0.00000  Uiso   1.00
N1172  N     0.14319   0.62333   0.91431   0.00000  Uiso   1.00
O1173  O     0.09802   0.60544   0.91286   0.00000  Uiso   1.00
O1174  O     0.17198   0.62711   0.95437   0.00000  Uiso   1.00
N1175  N     0.17288   0.62679   0.74735   0.00000  Uiso   1.00
O1176  O     0.13111   0.61053   0.72468   0.00000  Uiso   1.00
O1177  O     0.21273   0.63345   0.72545   0.00000  Uiso   1.00
N1178  N     0.16045   0.37320   0.91931   0.00000  Uiso   1.00
O1179  O     0.20222   0.38947   0.94199   0.00000  Uiso   1.00
O1180  O     0.12060   0.36654   0.94122   0.00000  Uiso   1.00
N1181  N     0.08515   0.46129   0.70534   0.00000  Uiso   1.00
O1182  O     0.04022   0.47509   0.69160   0.00000  Uiso   1.00
O1183  O     0.08814   0.42628   0.72635   0.00000  Uiso   1.00
N1184  N     0.24819   0.53871   0.96133   0.00000  Uiso   1.00
O1185  O     0.29312   0.52491   0.97507   0.00000  Uiso   1.00
O1186  O     0.24519   0.57371   0.94032   0.00000  Uiso   1.00
Cl1187 Cl    0.08198   0.44849   0.93758   0.00000  Uiso   1.00
Cl1188 Cl    0.25136   0.55151   0.72909   0.00000  Uiso   1.00
O1189  O     0.50000   0.43989   0.87291   0.00000  Uiso   1.00
O1190  O     0.50000   0.56011   0.79375   0.00000  Uiso   1.00
O1191  O     0.50000   0.43988   0.79372   0.00000  Uiso   1.00
O1192  O     0.50000   0.56012   0.87294   0.00000  Uiso   1.00
C1193  C     0.50194   0.42083   0.83383   0.00000  Uiso   1.00
C1194  C     0.49806   0.57917   0.83284   0.00000  Uiso   1.00
O1195  O     0.42495   0.50000   0.86379   0.00000  Uiso   1.00
O1196  O     0.57505   0.50000   0.80288   0.00000  Uiso   1.00
O1197  O     0.42494   0.49999   0.78460   0.00000  Uiso   1.00
O1198  O     0.57506   0.50001   0.88207   0.00000  Uiso   1.00
C1199  C     0.40152   0.49912   0.82180   0.00000  Uiso   1.00
C1200  C     0.59848   0.50088   0.84487   0.00000  Uiso   1.00
Cu1201 Cu    0.50000   0.50001   0.88022   0.00000  Uiso   1.00
Cu1202 Cu    0.50000   0.49999   0.78645   0.00000  Uiso   1.00
N1203  N     0.50001   0.50001   0.95069   0.00000  Uiso   1.00
N1204  N     0.49999   0.49999   0.71597   0.00000  Uiso   1.00
C1205  C     0.34687   0.49148   0.81779   0.00000  Uiso   1.00
C1206  C     0.65313   0.50852   0.84888   0.00000  Uiso   1.00
C1207  C     0.50974   0.35529   0.79297   0.00000  Uiso   1.00
C1208  C     0.49026   0.64471   0.87369   0.00000  Uiso   1.00
C1209  C     0.50396   0.64634   0.79127   0.00000  Uiso   1.00
C1210  C     0.49604   0.35366   0.87540   0.00000  Uiso   1.00
C1211  C     0.49600   0.62388   0.83213   0.00000  Uiso   1.00
C1212  C     0.50400   0.37612   0.83454   0.00000  Uiso   1.00
C1213  C     0.46199   0.47951   0.68704   0.00000  Uiso   1.00
C1214  C     0.53801   0.52049   0.97963   0.00000  Uiso   1.00
C1215  C     0.46263   0.47892   0.97120   0.00000  Uiso   1.00
C1216  C     0.53737   0.52108   0.69546   0.00000  Uiso   1.00
N1217  N     0.65881   0.45860   0.78819   0.00000  Uiso   1.00
O1218  O     0.63285   0.46612   0.74779   0.00000  Uiso   1.00
O1219  O     0.34123   0.42219   0.79714   0.00000  Uiso   1.00
N1220  N     0.34119   0.54140   0.87847   0.00000  Uiso   1.00
O1221  O     0.36715   0.53388   0.91888   0.00000  Uiso   1.00
O1222  O     0.65877   0.57781   0.86953   0.00000  Uiso   1.00
N1223  N     0.52348   0.37667   0.75235   0.00000  Uiso   1.00
O1224  O     0.56865   0.39456   0.75381   0.00000  Uiso   1.00
O1225  O     0.49469   0.37289   0.71230   0.00000  Uiso   1.00
N1226  N     0.47652   0.62333   0.91431   0.00000  Uiso   1.00
O1227  O     0.43135   0.60544   0.91286   0.00000  Uiso   1.00
O1228  O     0.50531   0.62711   0.95437   0.00000  Uiso   1.00
N1229  N     0.50622   0.62679   0.74735   0.00000  Uiso   1.00
O1230  O     0.46445   0.61053   0.72468   0.00000  Uiso   1.00
O1231  O     0.54606   0.63345   0.72545   0.00000  Uiso   1.00
N1232  N     0.49378   0.37320   0.91931   0.00000  Uiso   1.00
O1233  O     0.53555   0.38947   0.94199   0.00000  Uiso   1.00
O1234  O     0.45393   0.36654   0.94122   0.00000  Uiso   1.00
N1235  N     0.41848   0.46129   0.70534   0.00000  Uiso   1.00
O1236  O     0.37355   0.47509   0.69160   0.00000  Uiso   1.00
O1237  O     0.42148   0.42628   0.72635   0.00000  Uiso   1.00
N1238  N     0.58152   0.53871   0.96133   0.00000  Uiso   1.00
O1239  O     0.62645   0.52491   0.97507   0.00000  Uiso   1.00
O1240  O     0.57852   0.57371   0.94032   0.00000  Uiso   1.00
Cl1241 Cl    0.41531   0.44849   0.93758   0.00000  Uiso   1.00
Cl1242 Cl    0.58469   0.55151   0.72909   0.00000  Uiso   1.00
O1243  O     0.83333   0.43989   0.87291   0.00000  Uiso   1.00
O1244  O     0.83334   0.56011   0.79375   0.00000  Uiso   1.00
O1245  O     0.83333   0.43988   0.79372   0.00000  Uiso   1.00
O1246  O     0.83334   0.56012   0.87294   0.00000  Uiso   1.00
C1247  C     0.83528   0.42083   0.83383   0.00000  Uiso   1.00
C1248  C     0.83139   0.57917   0.83284   0.00000  Uiso   1.00
O1249  O     0.75828   0.50000   0.86379   0.00000  Uiso   1.00
O1250  O     0.90839   0.50000   0.80288   0.00000  Uiso   1.00
O1251  O     0.75828   0.49999   0.78460   0.00000  Uiso   1.00
O1252  O     0.90839   0.50001   0.88207   0.00000  Uiso   1.00
C1253  C     0.73485   0.49912   0.82180   0.00000  Uiso   1.00
C1254  C     0.93182   0.50088   0.84487   0.00000  Uiso   1.00
Cu1255 Cu    0.83333   0.50001   0.88022   0.00000  Uiso   1.00
Cu1256 Cu    0.83333   0.49999   0.78645   0.00000  Uiso   1.00
N1257  N     0.83335   0.50001   0.95069   0.00000  Uiso   1.00
N1258  N     0.83332   0.49999   0.71597   0.00000  Uiso   1.00
C1259  C     0.68020   0.49148   0.81779   0.00000  Uiso   1.00
C1260  C     0.98647   0.50852   0.84888   0.00000  Uiso   1.00
C1261  C     0.84307   0.35529   0.79297   0.00000  Uiso   1.00
C1262  C     0.82359   0.64471   0.87369   0.00000  Uiso   1.00
C1263  C     0.83729   0.64634   0.79127   0.00000  Uiso   1.00
C1264  C     0.82937   0.35366   0.87540   0.00000  Uiso   1.00
C1265  C     0.82933   0.62388   0.83213   0.00000  Uiso   1.00
C1266  C     0.83734   0.37612   0.83454   0.00000  Uiso   1.00
C1267  C     0.79533   0.47951   0.68704   0.00000  Uiso   1.00
C1268  C     0.87134   0.52049   0.97963   0.00000  Uiso   1.00
C1269  C     0.79596   0.47892   0.97120   0.00000  Uiso   1.00
C1270  C     0.87070   0.52108   0.69546   0.00000  Uiso   1.00
N1271  N     0.99214   0.45860   0.78819   0.00000  Uiso   1.00
O1272  O     0.96618   0.46612   0.74779   0.00000  Uiso   1.00
O1273  O     0.67456   0.42219   0.79714   0.00000  Uiso   1.00
N1274  N     0.67453   0.54140   0.87847   0.00000  Uiso   1.00
O1275  O     0.70048   0.53388   0.91888   0.00000  Uiso   1.00
O1276  O     0.99211   0.57781   0.86953   0.00000  Uiso   1.00
N1277  N     0.85681   0.37667   0.75235   0.00000  Uiso   1.00
O1278  O     0.90198   0.39456   0.75381   0.00000  Uiso   1.00
O1279  O     0.82802   0.37289   0.71230   0.00000  Uiso   1.00
N1280  N     0.80986   0.62333   0.91431   0.00000  Uiso   1.00
O1281  O     0.76469   0.60544   0.91286   0.00000  Uiso   1.00
O1282  O     0.83865   0.62711   0.95437   0.00000  Uiso   1.00
N1283  N     0.83955   0.62679   0.74735   0.00000  Uiso   1.00
O1284  O     0.79778   0.61053   0.72468   0.00000  Uiso   1.00
O1285  O     0.87940   0.63345   0.72545   0.00000  Uiso   1.00
N1286  N     0.82711   0.37320   0.91931   0.00000  Uiso   1.00
O1287  O     0.86888   0.38947   0.94199   0.00000  Uiso   1.00
O1288  O     0.78727   0.36654   0.94122   0.00000  Uiso   1.00
N1289  N     0.75181   0.46129   0.70534   0.00000  Uiso   1.00
O1290  O     0.70688   0.47509   0.69160   0.00000  Uiso   1.00
O1291  O     0.75481   0.42628   0.72635   0.00000  Uiso   1.00
N1292  N     0.91485   0.53871   0.96133   0.00000  Uiso   1.00
O1293  O     0.95978   0.52491   0.97507   0.00000  Uiso   1.00
O1294  O     0.91186   0.57371   0.94032   0.00000  Uiso   1.00
Cl1295 Cl    0.74864   0.44849   0.93758   0.00000  Uiso   1.00
Cl1296 Cl    0.91802   0.55151   0.72909   0.00000  Uiso   1.00
O1297  O     0.16666   0.77322   0.87291   0.00000  Uiso   1.00
O1298  O     0.16667   0.89345   0.79375   0.00000  Uiso   1.00
O1299  O     0.16666   0.77321   0.79372   0.00000  Uiso   1.00
O1300  O     0.16667   0.89346   0.87294   0.00000  Uiso   1.00
C1301  C     0.16861   0.75417   0.83383   0.00000  Uiso   1.00
C1302  C     0.16472   0.91250   0.83284   0.00000  Uiso   1.00
O1303  O     0.09161   0.83334   0.86379   0.00000  Uiso   1.00
O1304  O     0.24172   0.83333   0.80288   0.00000  Uiso   1.00
O1305  O     0.09161   0.83333   0.78460   0.00000  Uiso   1.00
O1306  O     0.24172   0.83334   0.88207   0.00000  Uiso   1.00
C1307  C     0.06818   0.83245   0.82180   0.00000  Uiso   1.00
C1308  C     0.26515   0.83422   0.84487   0.00000  Uiso   1.00
Cu1309 Cu    0.16667   0.83334   0.88022   0.00000  Uiso   1.00
Cu1310 Cu    0.16667   0.83333   0.78645   0.00000  Uiso   1.00
N1311  N     0.16668   0.83334   0.95069   0.00000  Uiso   1.00
N1312  N     0.16665   0.83332   0.71597   0.00000  Uiso   1.00
C1313  C     0.01353   0.82482   0.81779   0.00000  Uiso   1.00
C1314  C     0.31980   0.84185   0.84888   0.00000  Uiso   1.00
C1315  C     0.17641   0.68863   0.79297   0.00000  Uiso   1.00
C1316  C     0.15693   0.97804   0.87369   0.00000  Uiso   1.00
C1317  C     0.17063   0.97967   0.79127   0.00000  Uiso   1.00
C1318  C     0.16271   0.68699   0.87540   0.00000  Uiso   1.00
C1319  C     0.16266   0.95721   0.83213   0.00000  Uiso   1.00
C1320  C     0.17067   0.70946   0.83454   0.00000  Uiso   1.00
C1321  C     0.12866   0.81284   0.68704   0.00000  Uiso   1.00
C1322  C     0.20467   0.85383   0.97963   0.00000  Uiso   1.00
C1323  C     0.12930   0.81225   0.97120   0.00000  Uiso   1.00
C1324  C     0.20404   0.85441   0.69546   0.00000  Uiso   1.00
N1325  N     0.32547   0.79194   0.78819   0.00000  Uiso   1.00
O1326  O     0.29951   0.79945   0.74779   0.00000  Uiso   1.00
O1327  O     0.00790   0.75553   0.79714   0.00000  Uiso   1.00
N1328  N     0.00786   0.87473   0.87847   0.00000  Uiso   1.00
O1329  O     0.03382   0.86722   0.91888   0.00000  Uiso   1.00
O1330  O     0.32544   0.91114   0.86953   0.00000  Uiso   1.00
N1331  N     0.19015   0.71000   0.75235   0.00000  Uiso   1.00
O1332  O     0.23531   0.72790   0.75381   0.00000  Uiso   1.00
O1333  O     0.16136   0.70623   0.71230   0.00000  Uiso   1.00
N1334  N     0.14319   0.95667   0.91431   0.00000  Uiso   1.00
O1335  O     0.09802   0.93877   0.91286   0.00000  Uiso   1.00
O1336  O     0.17198   0.96044   0.95437   0.00000  Uiso   1.00
N1337  N     0.17288   0.96013   0.74735   0.00000  Uiso   1.00
O1338  O     0.13111   0.94387   0.72468   0.00000  Uiso   1.00
O1339  O     0.21273   0.96679   0.72545   0.00000  Uiso   1.00
N1340  N     0.16045   0.70654   0.91931   0.00000  Uiso   1.00
O1341  O     0.20222   0.72280   0.94199   0.00000  Uiso   1.00
O1342  O     0.12060   0.69988   0.94122   0.00000  Uiso   1.00
N1343  N     0.08515   0.79462   0.70534   0.00000  Uiso   1.00
O1344  O     0.04022   0.80842   0.69160   0.00000  Uiso   1.00
O1345  O     0.08814   0.75962   0.72635   0.00000  Uiso   1.00
N1346  N     0.24819   0.87205   0.96133   0.00000  Uiso   1.00
O1347  O     0.29312   0.85824   0.97507   0.00000  Uiso   1.00
O1348  O     0.24519   0.90705   0.94032   0.00000  Uiso   1.00
Cl1349 Cl    0.08198   0.78182   0.93758   0.00000  Uiso   1.00
Cl1350 Cl    0.25136   0.88485   0.72909   0.00000  Uiso   1.00
O1351  O     0.50000   0.77322   0.87291   0.00000  Uiso   1.00
O1352  O     0.50000   0.89345   0.79375   0.00000  Uiso   1.00
O1353  O     0.50000   0.77321   0.79372   0.00000  Uiso   1.00
O1354  O     0.50000   0.89346   0.87294   0.00000  Uiso   1.00
C1355  C     0.50194   0.75417   0.83383   0.00000  Uiso   1.00
C1356  C     0.49806   0.91250   0.83284   0.00000  Uiso   1.00
O1357  O     0.42495   0.83334   0.86379   0.00000  Uiso   1.00
O1358  O     0.57505   0.83333   0.80288   0.00000  Uiso   1.00
O1359  O     0.42494   0.83333   0.78460   0.00000  Uiso   1.00
O1360  O     0.57506   0.83334   0.88207   0.00000  Uiso   1.00
C1361  C     0.40152   0.83245   0.82180   0.00000  Uiso   1.00
C1362  C     0.59848   0.83422   0.84487   0.00000  Uiso   1.00
Cu1363 Cu    0.50000   0.83334   0.88022   0.00000  Uiso   1.00
Cu1364 Cu    0.50000   0.83333   0.78645   0.00000  Uiso   1.00
N1365  N     0.50001   0.83334   0.95069   0.00000  Uiso   1.00
N1366  N     0.49999   0.83332   0.71597   0.00000  Uiso   1.00
C1367  C     0.34687   0.82482   0.81779   0.00000  Uiso   1.00
C1368  C     0.65313   0.84185   0.84888   0.00000  Uiso   1.00
C1369  C     0.50974   0.68863   0.79297   0.00000  Uiso   1.00
C1370  C     0.49026   0.97804   0.87369   0.00000  Uiso   1.00
C1371  C     0.50396   0.97967   0.79127   0.00000  Uiso   1.00
C1372  C     0.49604   0.68699   0.87540   0.00000  Uiso   1.00
C1373  C     0.49600   0.95721   0.83213   0.00000  Uiso   1.00
C1374  C     0.50400   0.70946   0.83454   0.00000  Uiso   1.00
C1375  C     0.46199   0.81284   0.68704   0.00000  Uiso   1.00
C1376  C     0.53801   0.85383   0.97963   0.00000  Uiso   1.00
C1377  C     0.46263   0.81225   0.97120   0.00000  Uiso   1.00
C1378  C     0.53737   0.85441   0.69546   0.00000  Uiso   1.00
N1379  N     0.65881   0.79194   0.78819   0.00000  Uiso   1.00
O1380  O     0.63285   0.79945   0.74779   0.00000  Uiso   1.00
O1381  O     0.34123   0.75553   0.79714   0.00000  Uiso   1.00
N1382  N     0.34119   0.87473   0.87847   0.00000  Uiso   1.00
O1383  O     0.36715   0.86722   0.91888   0.00000  Uiso   1.00
O1384  O     0.65877   0.91114   0.86953   0.00000  Uiso   1.00
N1385  N     0.52348   0.71000   0.75235   0.00000  Uiso   1.00
O1386  O     0.56865   0.72790   0.75381   0.00000  Uiso   1.00
O1387  O     0.49469   0.70623   0.71230   0.00000  Uiso   1.00
N1388  N     0.47652   0.95667   0.91431   0.00000  Uiso   1.00
O1389  O     0.43135   0.93877   0.91286   0.00000  Uiso   1.00
O1390  O     0.50531   0.96044   0.95437   0.00000  Uiso   1.00
N1391  N     0.50622   0.96013   0.74735   0.00000  Uiso   1.00
O1392  O     0.46445   0.94387   0.72468   0.00000  Uiso   1.00
O1393  O     0.54606   0.96679   0.72545   0.00000  Uiso   1.00
N1394  N     0.49378   0.70654   0.91931   0.00000  Uiso   1.00
O1395  O     0.53555   0.72280   0.94199   0.00000  Uiso   1.00
O1396  O     0.45393   0.69988   0.94122   0.00000  Uiso   1.00
N1397  N     0.41848   0.79462   0.70534   0.00000  Uiso   1.00
O1398  O     0.37355   0.80842   0.69160   0.00000  Uiso   1.00
O1399  O     0.42148   0.75962   0.72635   0.00000  Uiso   1.00
N1400  N     0.58152   0.87205   0.96133   0.00000  Uiso   1.00
O1401  O     0.62645   0.85824   0.97507   0.00000  Uiso   1.00
O1402  O     0.57852   0.90705   0.94032   0.00000  Uiso   1.00
Cl1403 Cl    0.41531   0.78182   0.93758   0.00000  Uiso   1.00
Cl1404 Cl    0.58469   0.88485   0.72909   0.00000  Uiso   1.00
O1405  O     0.83333   0.77322   0.87291   0.00000  Uiso   1.00
O1406  O     0.83334   0.89345   0.79375   0.00000  Uiso   1.00
O1407  O     0.83333   0.77321   0.79372   0.00000  Uiso   1.00
O1408  O     0.83334   0.89346   0.87294   0.00000  Uiso   1.00
C1409  C     0.83528   0.75417   0.83383   0.00000  Uiso   1.00
C1410  C     0.83139   0.91250   0.83284   0.00000  Uiso   1.00
O1411  O     0.75828   0.83334   0.86379   0.00000  Uiso   1.00
O1412  O     0.90839   0.83333   0.80288   0.00000  Uiso   1.00
O1413  O     0.75828   0.83333   0.78460   0.00000  Uiso   1.00
O1414  O     0.90839   0.83334   0.88207   0.00000  Uiso   1.00
C1415  C     0.73485   0.83245   0.82180   0.00000  Uiso   1.00
C1416  C     0.93182   0.83422   0.84487   0.00000  Uiso   1.00
Cu1417 Cu    0.83333   0.83334   0.88022   0.00000  Uiso   1.00
Cu1418 Cu    0.83333   0.83333   0.78645   0.00000  Uiso   1.00
N1419  N     0.83335   0.83334   0.95069   0.00000  Uiso   1.00
N1420  N     0.83332   0.83332   0.71597   0.00000  Uiso   1.00
C1421  C     0.68020   0.82482   0.81779   0.00000  Uiso   1.00
C1422  C     0.98647   0.84185   0.84888   0.00000  Uiso   1.00
C1423  C     0.84307   0.68863   0.79297   0.00000  Uiso   1.00
C1424  C     0.82359   0.97804   0.87369   0.00000  Uiso   1.00
C1425  C     0.83729   0.97967   0.79127   0.00000  Uiso   1.00
C1426  C     0.82937   0.68699   0.87540   0.00000  Uiso   1.00
C1427  C     0.82933   0.95721   0.83213   0.00000  Uiso   1.00
C1428  C     0.83734   0.70946   0.83454   0.00000  Uiso   1.00
C1429  C     0.79533   0.81284   0.68704   0.00000  Uiso   1.00
C1430  C     0.87134   0.85383   0.97963   0.00000  Uiso   1.00
C1431  C     0.79596   0.81225   0.97120   0.00000  Uiso   1.00
C1432  C     0.87070   0.85441   0.69546   0.00000  Uiso   1.00
N1433  N     0.99214   0.79194   0.78819   0.00000  Uiso   1.00
O1434  O     0.96618   0.79945   0.74779   0.00000  Uiso   1.00
O1435  O     0.67456   0.75553   0.79714   0.00000  Uiso   1.00
N1436  N     0.67453   0.87473   0.87847   0.00000  Uiso   1.00
O1437  O     0.70048   0.86722   0.91888   0.00000  Uiso   1.00
O1438  O     0.99211   0.91114   0.86953   0.00000  Uiso   1.00
N1439  N     0.85681   0.71000   0.75235   0.00000  Uiso   1.00
O1440  O     0.90198   0.72790   0.75381   0.00000  Uiso   1.00
O1441  O     0.82802   0.70623   0.71230   0.00000  Uiso   1.00
N1442  N     0.80986   0.95667   0.91431   0.00000  Uiso   1.00
O1443  O     0.76469   0.93877   0.91286   0.00000  Uiso   1.00
O1444  O     0.83865   0.96044   0.95437   0.00000  Uiso   1.00
N1445  N     0.83955   0.96013   0.74735   0.00000  Uiso   1.00
O1446  O     0.79778   0.94387   0.72468   0.00000  Uiso   1.00
O1447  O     0.87940   0.96679   0.72545   0.00000  Uiso   1.00
N1448  N     0.82711   0.70654   0.91931   0.00000  Uiso   1.00
O1449  O     0.86888   0.72280   0.94199   0.00000  Uiso   1.00
O1450  O     0.78727   0.69988   0.94122   0.00000  Uiso   1.00
N1451  N     0.75181   0.79462   0.70534   0.00000  Uiso   1.00
O1452  O     0.70688   0.80842   0.69160   0.00000  Uiso   1.00
O1453  O     0.75481   0.75962   0.72635   0.00000  Uiso   1.00
N1454  N     0.91485   0.87205   0.96133   0.00000  Uiso   1.00
O1455  O     0.95978   0.85824   0.97507   0.00000  Uiso   1.00
O1456  O     0.91186   0.90705   0.94032   0.00000  Uiso   1.00
Cl1457 Cl    0.74864   0.78182   0.93758   0.00000  Uiso   1.00
Cl1458 Cl    0.91802   0.88485   0.72909   0.00000  Uiso   1.00
loop_
_geom_bond_atom_site_label_1
_geom_bond_atom_site_label_2
_geom_bond_distance
_geom_bond_site_symmetry_2
_ccdc_geom_bond_type
O1     C5      1.304   .     A
O1     Cu13    1.997   .     S
O2     C6      1.304   .     A
O2     Cu14    1.997   .     S
O3     Cu14    1.992   .     S
O3     C5      1.305   .     A
O4     C6      1.305   .     A
O4     Cu13    1.992   .     S
C5     C24     1.478   .     S
C6     C23     1.478   .     S
O7     C11     1.286   .     A
O7     Cu13    1.973   .     S
O8     C12     1.286   .     A
O8     Cu14    1.973   .     S
O9     Cu14    1.971   .     S
O9     C11     1.303   .     A
O10    C12     1.303   .     A
O10    Cu13    1.971   .     S
C11    C17     1.440   .     S
C12    C18     1.440   .     S
Cu13   Cu14    2.702   .     S
Cu13   N15     2.031   .     S
Cu14   N16     2.031   .     S
N15    C27     1.371   .     A
N15    C26     1.375   .     A
N16    C28     1.371   .     A
N16    C25     1.375   .     A
C17    C126    1.356   1_455 S
C17    N137    1.437   1_455 S
C18    C71     1.356   .     S
C18    N86     1.437   .     S
C19    N35     1.437   .     S
C19    C24     1.416   .     A
C19    C345    1.397   1_545 S
C20    C23     1.416   .     A
C20    N38     1.437   .     S
C20    C184    1.397   .     S
C21    C23     1.417   .     A
C21    N41     1.436   .     S
C21    C181    1.397   .     S
C22    C24     1.417   .     A
C22    N44     1.436   .     S
C22    C344    1.397   1_545 S
C25    N47     1.427   .     S
C25    C999    1.419   1_554 S
C26    N50     1.427   .     S
C26    C514    1.419   .     S
C27    Cl53    1.760   .     S
C27    C511    1.419   .     S
C28    Cl54    1.760   .     S
C28    C998    1.419   1_554 S
N29    O30     1.300   .     A
N29    C71     1.437   .     S
N29    O85     1.301   .     S
O31    N137    1.301   1_455 S
N32    O33     1.300   .     A
N32    C126    1.437   1_455 S
N32    O142    1.301   1_455 S
O34    N86     1.301   .     S
N35    O37     1.301   .     A
N35    O36     1.300   .     A
N38    O40     1.301   .     A
N38    O39     1.300   .     A
N41    O42     1.302   .     A
N41    O43     1.301   .     A
N44    O45     1.302   .     A
N44    O46     1.301   .     A
N47    O48     1.300   .     A
N47    O49     1.299   .     A
N50    O51     1.300   .     A
N50    O52     1.299   .     A
O55    C59     1.304   .     A
O55    Cu67    1.997   .     S
O56    C60     1.304   .     A
O56    Cu68    1.997   .     S
O57    Cu68    1.992   .     S
O57    C59     1.305   .     A
O58    C60     1.305   .     A
O58    Cu67    1.992   .     S
C59    C78     1.478   .     S
C60    C77     1.478   .     S
O61    C65     1.286   .     A
O61    Cu67    1.973   .     S
O62    C66     1.286   .     A
O62    Cu68    1.973   .     S
O63    Cu68    1.971   .     S
O63    C65     1.303   .     A
O64    C66     1.303   .     A
O64    Cu67    1.971   .     S
C65    C71     1.440   .     S
C66    C72     1.440   .     S
Cu67   Cu68    2.702   .     S
Cu67   N69     2.031   .     S
Cu68   N70     2.031   .     S
N69    C81     1.371   .     A
N69    C80     1.375   .     A
N70    C82     1.371   .     A
N70    C79     1.375   .     A
C72    C125    1.356   .     S
C72    N140    1.437   .     S
C73    N89     1.437   .     S
C73    C78     1.416   .     A
C73    C399    1.397   1_545 S
C74    C77     1.416   .     A
C74    N92     1.437   .     S
C74    C238    1.397   .     S
C75    C77     1.417   .     A
C75    N95     1.436   .     S
C75    C235    1.397   .     S
C76    C78     1.417   .     A
C76    N98     1.436   .     S
C76    C398    1.397   1_545 S
C79    N101    1.427   .     S
C79    C1053   1.419   1_554 S
C80    N104    1.427   .     S
C80    C568    1.419   .     S
C81    Cl107   1.760   .     S
C81    C565    1.419   .     S
C82    Cl108   1.760   .     S
C82    C1052   1.419   1_554 S
N83    O84     1.300   .     A
N83    C125    1.437   .     S
N83    O139    1.301   .     S
N86    O87     1.300   .     A
O88    N140    1.301   .     S
N89    O91     1.301   .     A
N89    O90     1.300   .     A
N92    O94     1.301   .     A
N92    O93     1.300   .     A
N95    O96     1.302   .     A
N95    O97     1.301   .     A
N98    O99     1.302   .     A
N98    O100    1.301   .     A
N101   O102    1.300   .     A
N101   O103    1.299   .     A
N104   O105    1.300   .     A
N104   O106    1.299   .     A
O109   C113    1.304   .     A
O109   Cu121   1.997   .     S
O110   C114    1.304   .     A
O110   Cu122   1.997   .     S
O111   Cu122   1.992   .     S
O111   C113    1.305   .     A
O112   C114    1.305   .     A
O112   Cu121   1.992   .     S
C113   C132    1.478   .     S
C114   C131    1.478   .     S
O115   C119    1.286   .     A
O115   Cu121   1.973   .     S
O116   C120    1.286   .     A
O116   Cu122   1.973   .     S
O117   Cu122   1.971   .     S
O117   C119    1.303   .     A
O118   C120    1.303   .     A
O118   Cu121   1.971   .     S
C119   C125    1.440   .     S
C120   C126    1.440   .     S
Cu121  Cu122   2.702   .     S
Cu121  N123    2.031   .     S
Cu122  N124    2.031   .     S
N123   C135    1.371   .     A
N123   C134    1.375   .     A
N124   C136    1.371   .     A
N124   C133    1.375   .     A
C126   C17     1.356   1_655 S
C126   N32     1.437   1_655 S
C127   N143    1.437   .     S
C127   C132    1.416   .     A
C127   C453    1.397   1_545 S
C128   C131    1.416   .     A
C128   N146    1.437   .     S
C128   C292    1.397   .     S
C129   C131    1.417   .     A
C129   N149    1.436   .     S
C129   C289    1.397   .     S
C130   C132    1.417   .     A
C130   N152    1.436   .     S
C130   C452    1.397   1_545 S
C133   N155    1.427   .     S
C133   C1107   1.419   1_554 S
C134   N158    1.427   .     S
C134   C622    1.419   .     S
C135   Cl161   1.760   .     S
C135   C619    1.419   .     S
C136   Cl162   1.760   .     S
C136   C1106   1.419   1_554 S
N137   O138    1.300   .     A
N137   C17     1.437   1_655 S
N137   O31     1.301   1_655 S
N140   O141    1.300   .     A
O142   N32     1.301   1_655 S
N143   O145    1.301   .     A
N143   O144    1.300   .     A
N146   O148    1.301   .     A
N146   O147    1.300   .     A
N149   O150    1.302   .     A
N149   O151    1.301   .     A
N152   O153    1.302   .     A
N152   O154    1.301   .     A
N155   O156    1.300   .     A
N155   O157    1.299   .     A
N158   O159    1.300   .     A
N158   O160    1.299   .     A
O163   C167    1.304   .     A
O163   Cu175   1.997   .     S
O164   C168    1.304   .     A
O164   Cu176   1.997   .     S
O165   Cu176   1.992   .     S
O165   C167    1.305   .     A
O166   C168    1.305   .     A
O166   Cu175   1.992   .     S
C167   C186    1.478   .     S
C168   C185    1.478   .     S
O169   C173    1.286   .     A
O169   Cu175   1.973   .     S
O170   C174    1.286   .     A
O170   Cu176   1.973   .     S
O171   Cu176   1.971   .     S
O171   C173    1.303   .     A
O172   C174    1.303   .     A
O172   Cu175   1.971   .     S
C173   C179    1.440   .     S
C174   C180    1.440   .     S
Cu175  Cu176   2.702   .     S
Cu175  N177    2.031   .     S
Cu176  N178    2.031   .     S
N177   C189    1.371   .     A
N177   C188    1.375   .     A
N178   C190    1.371   .     A
N178   C187    1.375   .     A
C179   C288    1.356   1_455 S
C179   N299    1.437   1_455 S
C180   C233    1.356   .     S
C180   N248    1.437   .     S
C181   N197    1.437   .     S
C181   C186    1.416   .     A
C182   C185    1.416   .     A
C182   N200    1.437   .     S
C182   C346    1.397   .     S
C183   C185    1.417   .     A
C183   N203    1.436   .     S
C183   C343    1.397   .     S
C184   C186    1.417   .     A
C184   N206    1.436   .     S
C187   N209    1.427   .     S
C187   C1161   1.419   1_554 S
C188   N212    1.427   .     S
C188   C676    1.419   .     S
C189   Cl215   1.760   .     S
C189   C673    1.419   .     S
C190   Cl216   1.760   .     S
C190   C1160   1.419   1_554 S
N191   O192    1.300   .     A
N191   C233    1.437   .     S
N191   O247    1.301   .     S
O193   N299    1.301   1_455 S
N194   O195    1.300   .     A
N194   C288    1.437   1_455 S
N194   O304    1.301   1_455 S
O196   N248    1.301   .     S
N197   O199    1.301   .     A
N197   O198    1.300   .     A
N200   O202    1.301   .     A
N200   O201    1.300   .     A
N203   O204    1.302   .     A
N203   O205    1.301   .     A
N206   O207    1.302   .     A
N206   O208    1.301   .     A
N209   O210    1.300   .     A
N209   O211    1.299   .     A
N212   O213    1.300   .     A
N212   O214    1.299   .     A
O217   C221    1.304   .     A
O217   Cu229   1.997   .     S
O218   C222    1.304   .     A
O218   Cu230   1.997   .     S
O219   Cu230   1.992   .     S
O219   C221    1.305   .     A
O220   C222    1.305   .     A
O220   Cu229   1.992   .     S
C221   C240    1.478   .     S
C222   C239    1.478   .     S
O223   C227    1.286   .     A
O223   Cu229   1.973   .     S
O224   C228    1.286   .     A
O224   Cu230   1.973   .     S
O225   Cu230   1.971   .     S
O225   C227    1.303   .     A
O226   C228    1.303   .     A
O226   Cu229   1.971   .     S
C227   C233    1.440   .     S
C228   C234    1.440   .     S
Cu229  Cu230   2.702   .     S
Cu229  N231    2.031   .     S
Cu230  N232    2.031   .     S
N231   C243    1.371   .     A
N231   C242    1.375   .     A
N232   C244    1.371   .     A
N232   C241    1.375   .     A
C234   C287    1.356   .     S
C234   N302    1.437   .     S
C235   N251    1.437   .     S
C235   C240    1.416   .     A
C236   C239    1.416   .     A
C236   N254    1.437   .     S
C236   C400    1.397   .     S
C237   C239    1.417   .     A
C237   N257    1.436   .     S
C237   C397    1.397   .     S
C238   C240    1.417   .     A
C238   N260    1.436   .     S
C241   N263    1.427   .     S
C241   C1215   1.419   1_554 S
C242   N266    1.427   .     S
C242   C730    1.419   .     S
C243   Cl269   1.760   .     S
C243   C727    1.419   .     S
C244   Cl270   1.760   .     S
C244   C1214   1.419   1_554 S
N245   O246    1.300   .     A
N245   C287    1.437   .     S
N245   O301    1.301   .     S
N248   O249    1.300   .     A
O250   N302    1.301   .     S
N251   O253    1.301   .     A
N251   O252    1.300   .     A
N254   O256    1.301   .     A
N254   O255    1.300   .     A
N257   O258    1.302   .     A
N257   O259    1.301   .     A
N260   O261    1.302   .     A
N260   O262    1.301   .     A
N263   O264    1.300   .     A
N263   O265    1.299   .     A
N266   O267    1.300   .     A
N266   O268    1.299   .     A
O271   C275    1.304   .     A
O271   Cu283   1.997   .     S
O272   C276    1.304   .     A
O272   Cu284   1.997   .     S
O273   Cu284   1.992   .     S
O273   C275    1.305   .     A
O274   C276    1.305   .     A
O274   Cu283   1.992   .     S
C275   C294    1.478   .     S
C276   C293    1.478   .     S
O277   C281    1.286   .     A
O277   Cu283   1.973   .     S
O278   C282    1.286   .     A
O278   Cu284   1.973   .     S
O279   Cu284   1.971   .     S
O279   C281    1.303   .     A
O280   C282    1.303   .     A
O280   Cu283   1.971   .     S
C281   C287    1.440   .     S
C282   C288    1.440   .     S
Cu283  Cu284   2.702   .     S
Cu283  N285    2.031   .     S
Cu284  N286    2.031   .     S
N285   C297    1.371   .     A
N285   C296    1.375   .     A
N286   C298    1.371   .     A
N286   C295    1.375   .     A
C288   C179    1.356   1_655 S
C288   N194    1.437   1_655 S
C289   N305    1.437   .     S
C289   C294    1.416   .     A
C290   C293    1.416   .     A
C290   N308    1.437   .     S
C290   C454    1.397   .     S
C291   C293    1.417   .     A
C291   N311    1.436   .     S
C291   C451    1.397   .     S
C292   C294    1.417   .     A
C292   N314    1.436   .     S
C295   N317    1.427   .     S
C295   C1269   1.419   1_554 S
C296   N320    1.427   .     S
C296   C784    1.419   .     S
C297   Cl323   1.760   .     S
C297   C781    1.419   .     S
C298   Cl324   1.760   .     S
C298   C1268   1.419   1_554 S
N299   O300    1.300   .     A
N299   C179    1.437   1_655 S
N299   O193    1.301   1_655 S
N302   O303    1.300   .     A
O304   N194    1.301   1_655 S
N305   O307    1.301   .     A
N305   O306    1.300   .     A
N308   O310    1.301   .     A
N308   O309    1.300   .     A
N311   O312    1.302   .     A
N311   O313    1.301   .     A
N314   O315    1.302   .     A
N314   O316    1.301   .     A
N317   O318    1.300   .     A
N317   O319    1.299   .     A
N320   O321    1.300   .     A
N320   O322    1.299   .     A
O325   C329    1.304   .     A
O325   Cu337   1.997   .     S
O326   C330    1.304   .     A
O326   Cu338   1.997   .     S
O327   Cu338   1.992   .     S
O327   C329    1.305   .     A
O328   C330    1.305   .     A
O328   Cu337   1.992   .     S
C329   C348    1.478   .     S
C330   C347    1.478   .     S
O331   C335    1.286   .     A
O331   Cu337   1.973   .     S
O332   C336    1.286   .     A
O332   Cu338   1.973   .     S
O333   Cu338   1.971   .     S
O333   C335    1.303   .     A
O334   C336    1.303   .     A
O334   Cu337   1.971   .     S
C335   C341    1.440   .     S
C336   C342    1.440   .     S
Cu337  Cu338   2.702   .     S
Cu337  N339    2.031   .     S
Cu338  N340    2.031   .     S
N339   C351    1.371   .     A
N339   C350    1.375   .     A
N340   C352    1.371   .     A
N340   C349    1.375   .     A
C341   C450    1.356   1_455 S
C341   N461    1.437   1_455 S
C342   C395    1.356   .     S
C342   N410    1.437   .     S
C343   N359    1.437   .     S
C343   C348    1.416   .     A
C344   C347    1.416   .     A
C344   N362    1.437   .     S
C344   C22     1.397   1_565 S
C345   C347    1.417   .     A
C345   N365    1.436   .     S
C345   C19     1.397   1_565 S
C346   C348    1.417   .     A
C346   N368    1.436   .     S
C349   N371    1.427   .     S
C349   C1323   1.419   1_554 S
C350   N374    1.427   .     S
C350   C838    1.419   .     S
C351   Cl377   1.760   .     S
C351   C835    1.419   .     S
C352   Cl378   1.760   .     S
C352   C1322   1.419   1_554 S
N353   O354    1.300   .     A
N353   C395    1.437   .     S
N353   O409    1.301   .     S
O355   N461    1.301   1_455 S
N356   O357    1.300   .     A
N356   C450    1.437   1_455 S
N356   O466    1.301   1_455 S
O358   N410    1.301   .     S
N359   O361    1.301   .     A
N359   O360    1.300   .     A
N362   O364    1.301   .     A
N362   O363    1.300   .     A
N365   O366    1.302   .     A
N365   O367    1.301   .     A
N368   O369    1.302   .     A
N368   O370    1.301   .     A
N371   O372    1.300   .     A
N371   O373    1.299   .     A
N374   O375    1.300   .     A
N374   O376    1.299   .     A
O379   C383    1.304   .     A
O379   Cu391   1.997   .     S
O380   C384    1.304   .     A
O380   Cu392   1.997   .     S
O381   Cu392   1.992   .     S
O381   C383    1.305   .     A
O382   C384    1.305   .     A
O382   Cu391   1.992   .     S
C383   C402    1.478   .     S
C384   C401    1.478   .     S
O385   C389    1.286   .     A
O385   Cu391   1.973   .     S
O386   C390    1.286   .     A
O386   Cu392   1.973   .     S
O387   Cu392   1.971   .     S
O387   C389    1.303   .     A
O388   C390    1.303   .     A
O388   Cu391   1.971   .     S
C389   C395    1.440   .     S
C390   C396    1.440   .     S
Cu391  Cu392   2.702   .     S
Cu391  N393    2.031   .     S
Cu392  N394    2.031   .     S
N393   C405    1.371   .     A
N393   C404    1.375   .     A
N394   C406    1.371   .     A
N394   C403    1.375   .     A
C396   C449    1.356   .     S
C396   N464    1.437   .     S
C397   N413    1.437   .     S
C397   C402    1.416   .     A
C398   C401    1.416   .     A
C398   N416    1.437   .     S
C398   C76     1.397   1_565 S
C399   C401    1.417   .     A
C399   N419    1.436   .     S
C399   C73     1.397   1_565 S
C400   C402    1.417   .     A
C400   N422    1.436   .     S
C403   N425    1.427   .     S
C403   C1377   1.419   1_554 S
C404   N428    1.427   .     S
C404   C892    1.419   .     S
C405   Cl431   1.760   .     S
C405   C889    1.419   .     S
C406   Cl432   1.760   .     S
C406   C1376   1.419   1_554 S
N407   O408    1.300   .     A
N407   C449    1.437   .     S
N407   O463    1.301   .     S
N410   O411    1.300   .     A
O412   N464    1.301   .     S
N413   O415    1.301   .     A
N413   O414    1.300   .     A
N416   O418    1.301   .     A
N416   O417    1.300   .     A
N419   O420    1.302   .     A
N419   O421    1.301   .     A
N422   O423    1.302   .     A
N422   O424    1.301   .     A
N425   O426    1.300   .     A
N425   O427    1.299   .     A
N428   O429    1.300   .     A
N428   O430    1.299   .     A
O433   C437    1.304   .     A
O433   Cu445   1.997   .     S
O434   C438    1.304   .     A
O434   Cu446   1.997   .     S
O435   Cu446   1.992   .     S
O435   C437    1.305   .     A
O436   C438    1.305   .     A
O436   Cu445   1.992   .     S
C437   C456    1.478   .     S
C438   C455    1.478   .     S
O439   C443    1.286   .     A
O439   Cu445   1.973   .     S
O440   C444    1.286   .     A
O440   Cu446   1.973   .     S
O441   Cu446   1.971   .     S
O441   C443    1.303   .     A
O442   C444    1.303   .     A
O442   Cu445   1.971   .     S
C443   C449    1.440   .     S
C444   C450    1.440   .     S
Cu445  Cu446   2.702   .     S
Cu445  N447    2.031   .     S
Cu446  N448    2.031   .     S
N447   C459    1.371   .     A
N447   C458    1.375   .     A
N448   C460    1.371   .     A
N448   C457    1.375   .     A
C450   C341    1.356   1_655 S
C450   N356    1.437   1_655 S
C451   N467    1.437   .     S
C451   C456    1.416   .     A
C452   C455    1.416   .     A
C452   N470    1.437   .     S
C452   C130    1.397   1_565 S
C453   C455    1.417   .     A
C453   N473    1.436   .     S
C453   C127    1.397   1_565 S
C454   C456    1.417   .     A
C454   N476    1.436   .     S
C457   N479    1.427   .     S
C457   C1431   1.419   1_554 S
C458   N482    1.427   .     S
C458   C946    1.419   .     S
C459   Cl485   1.760   .     S
C459   C943    1.419   .     S
C460   Cl486   1.760   .     S
C460   C1430   1.419   1_554 S
N461   O462    1.300   .     A
N461   C341    1.437   1_655 S
N461   O355    1.301   1_655 S
N464   O465    1.300   .     A
O466   N356    1.301   1_655 S
N467   O469    1.301   .     A
N467   O468    1.300   .     A
N470   O472    1.301   .     A
N470   O471    1.300   .     A
N473   O474    1.302   .     A
N473   O475    1.301   .     A
N476   O477    1.302   .     A
N476   O478    1.301   .     A
N479   O480    1.300   .     A
N479   O481    1.299   .     A
N482   O483    1.300   .     A
N482   O484    1.299   .     A
O487   C491    1.304   .     A
O487   Cu499   1.997   .     S
O488   C492    1.304   .     A
O488   Cu500   1.997   .     S
O489   Cu500   1.992   .     S
O489   C491    1.305   .     A
O490   C492    1.305   .     A
O490   Cu499   1.992   .     S
C491   C510    1.478   .     S
C492   C509    1.478   .     S
O493   C497    1.286   .     A
O493   Cu499   1.973   .     S
O494   C498    1.286   .     A
O494   Cu500   1.973   .     S
O495   Cu500   1.971   .     S
O495   C497    1.303   .     A
O496   C498    1.303   .     A
O496   Cu499   1.971   .     S
C497   C503    1.440   .     S
C498   C504    1.440   .     S
Cu499  Cu500   2.702   .     S
Cu499  N501    2.031   .     S
Cu500  N502    2.031   .     S
N501   C513    1.371   .     A
N501   C512    1.375   .     A
N502   C514    1.371   .     A
N502   C511    1.375   .     A
C503   C612    1.356   1_455 S
C503   N623    1.437   1_455 S
C504   C557    1.356   .     S
C504   N572    1.437   .     S
C505   N521    1.437   .     S
C505   C510    1.416   .     A
C505   C831    1.397   1_545 S
C506   C509    1.416   .     A
C506   N524    1.437   .     S
C506   C670    1.397   .     S
C507   C509    1.417   .     A
C507   N527    1.436   .     S
C507   C667    1.397   .     S
C508   C510    1.417   .     A
C508   N530    1.436   .     S
C508   C830    1.397   1_545 S
C511   N533    1.427   .     S
C512   N536    1.427   .     S
C512   C1000   1.419   .     S
C513   Cl539   1.760   .     S
C513   C997    1.419   .     S
C514   Cl540   1.760   .     S
N515   O516    1.300   .     A
N515   C557    1.437   .     S
N515   O571    1.301   .     S
O517   N623    1.301   1_455 S
N518   O519    1.300   .     A
N518   C612    1.437   1_455 S
N518   O628    1.301   1_455 S
O520   N572    1.301   .     S
N521   O523    1.301   .     A
N521   O522    1.300   .     A
N524   O526    1.301   .     A
N524   O525    1.300   .     A
N527   O528    1.302   .     A
N527   O529    1.301   .     A
N530   O531    1.302   .     A
N530   O532    1.301   .     A
N533   O534    1.300   .     A
N533   O535    1.299   .     A
N536   O537    1.300   .     A
N536   O538    1.299   .     A
O541   C545    1.304   .     A
O541   Cu553   1.997   .     S
O542   C546    1.304   .     A
O542   Cu554   1.997   .     S
O543   Cu554   1.992   .     S
O543   C545    1.305   .     A
O544   C546    1.305   .     A
O544   Cu553   1.992   .     S
C545   C564    1.478   .     S
C546   C563    1.478   .     S
O547   C551    1.286   .     A
O547   Cu553   1.973   .     S
O548   C552    1.286   .     A
O548   Cu554   1.973   .     S
O549   Cu554   1.971   .     S
O549   C551    1.303   .     A
O550   C552    1.303   .     A
O550   Cu553   1.971   .     S
C551   C557    1.440   .     S
C552   C558    1.440   .     S
Cu553  Cu554   2.702   .     S
Cu553  N555    2.031   .     S
Cu554  N556    2.031   .     S
N555   C567    1.371   .     A
N555   C566    1.375   .     A
N556   C568    1.371   .     A
N556   C565    1.375   .     A
C558   C611    1.356   .     S
C558   N626    1.437   .     S
C559   N575    1.437   .     S
C559   C564    1.416   .     A
C559   C885    1.397   1_545 S
C560   C563    1.416   .     A
C560   N578    1.437   .     S
C560   C724    1.397   .     S
C561   C563    1.417   .     A
C561   N581    1.436   .     S
C561   C721    1.397   .     S
C562   C564    1.417   .     A
C562   N584    1.436   .     S
C562   C884    1.397   1_545 S
C565   N587    1.427   .     S
C566   N590    1.427   .     S
C566   C1054   1.419   .     S
C567   Cl593   1.760   .     S
C567   C1051   1.419   .     S
C568   Cl594   1.760   .     S
N569   O570    1.300   .     A
N569   C611    1.437   .     S
N569   O625    1.301   .     S
N572   O573    1.300   .     A
O574   N626    1.301   .     S
N575   O577    1.301   .     A
N575   O576    1.300   .     A
N578   O580    1.301   .     A
N578   O579    1.300   .     A
N581   O582    1.302   .     A
N581   O583    1.301   .     A
N584   O585    1.302   .     A
N584   O586    1.301   .     A
N587   O588    1.300   .     A
N587   O589    1.299   .     A
N590   O591    1.300   .     A
N590   O592    1.299   .     A
O595   C599    1.304   .     A
O595   Cu607   1.997   .     S
O596   C600    1.304   .     A
O596   Cu608   1.997   .     S
O597   Cu608   1.992   .     S
O597   C599    1.305   .     A
O598   C600    1.305   .     A
O598   Cu607   1.992   .     S
C599   C618    1.478   .     S
C600   C617    1.478   .     S
O601   C605    1.286   .     A
O601   Cu607   1.973   .     S
O602   C606    1.286   .     A
O602   Cu608   1.973   .     S
O603   Cu608   1.971   .     S
O603   C605    1.303   .     A
O604   C606    1.303   .     A
O604   Cu607   1.971   .     S
C605   C611    1.440   .     S
C606   C612    1.440   .     S
Cu607  Cu608   2.702   .     S
Cu607  N609    2.031   .     S
Cu608  N610    2.031   .     S
N609   C621    1.371   .     A
N609   C620    1.375   .     A
N610   C622    1.371   .     A
N610   C619    1.375   .     A
C612   C503    1.356   1_655 S
C612   N518    1.437   1_655 S
C613   N629    1.437   .     S
C613   C618    1.416   .     A
C613   C939    1.397   1_545 S
C614   C617    1.416   .     A
C614   N632    1.437   .     S
C614   C778    1.397   .     S
C615   C617    1.417   .     A
C615   N635    1.436   .     S
C615   C775    1.397   .     S
C616   C618    1.417   .     A
C616   N638    1.436   .     S
C616   C938    1.397   1_545 S
C619   N641    1.427   .     S
C620   N644    1.427   .     S
C620   C1108   1.419   .     S
C621   Cl647   1.760   .     S
C621   C1105   1.419   .     S
C622   Cl648   1.760   .     S
N623   O624    1.300   .     A
N623   C503    1.437   1_655 S
N623   O517    1.301   1_655 S
N626   O627    1.300   .     A
O628   N518    1.301   1_655 S
N629   O631    1.301   .     A
N629   O630    1.300   .     A
N632   O634    1.301   .     A
N632   O633    1.300   .     A
N635   O636    1.302   .     A
N635   O637    1.301   .     A
N638   O639    1.302   .     A
N638   O640    1.301   .     A
N641   O642    1.300   .     A
N641   O643    1.299   .     A
N644   O645    1.300   .     A
N644   O646    1.299   .     A
O649   C653    1.304   .     A
O649   Cu661   1.997   .     S
O650   C654    1.304   .     A
O650   Cu662   1.997   .     S
O651   Cu662   1.992   .     S
O651   C653    1.305   .     A
O652   C654    1.305   .     A
O652   Cu661   1.992   .     S
C653   C672    1.478   .     S
C654   C671    1.478   .     S
O655   C659    1.286   .     A
O655   Cu661   1.973   .     S
O656   C660    1.286   .     A
O656   Cu662   1.973   .     S
O657   Cu662   1.971   .     S
O657   C659    1.303   .     A
O658   C660    1.303   .     A
O658   Cu661   1.971   .     S
C659   C665    1.440   .     S
C660   C666    1.440   .     S
Cu661  Cu662   2.702   .     S
Cu661  N663    2.031   .     S
Cu662  N664    2.031   .     S
N663   C675    1.371   .     A
N663   C674    1.375   .     A
N664   C676    1.371   .     A
N664   C673    1.375   .     A
C665   C774    1.356   1_455 S
C665   N785    1.437   1_455 S
C666   C719    1.356   .     S
C666   N734    1.437   .     S
C667   N683    1.437   .     S
C667   C672    1.416   .     A
C668   C671    1.416   .     A
C668   N686    1.437   .     S
C668   C832    1.397   .     S
C669   C671    1.417   .     A
C669   N689    1.436   .     S
C669   C829    1.397   .     S
C670   C672    1.417   .     A
C670   N692    1.436   .     S
C673   N695    1.427   .     S
C674   N698    1.427   .     S
C674   C1162   1.419   .     S
C675   Cl701   1.760   .     S
C675   C1159   1.419   .     S
C676   Cl702   1.760   .     S
N677   O678    1.300   .     A
N677   C719    1.437   .     S
N677   O733    1.301   .     S
O679   N785    1.301   1_455 S
N680   O681    1.300   .     A
N680   C774    1.437   1_455 S
N680   O790    1.301   1_455 S
O682   N734    1.301   .     S
N683   O685    1.301   .     A
N683   O684    1.300   .     A
N686   O688    1.301   .     A
N686   O687    1.300   .     A
N689   O690    1.302   .     A
N689   O691    1.301   .     A
N692   O693    1.302   .     A
N692   O694    1.301   .     A
N695   O696    1.300   .     A
N695   O697    1.299   .     A
N698   O699    1.300   .     A
N698   O700    1.299   .     A
O703   C707    1.304   .     A
O703   Cu715   1.997   .     S
O704   C708    1.304   .     A
O704   Cu716   1.997   .     S
O705   Cu716   1.992   .     S
O705   C707    1.305   .     A
O706   C708    1.305   .     A
O706   Cu715   1.992   .     S
C707   C726    1.478   .     S
C708   C725    1.478   .     S
O709   C713    1.286   .     A
O709   Cu715   1.973   .     S
O710   C714    1.286   .     A
O710   Cu716   1.973   .     S
O711   Cu716   1.971   .     S
O711   C713    1.303   .     A
O712   C714    1.303   .     A
O712   Cu715   1.971   .     S
C713   C719    1.440   .     S
C714   C720    1.440   .     S
Cu715  Cu716   2.702   .     S
Cu715  N717    2.031   .     S
Cu716  N718    2.031   .     S
N717   C729    1.371   .     A
N717   C728    1.375   .     A
N718   C730    1.371   .     A
N718   C727    1.375   .     A
C720   C773    1.356   .     S
C720   N788    1.437   .     S
C721   N737    1.437   .     S
C721   C726    1.416   .     A
C722   C725    1.416   .     A
C722   N740    1.437   .     S
C722   C886    1.397   .     S
C723   C725    1.417   .     A
C723   N743    1.436   .     S
C723   C883    1.397   .     S
C724   C726    1.417   .     A
C724   N746    1.436   .     S
C727   N749    1.427   .     S
C728   N752    1.427   .     S
C728   C1216   1.419   .     S
C729   Cl755   1.760   .     S
C729   C1213   1.419   .     S
C730   Cl756   1.760   .     S
N731   O732    1.300   .     A
N731   C773    1.437   .     S
N731   O787    1.301   .     S
N734   O735    1.300   .     A
O736   N788    1.301   .     S
N737   O739    1.301   .     A
N737   O738    1.300   .     A
N740   O742    1.301   .     A
N740   O741    1.300   .     A
N743   O744    1.302   .     A
N743   O745    1.301   .     A
N746   O747    1.302   .     A
N746   O748    1.301   .     A
N749   O750    1.300   .     A
N749   O751    1.299   .     A
N752   O753    1.300   .     A
N752   O754    1.299   .     A
O757   C761    1.304   .     A
O757   Cu769   1.997   .     S
O758   C762    1.304   .     A
O758   Cu770   1.997   .     S
O759   Cu770   1.992   .     S
O759   C761    1.305   .     A
O760   C762    1.305   .     A
O760   Cu769   1.992   .     S
C761   C780    1.478   .     S
C762   C779    1.478   .     S
O763   C767    1.286   .     A
O763   Cu769   1.973   .     S
O764   C768    1.286   .     A
O764   Cu770   1.973   .     S
O765   Cu770   1.971   .     S
O765   C767    1.303   .     A
O766   C768    1.303   .     A
O766   Cu769   1.971   .     S
C767   C773    1.440   .     S
C768   C774    1.440   .     S
Cu769  Cu770   2.702   .     S
Cu769  N771    2.031   .     S
Cu770  N772    2.031   .     S
N771   C783    1.371   .     A
N771   C782    1.375   .     A
N772   C784    1.371   .     A
N772   C781    1.375   .     A
C774   C665    1.356   1_655 S
C774   N680    1.437   1_655 S
C775   N791    1.437   .     S
C775   C780    1.416   .     A
C776   C779    1.416   .     A
C776   N794    1.437   .     S
C776   C940    1.397   .     S
C777   C779    1.417   .     A
C777   N797    1.436   .     S
C777   C937    1.397   .     S
C778   C780    1.417   .     A
C778   N800    1.436   .     S
C781   N803    1.427   .     S
C782   N806    1.427   .     S
C782   C1270   1.419   .     S
C783   Cl809   1.760   .     S
C783   C1267   1.419   .     S
C784   Cl810   1.760   .     S
N785   O786    1.300   .     A
N785   C665    1.437   1_655 S
N785   O679    1.301   1_655 S
N788   O789    1.300   .     A
O790   N680    1.301   1_655 S
N791   O793    1.301   .     A
N791   O792    1.300   .     A
N794   O796    1.301   .     A
N794   O795    1.300   .     A
N797   O798    1.302   .     A
N797   O799    1.301   .     A
N800   O801    1.302   .     A
N800   O802    1.301   .     A
N803   O804    1.300   .     A
N803   O805    1.299   .     A
N806   O807    1.300   .     A
N806   O808    1.299   .     A
O811   C815    1.304   .     A
O811   Cu823   1.997   .     S
O812   C816    1.304   .     A
O812   Cu824   1.997   .     S
O813   Cu824   1.992   .     S
O813   C815    1.305   .     A
O814   C816    1.305   .     A
O814   Cu823   1.992   .     S
C815   C834    1.478   .     S
C816   C833    1.478   .     S
O817   C821    1.286   .     A
O817   Cu823   1.973   .     S
O818   C822    1.286   .     A
O818   Cu824   1.973   .     S
O819   Cu824   1.971   .     S
O819   C821    1.303   .     A
O820   C822    1.303   .     A
O820   Cu823   1.971   .     S
C821   C827    1.440   .     S
C822   C828    1.440   .     S
Cu823  Cu824   2.702   .     S
Cu823  N825    2.031   .     S
Cu824  N826    2.031   .     S
N825   C837    1.371   .     A
N825   C836    1.375   .     A
N826   C838    1.371   .     A
N826   C835    1.375   .     A
C827   C936    1.356   1_455 S
C827   N947    1.437   1_455 S
C828   C881    1.356   .     S
C828   N896    1.437   .     S
C829   N845    1.437   .     S
C829   C834    1.416   .     A
C830   C833    1.416   .     A
C830   N848    1.437   .     S
C830   C508    1.397   1_565 S
C831   C833    1.417   .     A
C831   N851    1.436   .     S
C831   C505    1.397   1_565 S
C832   C834    1.417   .     A
C832   N854    1.436   .     S
C835   N857    1.427   .     S
C836   N860    1.427   .     S
C836   C1324   1.419   .     S
C837   Cl863   1.760   .     S
C837   C1321   1.419   .     S
C838   Cl864   1.760   .     S
N839   O840    1.300   .     A
N839   C881    1.437   .     S
N839   O895    1.301   .     S
O841   N947    1.301   1_455 S
N842   O843    1.300   .     A
N842   C936    1.437   1_455 S
N842   O952    1.301   1_455 S
O844   N896    1.301   .     S
N845   O847    1.301   .     A
N845   O846    1.300   .     A
N848   O850    1.301   .     A
N848   O849    1.300   .     A
N851   O852    1.302   .     A
N851   O853    1.301   .     A
N854   O855    1.302   .     A
N854   O856    1.301   .     A
N857   O858    1.300   .     A
N857   O859    1.299   .     A
N860   O861    1.300   .     A
N860   O862    1.299   .     A
O865   C869    1.304   .     A
O865   Cu877   1.997   .     S
O866   C870    1.304   .     A
O866   Cu878   1.997   .     S
O867   Cu878   1.992   .     S
O867   C869    1.305   .     A
O868   C870    1.305   .     A
O868   Cu877   1.992   .     S
C869   C888    1.478   .     S
C870   C887    1.478   .     S
O871   C875    1.286   .     A
O871   Cu877   1.973   .     S
O872   C876    1.286   .     A
O872   Cu878   1.973   .     S
O873   Cu878   1.971   .     S
O873   C875    1.303   .     A
O874   C876    1.303   .     A
O874   Cu877   1.971   .     S
C875   C881    1.440   .     S
C876   C882    1.440   .     S
Cu877  Cu878   2.702   .     S
Cu877  N879    2.031   .     S
Cu878  N880    2.031   .     S
N879   C891    1.371   .     A
N879   C890    1.375   .     A
N880   C892    1.371   .     A
N880   C889    1.375   .     A
C882   C935    1.356   .     S
C882   N950    1.437   .     S
C883   N899    1.437   .     S
C883   C888    1.416   .     A
C884   C887    1.416   .     A
C884   N902    1.437   .     S
C884   C562    1.397   1_565 S
C885   C887    1.417   .     A
C885   N905    1.436   .     S
C885   C559    1.397   1_565 S
C886   C888    1.417   .     A
C886   N908    1.436   .     S
C889   N911    1.427   .     S
C890   N914    1.427   .     S
C890   C1378   1.419   .     S
C891   Cl917   1.760   .     S
C891   C1375   1.419   .     S
C892   Cl918   1.760   .     S
N893   O894    1.300   .     A
N893   C935    1.437   .     S
N893   O949    1.301   .     S
N896   O897    1.300   .     A
O898   N950    1.301   .     S
N899   O901    1.301   .     A
N899   O900    1.300   .     A
N902   O904    1.301   .     A
N902   O903    1.300   .     A
N905   O906    1.302   .     A
N905   O907    1.301   .     A
N908   O909    1.302   .     A
N908   O910    1.301   .     A
N911   O912    1.300   .     A
N911   O913    1.299   .     A
N914   O915    1.300   .     A
N914   O916    1.299   .     A
O919   C923    1.304   .     A
O919   Cu931   1.997   .     S
O920   C924    1.304   .     A
O920   Cu932   1.997   .     S
O921   Cu932   1.992   .     S
O921   C923    1.305   .     A
O922   C924    1.305   .     A
O922   Cu931   1.992   .     S
C923   C942    1.478   .     S
C924   C941    1.478   .     S
O925   C929    1.286   .     A
O925   Cu931   1.973   .     S
O926   C930    1.286   .     A
O926   Cu932   1.973   .     S
O927   Cu932   1.971   .     S
O927   C929    1.303   .     A
O928   C930    1.303   .     A
O928   Cu931   1.971   .     S
C929   C935    1.440   .     S
C930   C936    1.440   .     S
Cu931  Cu932   2.702   .     S
Cu931  N933    2.031   .     S
Cu932  N934    2.031   .     S
N933   C945    1.371   .     A
N933   C944    1.375   .     A
N934   C946    1.371   .     A
N934   C943    1.375   .     A
C936   C827    1.356   1_655 S
C936   N842    1.437   1_655 S
C937   N953    1.437   .     S
C937   C942    1.416   .     A
C938   C941    1.416   .     A
C938   N956    1.437   .     S
C938   C616    1.397   1_565 S
C939   C941    1.417   .     A
C939   N959    1.436   .     S
C939   C613    1.397   1_565 S
C940   C942    1.417   .     A
C940   N962    1.436   .     S
C943   N965    1.427   .     S
C944   N968    1.427   .     S
C944   C1432   1.419   .     S
C945   Cl971   1.760   .     S
C945   C1429   1.419   .     S
C946   Cl972   1.760   .     S
N947   O948    1.300   .     A
N947   C827    1.437   1_655 S
N947   O841    1.301   1_655 S
N950   O951    1.300   .     A
O952   N842    1.301   1_655 S
N953   O955    1.301   .     A
N953   O954    1.300   .     A
N956   O958    1.301   .     A
N956   O957    1.300   .     A
N959   O960    1.302   .     A
N959   O961    1.301   .     A
N962   O963    1.302   .     A
N962   O964    1.301   .     A
N965   O966    1.300   .     A
N965   O967    1.299   .     A
N968   O969    1.300   .     A
N968   O970    1.299   .     A
O973   C977    1.304   .     A
O973   Cu985   1.997   .     S
O974   C978    1.304   .     A
O974   Cu986   1.997   .     S
O975   Cu986   1.992   .     S
O975   C977    1.305   .     A
O976   C978    1.305   .     A
O976   Cu985   1.992   .     S
C977   C996    1.478   .     S
C978   C995    1.478   .     S
O979   C983    1.286   .     A
O979   Cu985   1.973   .     S
O980   C984    1.286   .     A
O980   Cu986   1.973   .     S
O981   Cu986   1.971   .     S
O981   C983    1.303   .     A
O982   C984    1.303   .     A
O982   Cu985   1.971   .     S
C983   C989    1.440   .     S
C984   C990    1.440   .     S
Cu985  Cu986   2.702   .     S
Cu985  N987    2.031   .     S
Cu986  N988    2.031   .     S
N987   C999    1.371   .     A
N987   C998    1.375   .     A
N988   C1000   1.371   .     A
N988   C997    1.375   .     A
C989   C1098   1.356   1_455 S
C989   N1109   1.437   1_455 S
C990   C1043   1.356   .     S
C990   N1058   1.437   .     S
C991   N1007   1.437   .     S
C991   C996    1.416   .     A
C991   C1317   1.397   1_545 S
C992   C995    1.416   .     A
C992   N1010   1.437   .     S
C992   C1156   1.397   .     S
C993   C995    1.417   .     A
C993   N1013   1.436   .     S
C993   C1153   1.397   .     S
C994   C996    1.417   .     A
C994   N1016   1.436   .     S
C994   C1316   1.397   1_545 S
C997   N1019   1.427   .     S
C998   N1022   1.427   .     S
C998   C28     1.419   1_556 S
C999   Cl1025  1.760   .     S
C999   C25     1.419   1_556 S
C1000  Cl1026  1.760   .     S
N1001  O1002   1.300   .     A
N1001  C1043   1.437   .     S
N1001  O1057   1.301   .     S
O1003  N1109   1.301   1_455 S
N1004  O1005   1.300   .     A
N1004  C1098   1.437   1_455 S
N1004  O1114   1.301   1_455 S
O1006  N1058   1.301   .     S
N1007  O1009   1.301   .     A
N1007  O1008   1.300   .     A
N1010  O1012   1.301   .     A
N1010  O1011   1.300   .     A
N1013  O1014   1.302   .     A
N1013  O1015   1.301   .     A
N1016  O1017   1.302   .     A
N1016  O1018   1.301   .     A
N1019  O1020   1.300   .     A
N1019  O1021   1.299   .     A
N1022  O1023   1.300   .     A
N1022  O1024   1.299   .     A
O1027  C1031   1.304   .     A
O1027  Cu1039  1.997   .     S
O1028  C1032   1.304   .     A
O1028  Cu1040  1.997   .     S
O1029  Cu1040  1.992   .     S
O1029  C1031   1.305   .     A
O1030  C1032   1.305   .     A
O1030  Cu1039  1.992   .     S
C1031  C1050   1.478   .     S
C1032  C1049   1.478   .     S
O1033  C1037   1.286   .     A
O1033  Cu1039  1.973   .     S
O1034  C1038   1.286   .     A
O1034  Cu1040  1.973   .     S
O1035  Cu1040  1.971   .     S
O1035  C1037   1.303   .     A
O1036  C1038   1.303   .     A
O1036  Cu1039  1.971   .     S
C1037  C1043   1.440   .     S
C1038  C1044   1.440   .     S
Cu1039 Cu1040  2.702   .     S
Cu1039 N1041   2.031   .     S
Cu1040 N1042   2.031   .     S
N1041  C1053   1.371   .     A
N1041  C1052   1.375   .     A
N1042  C1054   1.371   .     A
N1042  C1051   1.375   .     A
C1044  C1097   1.356   .     S
C1044  N1112   1.437   .     S
C1045  N1061   1.437   .     S
C1045  C1050   1.416   .     A
C1045  C1371   1.397   1_545 S
C1046  C1049   1.416   .     A
C1046  N1064   1.437   .     S
C1046  C1210   1.397   .     S
C1047  C1049   1.417   .     A
C1047  N1067   1.436   .     S
C1047  C1207   1.397   .     S
C1048  C1050   1.417   .     A
C1048  N1070   1.436   .     S
C1048  C1370   1.397   1_545 S
C1051  N1073   1.427   .     S
C1052  N1076   1.427   .     S
C1052  C82     1.419   1_556 S
C1053  Cl1079  1.760   .     S
C1053  C79     1.419   1_556 S
C1054  Cl1080  1.760   .     S
N1055  O1056   1.300   .     A
N1055  C1097   1.437   .     S
N1055  O1111   1.301   .     S
N1058  O1059   1.300   .     A
O1060  N1112   1.301   .     S
N1061  O1063   1.301   .     A
N1061  O1062   1.300   .     A
N1064  O1066   1.301   .     A
N1064  O1065   1.300   .     A
N1067  O1068   1.302   .     A
N1067  O1069   1.301   .     A
N1070  O1071   1.302   .     A
N1070  O1072   1.301   .     A
N1073  O1074   1.300   .     A
N1073  O1075   1.299   .     A
N1076  O1077   1.300   .     A
N1076  O1078   1.299   .     A
O1081  C1085   1.304   .     A
O1081  Cu1093  1.997   .     S
O1082  C1086   1.304   .     A
O1082  Cu1094  1.997   .     S
O1083  Cu1094  1.992   .     S
O1083  C1085   1.305   .     A
O1084  C1086   1.305   .     A
O1084  Cu1093  1.992   .     S
C1085  C1104   1.478   .     S
C1086  C1103   1.478   .     S
O1087  C1091   1.286   .     A
O1087  Cu1093  1.973   .     S
O1088  C1092   1.286   .     A
O1088  Cu1094  1.973   .     S
O1089  Cu1094  1.971   .     S
O1089  C1091   1.303   .     A
O1090  C1092   1.303   .     A
O1090  Cu1093  1.971   .     S
C1091  C1097   1.440   .     S
C1092  C1098   1.440   .     S
Cu1093 Cu1094  2.702   .     S
Cu1093 N1095   2.031   .     S
Cu1094 N1096   2.031   .     S
N1095  C1107   1.371   .     A
N1095  C1106   1.375   .     A
N1096  C1108   1.371   .     A
N1096  C1105   1.375   .     A
C1098  C989    1.356   1_655 S
C1098  N1004   1.437   1_655 S
C1099  N1115   1.437   .     S
C1099  C1104   1.416   .     A
C1099  C1425   1.397   1_545 S
C1100  C1103   1.416   .     A
C1100  N1118   1.437   .     S
C1100  C1264   1.397   .     S
C1101  C1103   1.417   .     A
C1101  N1121   1.436   .     S
C1101  C1261   1.397   .     S
C1102  C1104   1.417   .     A
C1102  N1124   1.436   .     S
C1102  C1424   1.397   1_545 S
C1105  N1127   1.427   .     S
C1106  N1130   1.427   .     S
C1106  C136    1.419   1_556 S
C1107  Cl1133  1.760   .     S
C1107  C133    1.419   1_556 S
C1108  Cl1134  1.760   .     S
N1109  O1110   1.300   .     A
N1109  C989    1.437   1_655 S
N1109  O1003   1.301   1_655 S
N1112  O1113   1.300   .     A
O1114  N1004   1.301   1_655 S
N1115  O1117   1.301   .     A
N1115  O1116   1.300   .     A
N1118  O1120   1.301   .     A
N1118  O1119   1.300   .     A
N1121  O1122   1.302   .     A
N1121  O1123   1.301   .     A
N1124  O1125   1.302   .     A
N1124  O1126   1.301   .     A
N1127  O1128   1.300   .     A
N1127  O1129   1.299   .     A
N1130  O1131   1.300   .     A
N1130  O1132   1.299   .     A
O1135  C1139   1.304   .     A
O1135  Cu1147  1.997   .     S
O1136  C1140   1.304   .     A
O1136  Cu1148  1.997   .     S
O1137  Cu1148  1.992   .     S
O1137  C1139   1.305   .     A
O1138  C1140   1.305   .     A
O1138  Cu1147  1.992   .     S
C1139  C1158   1.478   .     S
C1140  C1157   1.478   .     S
O1141  C1145   1.286   .     A
O1141  Cu1147  1.973   .     S
O1142  C1146   1.286   .     A
O1142  Cu1148  1.973   .     S
O1143  Cu1148  1.971   .     S
O1143  C1145   1.303   .     A
O1144  C1146   1.303   .     A
O1144  Cu1147  1.971   .     S
C1145  C1151   1.440   .     S
C1146  C1152   1.440   .     S
Cu1147 Cu1148  2.702   .     S
Cu1147 N1149   2.031   .     S
Cu1148 N1150   2.031   .     S
N1149  C1161   1.371   .     A
N1149  C1160   1.375   .     A
N1150  C1162   1.371   .     A
N1150  C1159   1.375   .     A
C1151  C1260   1.356   1_455 S
C1151  N1271   1.437   1_455 S
C1152  C1205   1.356   .     S
C1152  N1220   1.437   .     S
C1153  N1169   1.437   .     S
C1153  C1158   1.416   .     A
C1154  C1157   1.416   .     A
C1154  N1172   1.437   .     S
C1154  C1318   1.397   .     S
C1155  C1157   1.417   .     A
C1155  N1175   1.436   .     S
C1155  C1315   1.397   .     S
C1156  C1158   1.417   .     A
C1156  N1178   1.436   .     S
C1159  N1181   1.427   .     S
C1160  N1184   1.427   .     S
C1160  C190    1.419   1_556 S
C1161  Cl1187  1.760   .     S
C1161  C187    1.419   1_556 S
C1162  Cl1188  1.760   .     S
N1163  O1164   1.300   .     A
N1163  C1205   1.437   .     S
N1163  O1219   1.301   .     S
O1165  N1271   1.301   1_455 S
N1166  O1167   1.300   .     A
N1166  C1260   1.437   1_455 S
N1166  O1276   1.301   1_455 S
O1168  N1220   1.301   .     S
N1169  O1171   1.301   .     A
N1169  O1170   1.300   .     A
N1172  O1174   1.301   .     A
N1172  O1173   1.300   .     A
N1175  O1176   1.302   .     A
N1175  O1177   1.301   .     A
N1178  O1179   1.302   .     A
N1178  O1180   1.301   .     A
N1181  O1182   1.300   .     A
N1181  O1183   1.299   .     A
N1184  O1185   1.300   .     A
N1184  O1186   1.299   .     A
O1189  C1193   1.304   .     A
O1189  Cu1201  1.997   .     S
O1190  C1194   1.304   .     A
O1190  Cu1202  1.997   .     S
O1191  Cu1202  1.992   .     S
O1191  C1193   1.305   .     A
O1192  C1194   1.305   .     A
O1192  Cu1201  1.992   .     S
C1193  C1212   1.478   .     S
C1194  C1211   1.478   .     S
O1195  C1199   1.286   .     A
O1195  Cu1201  1.973   .     S
O1196  C1200   1.286   .     A
O1196  Cu1202  1.973   .     S
O1197  Cu1202  1.971   .     S
O1197  C1199   1.303   .     A
O1198  C1200   1.303   .     A
O1198  Cu1201  1.971   .     S
C1199  C1205   1.440   .     S
C1200  C1206   1.440   .     S
Cu1201 Cu1202  2.702   .     S
Cu1201 N1203   2.031   .     S
Cu1202 N1204   2.031   .     S
N1203  C1215   1.371   .     A
N1203  C1214   1.375   .     A
N1204  C1216   1.371   .     A
N1204  C1213   1.375   .     A
C1206  C1259   1.356   .     S
C1206  N1274   1.437   .     S
C1207  N1223   1.437   .     S
C1207  C1212   1.416   .     A
C1208  C1211   1.416   .     A
C1208  N1226   1.437   .     S
C1208  C1372   1.397   .     S
C1209  C1211   1.417   .     A
C1209  N1229   1.436   .     S
C1209  C1369   1.397   .     S
C1210  C1212   1.417   .     A
C1210  N1232   1.436   .     S
C1213  N1235   1.427   .     S
C1214  N1238   1.427   .     S
C1214  C244    1.419   1_556 S
C1215  Cl1241  1.760   .     S
C1215  C241    1.419   1_556 S
C1216  Cl1242  1.760   .     S
N1217  O1218   1.300   .     A
N1217  C1259   1.437   .     S
N1217  O1273   1.301   .     S
N1220  O1221   1.300   .     A
O1222  N1274   1.301   .     S
N1223  O1225   1.301   .     A
N1223  O1224   1.300   .     A
N1226  O1228   1.301   .     A
N1226  O1227   1.300   .     A
N1229  O1230   1.302   .     A
N1229  O1231   1.301   .     A
N1232  O1233   1.302   .     A
N1232  O1234   1.301   .     A
N1235  O1236   1.300   .     A
N1235  O1237   1.299   .     A
N1238  O1239   1.300   .     A
N1238  O1240   1.299   .     A
O1243  C1247   1.304   .     A
O1243  Cu1255  1.997   .     S
O1244  C1248   1.304   .     A
O1244  Cu1256  1.997   .     S
O1245  Cu1256  1.992   .     S
O1245  C1247   1.305   .     A
O1246  C1248   1.305   .     A
O1246  Cu1255  1.992   .     S
C1247  C1266   1.478   .     S
C1248  C1265   1.478   .     S
O1249  C1253   1.286   .     A
O1249  Cu1255  1.973   .     S
O1250  C1254   1.286   .     A
O1250  Cu1256  1.973   .     S
O1251  Cu1256  1.971   .     S
O1251  C1253   1.303   .     A
O1252  C1254   1.303   .     A
O1252  Cu1255  1.971   .     S
C1253  C1259   1.440   .     S
C1254  C1260   1.440   .     S
Cu1255 Cu1256  2.702   .     S
Cu1255 N1257   2.031   .     S
Cu1256 N1258   2.031   .     S
N1257  C1269   1.371   .     A
N1257  C1268   1.375   .     A
N1258  C1270   1.371   .     A
N1258  C1267   1.375   .     A
C1260  C1151   1.356   1_655 S
C1260  N1166   1.437   1_655 S
C1261  N1277   1.437   .     S
C1261  C1266   1.416   .     A
C1262  C1265   1.416   .     A
C1262  N1280   1.437   .     S
C1262  C1426   1.397   .     S
C1263  C1265   1.417   .     A
C1263  N1283   1.436   .     S
C1263  C1423   1.397   .     S
C1264  C1266   1.417   .     A
C1264  N1286   1.436   .     S
C1267  N1289   1.427   .     S
C1268  N1292   1.427   .     S
C1268  C298    1.419   1_556 S
C1269  Cl1295  1.760   .     S
C1269  C295    1.419   1_556 S
C1270  Cl1296  1.760   .     S
N1271  O1272   1.300   .     A
N1271  C1151   1.437   1_655 S
N1271  O1165   1.301   1_655 S
N1274  O1275   1.300   .     A
O1276  N1166   1.301   1_655 S
N1277  O1279   1.301   .     A
N1277  O1278   1.300   .     A
N1280  O1282   1.301   .     A
N1280  O1281   1.300   .     A
N1283  O1284   1.302   .     A
N1283  O1285   1.301   .     A
N1286  O1287   1.302   .     A
N1286  O1288   1.301   .     A
N1289  O1290   1.300   .     A
N1289  O1291   1.299   .     A
N1292  O1293   1.300   .     A
N1292  O1294   1.299   .     A
O1297  C1301   1.304   .     A
O1297  Cu1309  1.997   .     S
O1298  C1302   1.304   .     A
O1298  Cu1310  1.997   .     S
O1299  Cu1310  1.992   .     S
O1299  C1301   1.305   .     A
O1300  C1302   1.305   .     A
O1300  Cu1309  1.992   .     S
C1301  C1320   1.478   .     S
C1302  C1319   1.478   .     S
O1303  C1307   1.286   .     A
O1303  Cu1309  1.973   .     S
O1304  C1308   1.286   .     A
O1304  Cu1310  1.973   .     S
O1305  Cu1310  1.971   .     S
O1305  C1307   1.303   .     A
O1306  C1308   1.303   .     A
O1306  Cu1309  1.971   .     S
C1307  C1313   1.440   .     S
C1308  C1314   1.440   .     S
Cu1309 Cu1310  2.702   .     S
Cu1309 N1311   2.031   .     S
Cu1310 N1312   2.031   .     S
N1311  C1323   1.371   .     A
N1311  C1322   1.375   .     A
N1312  C1324   1.371   .     A
N1312  C1321   1.375   .     A
C1313  C1422   1.356   1_455 S
C1313  N1433   1.437   1_455 S
C1314  C1367   1.356   .     S
C1314  N1382   1.437   .     S
C1315  N1331   1.437   .     S
C1315  C1320   1.416   .     A
C1316  C1319   1.416   .     A
C1316  N1334   1.437   .     S
C1316  C994    1.397   1_565 S
C1317  C1319   1.417   .     A
C1317  N1337   1.436   .     S
C1317  C991    1.397   1_565 S
C1318  C1320   1.417   .     A
C1318  N1340   1.436   .     S
C1321  N1343   1.427   .     S
C1322  N1346   1.427   .     S
C1322  C352    1.419   1_556 S
C1323  Cl1349  1.760   .     S
C1323  C349    1.419   1_556 S
C1324  Cl1350  1.760   .     S
N1325  O1326   1.300   .     A
N1325  C1367   1.437   .     S
N1325  O1381   1.301   .     S
O1327  N1433   1.301   1_455 S
N1328  O1329   1.300   .     A
N1328  C1422   1.437   1_455 S
N1328  O1438   1.301   1_455 S
O1330  N1382   1.301   .     S
N1331  O1333   1.301   .     A
N1331  O1332   1.300   .     A
N1334  O1336   1.301   .     A
N1334  O1335   1.300   .     A
N1337  O1338   1.302   .     A
N1337  O1339   1.301   .     A
N1340  O1341   1.302   .     A
N1340  O1342   1.301   .     A
N1343  O1344   1.300   .     A
N1343  O1345   1.299   .     A
N1346  O1347   1.300   .     A
N1346  O1348   1.299   .     A
O1351  C1355   1.304   .     A
O1351  Cu1363  1.997   .     S
O1352  C1356   1.304   .     A
O1352  Cu1364  1.997   .     S
O1353  Cu1364  1.992   .     S
O1353  C1355   1.305   .     A
O1354  C1356   1.305   .     A
O1354  Cu1363  1.992   .     S
C1355  C1374   1.478   .     S
C1356  C1373   1.478   .     S
O1357  C1361   1.286   .     A
O1357  Cu1363  1.973   .     S
O1358  C1362   1.286   .     A
O1358  Cu1364  1.973   .     S
O1359  Cu1364  1.971   .     S
O1359  C1361   1.303   .     A
O1360  C1362   1.303   .     A
O1360  Cu1363  1.971   .     S
C1361  C1367   1.440   .     S
C1362  C1368   1.440   .     S
Cu1363 Cu1364  2.702   .     S
Cu1363 N1365   2.031   .     S
Cu1364 N1366   2.031   .     S
N1365  C1377   1.371   .     A
N1365  C1376   1.375   .     A
N1366  C1378   1.371   .     A
N1366  C1375   1.375   .     A
C1368  C1421   1.356   .     S
C1368  N1436   1.437   .     S
C1369  N1385   1.437   .     S
C1369  C1374   1.416   .     A
C1370  C1373   1.416   .     A
C1370  N1388   1.437   .     S
C1370  C1048   1.397   1_565 S
C1371  C1373   1.417   .     A
C1371  N1391   1.436   .     S
C1371  C1045   1.397   1_565 S
C1372  C1374   1.417   .     A
C1372  N1394   1.436   .     S
C1375  N1397   1.427   .     S
C1376  N1400   1.427   .     S
C1376  C406    1.419   1_556 S
C1377  Cl1403  1.760   .     S
C1377  C403    1.419   1_556 S
C1378  Cl1404  1.760   .     S
N1379  O1380   1.300   .     A
N1379  C1421   1.437   .     S
N1379  O1435   1.301   .     S
N1382  O1383   1.300   .     A
O1384  N1436   1.301   .     S
N1385  O1387   1.301   .     A
N1385  O1386   1.300   .     A
N1388  O1390   1.301   .     A
N1388  O1389   1.300   .     A
N1391  O1392   1.302   .     A
N1391  O1393   1.301   .     A
N1394  O1395   1.302   .     A
N1394  O1396   1.301   .     A
N1397  O1398   1.300   .     A
N1397  O1399   1.299   .     A
N1400  O1401   1.300   .     A
N1400  O1402   1.299   .     A
O1405  C1409   1.304   .     A
O1405  Cu1417  1.997   .     S
O1406  C1410   1.304   .     A
O1406  Cu1418  1.997   .     S
O1407  Cu1418  1.992   .     S
O1407  C1409   1.305   .     A
O1408  C1410   1.305   .     A
O1408  Cu1417  1.992   .     S
C1409  C1428   1.478   .     S
C1410  C1427   1.478   .     S
O1411  C1415   1.286   .     A
O1411  Cu1417  1.973   .     S
O1412  C1416   1.286   .     A
O1412  Cu1418  1.973   .     S
O1413  Cu1418  1.971   .     S
O1413  C1415   1.303   .     A
O1414  C1416   1.303   .     A
O1414  Cu1417  1.971   .     S
C1415  C1421   1.440   .     S
C1416  C1422   1.440   .     S
Cu1417 Cu1418  2.702   .     S
Cu1417 N1419   2.031   .     S
Cu1418 N1420   2.031   .     S
N1419  C1431   1.371   .     A
N1419  C1430   1.375   .     A
N1420  C1432   1.371   .     A
N1420  C1429   1.375   .     A
C1422  C1313   1.356   1_655 S
C1422  N1328   1.437   1_655 S
C1423  N1439   1.437   .     S
C1423  C1428   1.416   .     A
C1424  C1427   1.416   .     A
C1424  N1442   1.437   .     S
C1424  C1102   1.397   1_565 S
C1425  C1427   1.417   .     A
C1425  N1445   1.436   .     S
C1425  C1099   1.397   1_565 S
C1426  C1428   1.417   .     A
C1426  N1448   1.436   .     S
C1429  N1451   1.427   .     S
C1430  N1454   1.427   .     S
C1430  C460    1.419   1_556 S
C1431  Cl1457  1.760   .     S
C1431  C457    1.419   1_556 S
C1432  Cl1458  1.760   .     S
N1433  O1434   1.300   .     A
N1433  C1313   1.437   1_655 S
N1433  O1327   1.301   1_655 S
N1436  O1437   1.300   .     A
O1438  N1328   1.301   1_655 S
N1439  O1441   1.301   .     A
N1439  O1440   1.300   .     A
N1442  O1444   1.301   .     A
N1442  O1443   1.300   .     A
N1445  O1446   1.302   .     A
N1445  O1447   1.301   .     A
N1448  O1449   1.302   .     A
N1448  O1450   1.301   .     A
N1451  O1452   1.300   .     A
N1451  O1453   1.299   .     A
N1454  O1455   1.300   .     A
N1454  O1456   1.299   .     A
