data_str_m2_o10_o17_pcu_sym.17
_audit_creation_date              2020-01-03
_audit_creation_method            'Materials Studio'
_symmetry_space_group_name_H-M    'P1'
_symmetry_Int_Tables_number       1
_symmetry_cell_setting            triclinic
loop_
_symmetry_equiv_pos_as_xyz
  x,y,z
_cell_length_a                    29.9233
_cell_length_b                    26.0264
_cell_length_c                    22.3548
_cell_angle_alpha                 102.8361
_cell_angle_beta                  93.8695
_cell_angle_gamma                 92.3212
loop_
_atom_site_label
_atom_site_type_symbol
_atom_site_fract_x
_atom_site_fract_y
_atom_site_fract_z
_atom_site_U_iso_or_equiv
_atom_site_adp_type
_atom_site_occupancy
Br1    Br    0.04130   0.00902   0.07110   0.00000  Uiso   1.00
Br2    Br    0.45870   0.32431   0.26224   0.00000  Uiso   1.00
C3     C     0.24865   0.06661   0.15113   0.00000  Uiso   1.00
C4     C     0.09054   0.12076   0.13888   0.00000  Uiso   1.00
C5     C     0.38353   0.16748   0.16374   0.00000  Uiso   1.00
C6     C     0.11647   0.16585   0.16959   0.00000  Uiso   1.00
C7     C     0.40337   0.12249   0.13337   0.00000  Uiso   1.00
C8     C     0.09663   0.21084   0.19996   0.00000  Uiso   1.00
C9     C     0.44993   0.12167   0.13497   0.00000  Uiso   1.00
C10    C     0.05007   0.21166   0.19836   0.00000  Uiso   1.00
C11    C     0.47655   0.16712   0.16588   0.00000  Uiso   1.00
C12    C     0.02345   0.16622   0.16745   0.00000  Uiso   1.00
C13    C     0.45624   0.21336   0.19523   0.00000  Uiso   1.00
C14    C     0.25135   0.26673   0.18221   0.00000  Uiso   1.00
C15    C     0.04376   0.11997   0.13811   0.00000  Uiso   1.00
C16    C     0.47016   0.07586   0.10694   0.00000  Uiso   1.00
C17    C     0.02984   0.25747   0.22639   0.00000  Uiso   1.00
C18    C     0.01675   0.07453   0.10859   0.00000  Uiso   1.00
C19    C     0.48325   0.25881   0.22474   0.00000  Uiso   1.00
C20    C     0.24800   0.01065   0.14237   0.00000  Uiso   1.00
C21    C     0.25200   0.32269   0.19096   0.00000  Uiso   1.00
C22    C     0.16456   0.16648   0.16763   0.00000  Uiso   1.00
C23    C     0.33544   0.16686   0.16570   0.00000  Uiso   1.00
C24    C     0.40946   0.21257   0.19446   0.00000  Uiso   1.00
Cu25   Cu    0.25501   0.17246   0.22813   0.00000  Uiso   1.00
Cu26   Cu    0.24500   0.16087   0.10521   0.00000  Uiso   1.00
H27    H     0.39263   0.24663   0.21745   0.00000  Uiso   1.00
H28    H     0.28493   0.20737   0.01704   0.00000  Uiso   1.00
H29    H     0.10737   0.08671   0.11589   0.00000  Uiso   1.00
H30    H     0.38250   0.08778   0.11016   0.00000  Uiso   1.00
H31    H     0.11751   0.24555   0.22317   0.00000  Uiso   1.00
H32    H     0.44968   0.04080   0.08404   0.00000  Uiso   1.00
H33    H     0.05032   0.29254   0.24929   0.00000  Uiso   1.00
H34    H     0.24421   0.32019   0.09552   0.00000  Uiso   1.00
H35    H     0.25579   0.01314   0.23781   0.00000  Uiso   1.00
H36    H     0.21507   0.12596   0.31629   0.00000  Uiso   1.00
N37    N     0.23745   0.15214   0.01284   0.00000  Uiso   1.00
N38    N     0.26256   0.18119   0.32049   0.00000  Uiso   1.00
O39    O     0.25326   0.09538   0.20659   0.00000  Uiso   1.00
O40    O     0.24675   0.23796   0.12674   0.00000  Uiso   1.00
O41    O     0.24480   0.08559   0.10279   0.00000  Uiso   1.00
O42    O     0.25520   0.24774   0.23055   0.00000  Uiso   1.00
O43    O     0.18936   0.17155   0.21857   0.00000  Uiso   1.00
O44    O     0.31065   0.16179   0.11476   0.00000  Uiso   1.00
O45    O     0.18090   0.16176   0.11477   0.00000  Uiso   1.00
O46    O     0.31910   0.17157   0.21857   0.00000  Uiso   1.00
Br47   Br    0.54130   0.00902   0.07110   0.00000  Uiso   1.00
Br48   Br    0.95870   0.32431   0.26224   0.00000  Uiso   1.00
C49    C     0.74865   0.06661   0.15113   0.00000  Uiso   1.00
C50    C     0.59054   0.12076   0.13888   0.00000  Uiso   1.00
C51    C     0.88353   0.16748   0.16374   0.00000  Uiso   1.00
C52    C     0.61647   0.16585   0.16959   0.00000  Uiso   1.00
C53    C     0.90337   0.12249   0.13337   0.00000  Uiso   1.00
C54    C     0.59663   0.21084   0.19996   0.00000  Uiso   1.00
C55    C     0.94993   0.12167   0.13497   0.00000  Uiso   1.00
C56    C     0.55007   0.21166   0.19836   0.00000  Uiso   1.00
C57    C     0.97655   0.16712   0.16588   0.00000  Uiso   1.00
C58    C     0.52345   0.16622   0.16745   0.00000  Uiso   1.00
C59    C     0.95624   0.21336   0.19523   0.00000  Uiso   1.00
C60    C     0.75135   0.26673   0.18221   0.00000  Uiso   1.00
C61    C     0.54376   0.11997   0.13811   0.00000  Uiso   1.00
C62    C     0.97016   0.07586   0.10694   0.00000  Uiso   1.00
C63    C     0.52984   0.25747   0.22639   0.00000  Uiso   1.00
C64    C     0.51675   0.07453   0.10859   0.00000  Uiso   1.00
C65    C     0.98325   0.25881   0.22474   0.00000  Uiso   1.00
C66    C     0.74800   0.01065   0.14237   0.00000  Uiso   1.00
C67    C     0.75200   0.32269   0.19096   0.00000  Uiso   1.00
C68    C     0.66456   0.16648   0.16763   0.00000  Uiso   1.00
C69    C     0.83544   0.16686   0.16570   0.00000  Uiso   1.00
C70    C     0.90946   0.21257   0.19446   0.00000  Uiso   1.00
Cu71   Cu    0.75501   0.17246   0.22813   0.00000  Uiso   1.00
Cu72   Cu    0.74500   0.16087   0.10521   0.00000  Uiso   1.00
H73    H     0.89263   0.24663   0.21745   0.00000  Uiso   1.00
H74    H     0.78493   0.20737   0.01704   0.00000  Uiso   1.00
H75    H     0.60737   0.08671   0.11589   0.00000  Uiso   1.00
H76    H     0.88250   0.08778   0.11016   0.00000  Uiso   1.00
H77    H     0.61751   0.24555   0.22317   0.00000  Uiso   1.00
H78    H     0.94968   0.04080   0.08404   0.00000  Uiso   1.00
H79    H     0.55032   0.29254   0.24929   0.00000  Uiso   1.00
H80    H     0.74421   0.32019   0.09552   0.00000  Uiso   1.00
H81    H     0.75579   0.01314   0.23781   0.00000  Uiso   1.00
H82    H     0.71507   0.12596   0.31629   0.00000  Uiso   1.00
N83    N     0.73745   0.15214   0.01284   0.00000  Uiso   1.00
N84    N     0.76256   0.18119   0.32049   0.00000  Uiso   1.00
O85    O     0.75326   0.09538   0.20659   0.00000  Uiso   1.00
O86    O     0.74675   0.23796   0.12674   0.00000  Uiso   1.00
O87    O     0.74480   0.08559   0.10279   0.00000  Uiso   1.00
O88    O     0.75520   0.24774   0.23055   0.00000  Uiso   1.00
O89    O     0.68936   0.17155   0.21857   0.00000  Uiso   1.00
O90    O     0.81065   0.16179   0.11476   0.00000  Uiso   1.00
O91    O     0.68090   0.16176   0.11477   0.00000  Uiso   1.00
O92    O     0.81910   0.17157   0.21857   0.00000  Uiso   1.00
Br93   Br    0.04130   0.34236   0.07110   0.00000  Uiso   1.00
Br94   Br    0.45870   0.65764   0.26224   0.00000  Uiso   1.00
C95    C     0.24865   0.39994   0.15113   0.00000  Uiso   1.00
C96    C     0.09054   0.45409   0.13888   0.00000  Uiso   1.00
C97    C     0.38353   0.50082   0.16374   0.00000  Uiso   1.00
C98    C     0.11647   0.49918   0.16959   0.00000  Uiso   1.00
C99    C     0.40337   0.45583   0.13337   0.00000  Uiso   1.00
C100   C     0.09663   0.54417   0.19996   0.00000  Uiso   1.00
C101   C     0.44993   0.45501   0.13497   0.00000  Uiso   1.00
C102   C     0.05007   0.54499   0.19836   0.00000  Uiso   1.00
C103   C     0.47655   0.50045   0.16588   0.00000  Uiso   1.00
C104   C     0.02345   0.49955   0.16745   0.00000  Uiso   1.00
C105   C     0.45624   0.54670   0.19523   0.00000  Uiso   1.00
C106   C     0.25135   0.60006   0.18221   0.00000  Uiso   1.00
C107   C     0.04376   0.45330   0.13811   0.00000  Uiso   1.00
C108   C     0.47016   0.40919   0.10694   0.00000  Uiso   1.00
C109   C     0.02984   0.59081   0.22639   0.00000  Uiso   1.00
C110   C     0.01675   0.40786   0.10859   0.00000  Uiso   1.00
C111   C     0.48325   0.59214   0.22474   0.00000  Uiso   1.00
C112   C     0.24800   0.34398   0.14237   0.00000  Uiso   1.00
C113   C     0.25200   0.65602   0.19096   0.00000  Uiso   1.00
C114   C     0.16456   0.49981   0.16763   0.00000  Uiso   1.00
C115   C     0.33544   0.50019   0.16570   0.00000  Uiso   1.00
C116   C     0.40946   0.54591   0.19446   0.00000  Uiso   1.00
Cu117  Cu    0.25501   0.50579   0.22813   0.00000  Uiso   1.00
Cu118  Cu    0.24500   0.49421   0.10521   0.00000  Uiso   1.00
H119   H     0.39263   0.57996   0.21745   0.00000  Uiso   1.00
H120   H     0.28493   0.54070   0.01704   0.00000  Uiso   1.00
H121   H     0.10737   0.42004   0.11589   0.00000  Uiso   1.00
H122   H     0.38250   0.42112   0.11016   0.00000  Uiso   1.00
H123   H     0.11751   0.57888   0.22317   0.00000  Uiso   1.00
H124   H     0.44968   0.37413   0.08404   0.00000  Uiso   1.00
H125   H     0.05032   0.62587   0.24929   0.00000  Uiso   1.00
H126   H     0.24421   0.65352   0.09552   0.00000  Uiso   1.00
H127   H     0.25579   0.34648   0.23781   0.00000  Uiso   1.00
H128   H     0.21507   0.45930   0.31629   0.00000  Uiso   1.00
N129   N     0.23745   0.48547   0.01284   0.00000  Uiso   1.00
N130   N     0.26256   0.51453   0.32049   0.00000  Uiso   1.00
O131   O     0.25326   0.42871   0.20659   0.00000  Uiso   1.00
O132   O     0.24675   0.57129   0.12674   0.00000  Uiso   1.00
O133   O     0.24480   0.41892   0.10279   0.00000  Uiso   1.00
O134   O     0.25520   0.58108   0.23055   0.00000  Uiso   1.00
O135   O     0.18936   0.50488   0.21857   0.00000  Uiso   1.00
O136   O     0.31065   0.49512   0.11476   0.00000  Uiso   1.00
O137   O     0.18090   0.49510   0.11477   0.00000  Uiso   1.00
O138   O     0.31910   0.50490   0.21857   0.00000  Uiso   1.00
Br139  Br    0.54130   0.34236   0.07110   0.00000  Uiso   1.00
Br140  Br    0.95870   0.65764   0.26224   0.00000  Uiso   1.00
C141   C     0.74865   0.39994   0.15113   0.00000  Uiso   1.00
C142   C     0.59054   0.45409   0.13888   0.00000  Uiso   1.00
C143   C     0.88353   0.50082   0.16374   0.00000  Uiso   1.00
C144   C     0.61647   0.49918   0.16959   0.00000  Uiso   1.00
C145   C     0.90337   0.45583   0.13337   0.00000  Uiso   1.00
C146   C     0.59663   0.54417   0.19996   0.00000  Uiso   1.00
C147   C     0.94993   0.45501   0.13497   0.00000  Uiso   1.00
C148   C     0.55007   0.54499   0.19836   0.00000  Uiso   1.00
C149   C     0.97655   0.50045   0.16588   0.00000  Uiso   1.00
C150   C     0.52345   0.49955   0.16745   0.00000  Uiso   1.00
C151   C     0.95624   0.54670   0.19523   0.00000  Uiso   1.00
C152   C     0.75135   0.60006   0.18221   0.00000  Uiso   1.00
C153   C     0.54376   0.45330   0.13811   0.00000  Uiso   1.00
C154   C     0.97016   0.40919   0.10694   0.00000  Uiso   1.00
C155   C     0.52984   0.59081   0.22639   0.00000  Uiso   1.00
C156   C     0.51675   0.40786   0.10859   0.00000  Uiso   1.00
C157   C     0.98325   0.59214   0.22474   0.00000  Uiso   1.00
C158   C     0.74800   0.34398   0.14237   0.00000  Uiso   1.00
C159   C     0.75200   0.65602   0.19096   0.00000  Uiso   1.00
C160   C     0.66456   0.49981   0.16763   0.00000  Uiso   1.00
C161   C     0.83544   0.50019   0.16570   0.00000  Uiso   1.00
C162   C     0.90946   0.54591   0.19446   0.00000  Uiso   1.00
Cu163  Cu    0.75501   0.50579   0.22813   0.00000  Uiso   1.00
Cu164  Cu    0.74500   0.49421   0.10521   0.00000  Uiso   1.00
H165   H     0.89263   0.57996   0.21745   0.00000  Uiso   1.00
H166   H     0.78493   0.54070   0.01704   0.00000  Uiso   1.00
H167   H     0.60737   0.42004   0.11589   0.00000  Uiso   1.00
H168   H     0.88250   0.42112   0.11016   0.00000  Uiso   1.00
H169   H     0.61751   0.57888   0.22317   0.00000  Uiso   1.00
H170   H     0.94968   0.37413   0.08404   0.00000  Uiso   1.00
H171   H     0.55032   0.62587   0.24929   0.00000  Uiso   1.00
H172   H     0.74421   0.65352   0.09552   0.00000  Uiso   1.00
H173   H     0.75579   0.34648   0.23781   0.00000  Uiso   1.00
H174   H     0.71507   0.45930   0.31629   0.00000  Uiso   1.00
N175   N     0.73745   0.48547   0.01284   0.00000  Uiso   1.00
N176   N     0.76256   0.51453   0.32049   0.00000  Uiso   1.00
O177   O     0.75326   0.42871   0.20659   0.00000  Uiso   1.00
O178   O     0.74675   0.57129   0.12674   0.00000  Uiso   1.00
O179   O     0.74480   0.41892   0.10279   0.00000  Uiso   1.00
O180   O     0.75520   0.58108   0.23055   0.00000  Uiso   1.00
O181   O     0.68936   0.50488   0.21857   0.00000  Uiso   1.00
O182   O     0.81065   0.49512   0.11476   0.00000  Uiso   1.00
O183   O     0.68090   0.49510   0.11477   0.00000  Uiso   1.00
O184   O     0.81910   0.50490   0.21857   0.00000  Uiso   1.00
Br185  Br    0.04130   0.67569   0.07110   0.00000  Uiso   1.00
Br186  Br    0.45870   0.99098   0.26224   0.00000  Uiso   1.00
C187   C     0.24865   0.73327   0.15113   0.00000  Uiso   1.00
C188   C     0.09054   0.78743   0.13888   0.00000  Uiso   1.00
C189   C     0.38353   0.83415   0.16374   0.00000  Uiso   1.00
C190   C     0.11647   0.83252   0.16959   0.00000  Uiso   1.00
C191   C     0.40337   0.78916   0.13337   0.00000  Uiso   1.00
C192   C     0.09663   0.87751   0.19996   0.00000  Uiso   1.00
C193   C     0.44993   0.78834   0.13497   0.00000  Uiso   1.00
C194   C     0.05007   0.87833   0.19836   0.00000  Uiso   1.00
C195   C     0.47655   0.83378   0.16588   0.00000  Uiso   1.00
C196   C     0.02345   0.83288   0.16745   0.00000  Uiso   1.00
C197   C     0.45624   0.88003   0.19523   0.00000  Uiso   1.00
C198   C     0.25135   0.93339   0.18221   0.00000  Uiso   1.00
C199   C     0.04376   0.78664   0.13811   0.00000  Uiso   1.00
C200   C     0.47016   0.74253   0.10694   0.00000  Uiso   1.00
C201   C     0.02984   0.92414   0.22639   0.00000  Uiso   1.00
C202   C     0.01675   0.74119   0.10859   0.00000  Uiso   1.00
C203   C     0.48325   0.92547   0.22474   0.00000  Uiso   1.00
C204   C     0.24800   0.67731   0.14237   0.00000  Uiso   1.00
C205   C     0.25200   0.98935   0.19096   0.00000  Uiso   1.00
C206   C     0.16456   0.83314   0.16763   0.00000  Uiso   1.00
C207   C     0.33544   0.83353   0.16570   0.00000  Uiso   1.00
C208   C     0.40946   0.87924   0.19446   0.00000  Uiso   1.00
Cu209  Cu    0.25501   0.83913   0.22813   0.00000  Uiso   1.00
Cu210  Cu    0.24500   0.82754   0.10521   0.00000  Uiso   1.00
H211   H     0.39263   0.91329   0.21745   0.00000  Uiso   1.00
H212   H     0.28493   0.87404   0.01704   0.00000  Uiso   1.00
H213   H     0.10737   0.75337   0.11589   0.00000  Uiso   1.00
H214   H     0.38250   0.75445   0.11016   0.00000  Uiso   1.00
H215   H     0.11751   0.91222   0.22317   0.00000  Uiso   1.00
H216   H     0.44968   0.70746   0.08404   0.00000  Uiso   1.00
H217   H     0.05032   0.95920   0.24929   0.00000  Uiso   1.00
H218   H     0.24421   0.98686   0.09552   0.00000  Uiso   1.00
H219   H     0.25579   0.67981   0.23781   0.00000  Uiso   1.00
H220   H     0.21507   0.79263   0.31629   0.00000  Uiso   1.00
N221   N     0.23745   0.81881   0.01284   0.00000  Uiso   1.00
N222   N     0.26256   0.84786   0.32049   0.00000  Uiso   1.00
O223   O     0.25326   0.76204   0.20659   0.00000  Uiso   1.00
O224   O     0.24675   0.90462   0.12674   0.00000  Uiso   1.00
O225   O     0.24480   0.75226   0.10279   0.00000  Uiso   1.00
O226   O     0.25520   0.91441   0.23055   0.00000  Uiso   1.00
O227   O     0.18936   0.83821   0.21857   0.00000  Uiso   1.00
O228   O     0.31065   0.82845   0.11476   0.00000  Uiso   1.00
O229   O     0.18090   0.82843   0.11477   0.00000  Uiso   1.00
O230   O     0.31910   0.83824   0.21857   0.00000  Uiso   1.00
Br231  Br    0.54130   0.67569   0.07110   0.00000  Uiso   1.00
Br232  Br    0.95870   0.99098   0.26224   0.00000  Uiso   1.00
C233   C     0.74865   0.73327   0.15113   0.00000  Uiso   1.00
C234   C     0.59054   0.78743   0.13888   0.00000  Uiso   1.00
C235   C     0.88353   0.83415   0.16374   0.00000  Uiso   1.00
C236   C     0.61647   0.83252   0.16959   0.00000  Uiso   1.00
C237   C     0.90337   0.78916   0.13337   0.00000  Uiso   1.00
C238   C     0.59663   0.87751   0.19996   0.00000  Uiso   1.00
C239   C     0.94993   0.78834   0.13497   0.00000  Uiso   1.00
C240   C     0.55007   0.87833   0.19836   0.00000  Uiso   1.00
C241   C     0.97655   0.83378   0.16588   0.00000  Uiso   1.00
C242   C     0.52345   0.83288   0.16745   0.00000  Uiso   1.00
C243   C     0.95624   0.88003   0.19523   0.00000  Uiso   1.00
C244   C     0.75135   0.93339   0.18221   0.00000  Uiso   1.00
C245   C     0.54376   0.78664   0.13811   0.00000  Uiso   1.00
C246   C     0.97016   0.74253   0.10694   0.00000  Uiso   1.00
C247   C     0.52984   0.92414   0.22639   0.00000  Uiso   1.00
C248   C     0.51675   0.74119   0.10859   0.00000  Uiso   1.00
C249   C     0.98325   0.92547   0.22474   0.00000  Uiso   1.00
C250   C     0.74800   0.67731   0.14237   0.00000  Uiso   1.00
C251   C     0.75200   0.98935   0.19096   0.00000  Uiso   1.00
C252   C     0.66456   0.83314   0.16763   0.00000  Uiso   1.00
C253   C     0.83544   0.83353   0.16570   0.00000  Uiso   1.00
C254   C     0.90946   0.87924   0.19446   0.00000  Uiso   1.00
Cu255  Cu    0.75501   0.83913   0.22813   0.00000  Uiso   1.00
Cu256  Cu    0.74500   0.82754   0.10521   0.00000  Uiso   1.00
H257   H     0.89263   0.91329   0.21745   0.00000  Uiso   1.00
H258   H     0.78493   0.87404   0.01704   0.00000  Uiso   1.00
H259   H     0.60737   0.75337   0.11589   0.00000  Uiso   1.00
H260   H     0.88250   0.75445   0.11016   0.00000  Uiso   1.00
H261   H     0.61751   0.91222   0.22317   0.00000  Uiso   1.00
H262   H     0.94968   0.70746   0.08404   0.00000  Uiso   1.00
H263   H     0.55032   0.95920   0.24929   0.00000  Uiso   1.00
H264   H     0.74421   0.98686   0.09552   0.00000  Uiso   1.00
H265   H     0.75579   0.67981   0.23781   0.00000  Uiso   1.00
H266   H     0.71507   0.79263   0.31629   0.00000  Uiso   1.00
N267   N     0.73745   0.81881   0.01284   0.00000  Uiso   1.00
N268   N     0.76256   0.84786   0.32049   0.00000  Uiso   1.00
O269   O     0.75326   0.76204   0.20659   0.00000  Uiso   1.00
O270   O     0.74675   0.90462   0.12674   0.00000  Uiso   1.00
O271   O     0.74480   0.75226   0.10279   0.00000  Uiso   1.00
O272   O     0.75520   0.91441   0.23055   0.00000  Uiso   1.00
O273   O     0.68936   0.83821   0.21857   0.00000  Uiso   1.00
O274   O     0.81065   0.82845   0.11476   0.00000  Uiso   1.00
O275   O     0.68090   0.82843   0.11477   0.00000  Uiso   1.00
O276   O     0.81910   0.83824   0.21857   0.00000  Uiso   1.00
Br277  Br    0.04130   0.00902   0.40443   0.00000  Uiso   1.00
Br278  Br    0.45870   0.32431   0.59557   0.00000  Uiso   1.00
C279   C     0.24865   0.06661   0.48446   0.00000  Uiso   1.00
C280   C     0.09054   0.12076   0.47221   0.00000  Uiso   1.00
C281   C     0.38353   0.16748   0.49708   0.00000  Uiso   1.00
C282   C     0.11647   0.16585   0.50292   0.00000  Uiso   1.00
C283   C     0.40337   0.12249   0.46670   0.00000  Uiso   1.00
C284   C     0.09663   0.21084   0.53330   0.00000  Uiso   1.00
C285   C     0.44993   0.12167   0.46830   0.00000  Uiso   1.00
C286   C     0.05007   0.21166   0.53170   0.00000  Uiso   1.00
C287   C     0.47655   0.16712   0.49922   0.00000  Uiso   1.00
C288   C     0.02345   0.16622   0.50078   0.00000  Uiso   1.00
C289   C     0.45624   0.21336   0.52856   0.00000  Uiso   1.00
C290   C     0.25135   0.26673   0.51554   0.00000  Uiso   1.00
C291   C     0.04376   0.11997   0.47144   0.00000  Uiso   1.00
C292   C     0.47016   0.07586   0.44028   0.00000  Uiso   1.00
C293   C     0.02984   0.25747   0.55972   0.00000  Uiso   1.00
C294   C     0.01675   0.07453   0.44192   0.00000  Uiso   1.00
C295   C     0.48325   0.25881   0.55807   0.00000  Uiso   1.00
C296   C     0.24800   0.01065   0.47570   0.00000  Uiso   1.00
C297   C     0.25200   0.32269   0.52430   0.00000  Uiso   1.00
C298   C     0.16456   0.16648   0.50096   0.00000  Uiso   1.00
C299   C     0.33544   0.16686   0.49904   0.00000  Uiso   1.00
C300   C     0.40946   0.21257   0.52779   0.00000  Uiso   1.00
Cu301  Cu    0.25501   0.17246   0.56146   0.00000  Uiso   1.00
Cu302  Cu    0.24500   0.16087   0.43854   0.00000  Uiso   1.00
H303   H     0.39263   0.24663   0.55078   0.00000  Uiso   1.00
H304   H     0.28493   0.20737   0.35037   0.00000  Uiso   1.00
H305   H     0.10737   0.08671   0.44923   0.00000  Uiso   1.00
H306   H     0.38250   0.08778   0.44350   0.00000  Uiso   1.00
H307   H     0.11751   0.24555   0.55650   0.00000  Uiso   1.00
H308   H     0.44968   0.04080   0.41737   0.00000  Uiso   1.00
H309   H     0.05032   0.29254   0.58262   0.00000  Uiso   1.00
H310   H     0.24421   0.32019   0.42885   0.00000  Uiso   1.00
H311   H     0.25579   0.01314   0.57115   0.00000  Uiso   1.00
H312   H     0.21507   0.12596   0.64963   0.00000  Uiso   1.00
N313   N     0.23745   0.15214   0.34617   0.00000  Uiso   1.00
N314   N     0.26256   0.18119   0.65383   0.00000  Uiso   1.00
O315   O     0.25326   0.09538   0.53992   0.00000  Uiso   1.00
O316   O     0.24675   0.23796   0.46008   0.00000  Uiso   1.00
O317   O     0.24480   0.08559   0.43612   0.00000  Uiso   1.00
O318   O     0.25520   0.24774   0.56388   0.00000  Uiso   1.00
O319   O     0.18936   0.17155   0.55191   0.00000  Uiso   1.00
O320   O     0.31065   0.16179   0.44809   0.00000  Uiso   1.00
O321   O     0.18090   0.16176   0.44810   0.00000  Uiso   1.00
O322   O     0.31910   0.17157   0.55190   0.00000  Uiso   1.00
Br323  Br    0.54130   0.00902   0.40443   0.00000  Uiso   1.00
Br324  Br    0.95870   0.32431   0.59557   0.00000  Uiso   1.00
C325   C     0.74865   0.06661   0.48446   0.00000  Uiso   1.00
C326   C     0.59054   0.12076   0.47221   0.00000  Uiso   1.00
C327   C     0.88353   0.16748   0.49708   0.00000  Uiso   1.00
C328   C     0.61647   0.16585   0.50292   0.00000  Uiso   1.00
C329   C     0.90337   0.12249   0.46670   0.00000  Uiso   1.00
C330   C     0.59663   0.21084   0.53330   0.00000  Uiso   1.00
C331   C     0.94993   0.12167   0.46830   0.00000  Uiso   1.00
C332   C     0.55007   0.21166   0.53170   0.00000  Uiso   1.00
C333   C     0.97655   0.16712   0.49922   0.00000  Uiso   1.00
C334   C     0.52345   0.16622   0.50078   0.00000  Uiso   1.00
C335   C     0.95624   0.21336   0.52856   0.00000  Uiso   1.00
C336   C     0.75135   0.26673   0.51554   0.00000  Uiso   1.00
C337   C     0.54376   0.11997   0.47144   0.00000  Uiso   1.00
C338   C     0.97016   0.07586   0.44028   0.00000  Uiso   1.00
C339   C     0.52984   0.25747   0.55972   0.00000  Uiso   1.00
C340   C     0.51675   0.07453   0.44192   0.00000  Uiso   1.00
C341   C     0.98325   0.25881   0.55807   0.00000  Uiso   1.00
C342   C     0.74800   0.01065   0.47570   0.00000  Uiso   1.00
C343   C     0.75200   0.32269   0.52430   0.00000  Uiso   1.00
C344   C     0.66456   0.16648   0.50096   0.00000  Uiso   1.00
C345   C     0.83544   0.16686   0.49904   0.00000  Uiso   1.00
C346   C     0.90946   0.21257   0.52779   0.00000  Uiso   1.00
Cu347  Cu    0.75501   0.17246   0.56146   0.00000  Uiso   1.00
Cu348  Cu    0.74500   0.16087   0.43854   0.00000  Uiso   1.00
H349   H     0.89263   0.24663   0.55078   0.00000  Uiso   1.00
H350   H     0.78493   0.20737   0.35037   0.00000  Uiso   1.00
H351   H     0.60737   0.08671   0.44923   0.00000  Uiso   1.00
H352   H     0.88250   0.08778   0.44350   0.00000  Uiso   1.00
H353   H     0.61751   0.24555   0.55650   0.00000  Uiso   1.00
H354   H     0.94968   0.04080   0.41737   0.00000  Uiso   1.00
H355   H     0.55032   0.29254   0.58262   0.00000  Uiso   1.00
H356   H     0.74421   0.32019   0.42885   0.00000  Uiso   1.00
H357   H     0.75579   0.01314   0.57115   0.00000  Uiso   1.00
H358   H     0.71507   0.12596   0.64963   0.00000  Uiso   1.00
N359   N     0.73745   0.15214   0.34617   0.00000  Uiso   1.00
N360   N     0.76256   0.18119   0.65383   0.00000  Uiso   1.00
O361   O     0.75326   0.09538   0.53992   0.00000  Uiso   1.00
O362   O     0.74675   0.23796   0.46008   0.00000  Uiso   1.00
O363   O     0.74480   0.08559   0.43612   0.00000  Uiso   1.00
O364   O     0.75520   0.24774   0.56388   0.00000  Uiso   1.00
O365   O     0.68936   0.17155   0.55191   0.00000  Uiso   1.00
O366   O     0.81065   0.16179   0.44809   0.00000  Uiso   1.00
O367   O     0.68090   0.16176   0.44810   0.00000  Uiso   1.00
O368   O     0.81910   0.17157   0.55190   0.00000  Uiso   1.00
Br369  Br    0.04130   0.34236   0.40443   0.00000  Uiso   1.00
Br370  Br    0.45870   0.65764   0.59557   0.00000  Uiso   1.00
C371   C     0.24865   0.39994   0.48446   0.00000  Uiso   1.00
C372   C     0.09054   0.45409   0.47221   0.00000  Uiso   1.00
C373   C     0.38353   0.50082   0.49708   0.00000  Uiso   1.00
C374   C     0.11647   0.49918   0.50292   0.00000  Uiso   1.00
C375   C     0.40337   0.45583   0.46670   0.00000  Uiso   1.00
C376   C     0.09663   0.54417   0.53330   0.00000  Uiso   1.00
C377   C     0.44993   0.45501   0.46830   0.00000  Uiso   1.00
C378   C     0.05007   0.54499   0.53170   0.00000  Uiso   1.00
C379   C     0.47655   0.50045   0.49922   0.00000  Uiso   1.00
C380   C     0.02345   0.49955   0.50078   0.00000  Uiso   1.00
C381   C     0.45624   0.54670   0.52856   0.00000  Uiso   1.00
C382   C     0.25135   0.60006   0.51554   0.00000  Uiso   1.00
C383   C     0.04376   0.45330   0.47144   0.00000  Uiso   1.00
C384   C     0.47016   0.40919   0.44028   0.00000  Uiso   1.00
C385   C     0.02984   0.59081   0.55972   0.00000  Uiso   1.00
C386   C     0.01675   0.40786   0.44192   0.00000  Uiso   1.00
C387   C     0.48325   0.59214   0.55807   0.00000  Uiso   1.00
C388   C     0.24800   0.34398   0.47570   0.00000  Uiso   1.00
C389   C     0.25200   0.65602   0.52430   0.00000  Uiso   1.00
C390   C     0.16456   0.49981   0.50096   0.00000  Uiso   1.00
C391   C     0.33544   0.50019   0.49904   0.00000  Uiso   1.00
C392   C     0.40946   0.54591   0.52779   0.00000  Uiso   1.00
Cu393  Cu    0.25501   0.50579   0.56146   0.00000  Uiso   1.00
Cu394  Cu    0.24500   0.49421   0.43854   0.00000  Uiso   1.00
H395   H     0.39263   0.57996   0.55078   0.00000  Uiso   1.00
H396   H     0.28493   0.54070   0.35037   0.00000  Uiso   1.00
H397   H     0.10737   0.42004   0.44923   0.00000  Uiso   1.00
H398   H     0.38250   0.42112   0.44350   0.00000  Uiso   1.00
H399   H     0.11751   0.57888   0.55650   0.00000  Uiso   1.00
H400   H     0.44968   0.37413   0.41737   0.00000  Uiso   1.00
H401   H     0.05032   0.62587   0.58262   0.00000  Uiso   1.00
H402   H     0.24421   0.65352   0.42885   0.00000  Uiso   1.00
H403   H     0.25579   0.34648   0.57115   0.00000  Uiso   1.00
H404   H     0.21507   0.45930   0.64963   0.00000  Uiso   1.00
N405   N     0.23745   0.48547   0.34617   0.00000  Uiso   1.00
N406   N     0.26256   0.51453   0.65383   0.00000  Uiso   1.00
O407   O     0.25326   0.42871   0.53992   0.00000  Uiso   1.00
O408   O     0.24675   0.57129   0.46008   0.00000  Uiso   1.00
O409   O     0.24480   0.41892   0.43612   0.00000  Uiso   1.00
O410   O     0.25520   0.58108   0.56388   0.00000  Uiso   1.00
O411   O     0.18936   0.50488   0.55191   0.00000  Uiso   1.00
O412   O     0.31065   0.49512   0.44809   0.00000  Uiso   1.00
O413   O     0.18090   0.49510   0.44810   0.00000  Uiso   1.00
O414   O     0.31910   0.50490   0.55190   0.00000  Uiso   1.00
Br415  Br    0.54130   0.34236   0.40443   0.00000  Uiso   1.00
Br416  Br    0.95870   0.65764   0.59557   0.00000  Uiso   1.00
C417   C     0.74865   0.39994   0.48446   0.00000  Uiso   1.00
C418   C     0.59054   0.45409   0.47221   0.00000  Uiso   1.00
C419   C     0.88353   0.50082   0.49708   0.00000  Uiso   1.00
C420   C     0.61647   0.49918   0.50292   0.00000  Uiso   1.00
C421   C     0.90337   0.45583   0.46670   0.00000  Uiso   1.00
C422   C     0.59663   0.54417   0.53330   0.00000  Uiso   1.00
C423   C     0.94993   0.45501   0.46830   0.00000  Uiso   1.00
C424   C     0.55007   0.54499   0.53170   0.00000  Uiso   1.00
C425   C     0.97655   0.50045   0.49922   0.00000  Uiso   1.00
C426   C     0.52345   0.49955   0.50078   0.00000  Uiso   1.00
C427   C     0.95624   0.54670   0.52856   0.00000  Uiso   1.00
C428   C     0.75135   0.60006   0.51554   0.00000  Uiso   1.00
C429   C     0.54376   0.45330   0.47144   0.00000  Uiso   1.00
C430   C     0.97016   0.40919   0.44028   0.00000  Uiso   1.00
C431   C     0.52984   0.59081   0.55972   0.00000  Uiso   1.00
C432   C     0.51675   0.40786   0.44192   0.00000  Uiso   1.00
C433   C     0.98325   0.59214   0.55807   0.00000  Uiso   1.00
C434   C     0.74800   0.34398   0.47570   0.00000  Uiso   1.00
C435   C     0.75200   0.65602   0.52430   0.00000  Uiso   1.00
C436   C     0.66456   0.49981   0.50096   0.00000  Uiso   1.00
C437   C     0.83544   0.50019   0.49904   0.00000  Uiso   1.00
C438   C     0.90946   0.54591   0.52779   0.00000  Uiso   1.00
Cu439  Cu    0.75501   0.50579   0.56146   0.00000  Uiso   1.00
Cu440  Cu    0.74500   0.49421   0.43854   0.00000  Uiso   1.00
H441   H     0.89263   0.57996   0.55078   0.00000  Uiso   1.00
H442   H     0.78493   0.54070   0.35037   0.00000  Uiso   1.00
H443   H     0.60737   0.42004   0.44923   0.00000  Uiso   1.00
H444   H     0.88250   0.42112   0.44350   0.00000  Uiso   1.00
H445   H     0.61751   0.57888   0.55650   0.00000  Uiso   1.00
H446   H     0.94968   0.37413   0.41737   0.00000  Uiso   1.00
H447   H     0.55032   0.62587   0.58262   0.00000  Uiso   1.00
H448   H     0.74421   0.65352   0.42885   0.00000  Uiso   1.00
H449   H     0.75579   0.34648   0.57115   0.00000  Uiso   1.00
H450   H     0.71507   0.45930   0.64963   0.00000  Uiso   1.00
N451   N     0.73745   0.48547   0.34617   0.00000  Uiso   1.00
N452   N     0.76256   0.51453   0.65383   0.00000  Uiso   1.00
O453   O     0.75326   0.42871   0.53992   0.00000  Uiso   1.00
O454   O     0.74675   0.57129   0.46008   0.00000  Uiso   1.00
O455   O     0.74480   0.41892   0.43612   0.00000  Uiso   1.00
O456   O     0.75520   0.58108   0.56388   0.00000  Uiso   1.00
O457   O     0.68936   0.50488   0.55191   0.00000  Uiso   1.00
O458   O     0.81065   0.49512   0.44809   0.00000  Uiso   1.00
O459   O     0.68090   0.49510   0.44810   0.00000  Uiso   1.00
O460   O     0.81910   0.50490   0.55190   0.00000  Uiso   1.00
Br461  Br    0.04130   0.67569   0.40443   0.00000  Uiso   1.00
Br462  Br    0.45870   0.99098   0.59557   0.00000  Uiso   1.00
C463   C     0.24865   0.73327   0.48446   0.00000  Uiso   1.00
C464   C     0.09054   0.78743   0.47221   0.00000  Uiso   1.00
C465   C     0.38353   0.83415   0.49708   0.00000  Uiso   1.00
C466   C     0.11647   0.83252   0.50292   0.00000  Uiso   1.00
C467   C     0.40337   0.78916   0.46670   0.00000  Uiso   1.00
C468   C     0.09663   0.87751   0.53330   0.00000  Uiso   1.00
C469   C     0.44993   0.78834   0.46830   0.00000  Uiso   1.00
C470   C     0.05007   0.87833   0.53170   0.00000  Uiso   1.00
C471   C     0.47655   0.83378   0.49922   0.00000  Uiso   1.00
C472   C     0.02345   0.83288   0.50078   0.00000  Uiso   1.00
C473   C     0.45624   0.88003   0.52856   0.00000  Uiso   1.00
C474   C     0.25135   0.93339   0.51554   0.00000  Uiso   1.00
C475   C     0.04376   0.78664   0.47144   0.00000  Uiso   1.00
C476   C     0.47016   0.74253   0.44028   0.00000  Uiso   1.00
C477   C     0.02984   0.92414   0.55972   0.00000  Uiso   1.00
C478   C     0.01675   0.74119   0.44192   0.00000  Uiso   1.00
C479   C     0.48325   0.92547   0.55807   0.00000  Uiso   1.00
C480   C     0.24800   0.67731   0.47570   0.00000  Uiso   1.00
C481   C     0.25200   0.98935   0.52430   0.00000  Uiso   1.00
C482   C     0.16456   0.83314   0.50096   0.00000  Uiso   1.00
C483   C     0.33544   0.83353   0.49904   0.00000  Uiso   1.00
C484   C     0.40946   0.87924   0.52779   0.00000  Uiso   1.00
Cu485  Cu    0.25501   0.83913   0.56146   0.00000  Uiso   1.00
Cu486  Cu    0.24500   0.82754   0.43854   0.00000  Uiso   1.00
H487   H     0.39263   0.91329   0.55078   0.00000  Uiso   1.00
H488   H     0.28493   0.87404   0.35037   0.00000  Uiso   1.00
H489   H     0.10737   0.75337   0.44923   0.00000  Uiso   1.00
H490   H     0.38250   0.75445   0.44350   0.00000  Uiso   1.00
H491   H     0.11751   0.91222   0.55650   0.00000  Uiso   1.00
H492   H     0.44968   0.70746   0.41737   0.00000  Uiso   1.00
H493   H     0.05032   0.95920   0.58262   0.00000  Uiso   1.00
H494   H     0.24421   0.98686   0.42885   0.00000  Uiso   1.00
H495   H     0.25579   0.67981   0.57115   0.00000  Uiso   1.00
H496   H     0.21507   0.79263   0.64963   0.00000  Uiso   1.00
N497   N     0.23745   0.81881   0.34617   0.00000  Uiso   1.00
N498   N     0.26256   0.84786   0.65383   0.00000  Uiso   1.00
O499   O     0.25326   0.76204   0.53992   0.00000  Uiso   1.00
O500   O     0.24675   0.90462   0.46008   0.00000  Uiso   1.00
O501   O     0.24480   0.75226   0.43612   0.00000  Uiso   1.00
O502   O     0.25520   0.91441   0.56388   0.00000  Uiso   1.00
O503   O     0.18936   0.83821   0.55191   0.00000  Uiso   1.00
O504   O     0.31065   0.82845   0.44809   0.00000  Uiso   1.00
O505   O     0.18090   0.82843   0.44810   0.00000  Uiso   1.00
O506   O     0.31910   0.83824   0.55190   0.00000  Uiso   1.00
Br507  Br    0.54130   0.67569   0.40443   0.00000  Uiso   1.00
Br508  Br    0.95870   0.99098   0.59557   0.00000  Uiso   1.00
C509   C     0.74865   0.73327   0.48446   0.00000  Uiso   1.00
C510   C     0.59054   0.78743   0.47221   0.00000  Uiso   1.00
C511   C     0.88353   0.83415   0.49708   0.00000  Uiso   1.00
C512   C     0.61647   0.83252   0.50292   0.00000  Uiso   1.00
C513   C     0.90337   0.78916   0.46670   0.00000  Uiso   1.00
C514   C     0.59663   0.87751   0.53330   0.00000  Uiso   1.00
C515   C     0.94993   0.78834   0.46830   0.00000  Uiso   1.00
C516   C     0.55007   0.87833   0.53170   0.00000  Uiso   1.00
C517   C     0.97655   0.83378   0.49922   0.00000  Uiso   1.00
C518   C     0.52345   0.83288   0.50078   0.00000  Uiso   1.00
C519   C     0.95624   0.88003   0.52856   0.00000  Uiso   1.00
C520   C     0.75135   0.93339   0.51554   0.00000  Uiso   1.00
C521   C     0.54376   0.78664   0.47144   0.00000  Uiso   1.00
C522   C     0.97016   0.74253   0.44028   0.00000  Uiso   1.00
C523   C     0.52984   0.92414   0.55972   0.00000  Uiso   1.00
C524   C     0.51675   0.74119   0.44192   0.00000  Uiso   1.00
C525   C     0.98325   0.92547   0.55807   0.00000  Uiso   1.00
C526   C     0.74800   0.67731   0.47570   0.00000  Uiso   1.00
C527   C     0.75200   0.98935   0.52430   0.00000  Uiso   1.00
C528   C     0.66456   0.83314   0.50096   0.00000  Uiso   1.00
C529   C     0.83544   0.83353   0.49904   0.00000  Uiso   1.00
C530   C     0.90946   0.87924   0.52779   0.00000  Uiso   1.00
Cu531  Cu    0.75501   0.83913   0.56146   0.00000  Uiso   1.00
Cu532  Cu    0.74500   0.82754   0.43854   0.00000  Uiso   1.00
H533   H     0.89263   0.91329   0.55078   0.00000  Uiso   1.00
H534   H     0.78493   0.87404   0.35037   0.00000  Uiso   1.00
H535   H     0.60737   0.75337   0.44923   0.00000  Uiso   1.00
H536   H     0.88250   0.75445   0.44350   0.00000  Uiso   1.00
H537   H     0.61751   0.91222   0.55650   0.00000  Uiso   1.00
H538   H     0.94968   0.70746   0.41737   0.00000  Uiso   1.00
H539   H     0.55032   0.95920   0.58262   0.00000  Uiso   1.00
H540   H     0.74421   0.98686   0.42885   0.00000  Uiso   1.00
H541   H     0.75579   0.67981   0.57115   0.00000  Uiso   1.00
H542   H     0.71507   0.79263   0.64963   0.00000  Uiso   1.00
N543   N     0.73745   0.81881   0.34617   0.00000  Uiso   1.00
N544   N     0.76256   0.84786   0.65383   0.00000  Uiso   1.00
O545   O     0.75326   0.76204   0.53992   0.00000  Uiso   1.00
O546   O     0.74675   0.90462   0.46008   0.00000  Uiso   1.00
O547   O     0.74480   0.75226   0.43612   0.00000  Uiso   1.00
O548   O     0.75520   0.91441   0.56388   0.00000  Uiso   1.00
O549   O     0.68936   0.83821   0.55191   0.00000  Uiso   1.00
O550   O     0.81065   0.82845   0.44809   0.00000  Uiso   1.00
O551   O     0.68090   0.82843   0.44810   0.00000  Uiso   1.00
O552   O     0.81910   0.83824   0.55190   0.00000  Uiso   1.00
Br553  Br    0.04130   0.00902   0.73776   0.00000  Uiso   1.00
Br554  Br    0.45870   0.32431   0.92890   0.00000  Uiso   1.00
C555   C     0.24865   0.06661   0.81779   0.00000  Uiso   1.00
C556   C     0.09054   0.12076   0.80555   0.00000  Uiso   1.00
C557   C     0.38353   0.16748   0.83041   0.00000  Uiso   1.00
C558   C     0.11647   0.16585   0.83626   0.00000  Uiso   1.00
C559   C     0.40337   0.12249   0.80003   0.00000  Uiso   1.00
C560   C     0.09663   0.21084   0.86663   0.00000  Uiso   1.00
C561   C     0.44993   0.12167   0.80163   0.00000  Uiso   1.00
C562   C     0.05007   0.21166   0.86503   0.00000  Uiso   1.00
C563   C     0.47655   0.16712   0.83255   0.00000  Uiso   1.00
C564   C     0.02345   0.16622   0.83412   0.00000  Uiso   1.00
C565   C     0.45624   0.21336   0.86189   0.00000  Uiso   1.00
C566   C     0.25135   0.26673   0.84887   0.00000  Uiso   1.00
C567   C     0.04376   0.11997   0.80477   0.00000  Uiso   1.00
C568   C     0.47016   0.07586   0.77361   0.00000  Uiso   1.00
C569   C     0.02984   0.25747   0.89305   0.00000  Uiso   1.00
C570   C     0.01675   0.07453   0.77526   0.00000  Uiso   1.00
C571   C     0.48325   0.25881   0.89141   0.00000  Uiso   1.00
C572   C     0.24800   0.01065   0.80904   0.00000  Uiso   1.00
C573   C     0.25200   0.32269   0.85763   0.00000  Uiso   1.00
C574   C     0.16456   0.16648   0.83430   0.00000  Uiso   1.00
C575   C     0.33544   0.16686   0.83237   0.00000  Uiso   1.00
C576   C     0.40946   0.21257   0.86112   0.00000  Uiso   1.00
Cu577  Cu    0.25501   0.17246   0.89479   0.00000  Uiso   1.00
Cu578  Cu    0.24500   0.16087   0.77187   0.00000  Uiso   1.00
H579   H     0.39263   0.24663   0.88411   0.00000  Uiso   1.00
H580   H     0.28493   0.20737   0.68371   0.00000  Uiso   1.00
H581   H     0.10737   0.08671   0.78256   0.00000  Uiso   1.00
H582   H     0.38250   0.08778   0.77683   0.00000  Uiso   1.00
H583   H     0.11751   0.24555   0.88983   0.00000  Uiso   1.00
H584   H     0.44968   0.04080   0.75071   0.00000  Uiso   1.00
H585   H     0.05032   0.29254   0.91596   0.00000  Uiso   1.00
H586   H     0.24421   0.32019   0.76219   0.00000  Uiso   1.00
H587   H     0.25579   0.01314   0.90448   0.00000  Uiso   1.00
H588   H     0.21507   0.12596   0.98296   0.00000  Uiso   1.00
N589   N     0.23745   0.15214   0.67951   0.00000  Uiso   1.00
N590   N     0.26256   0.18119   0.98716   0.00000  Uiso   1.00
O591   O     0.25326   0.09538   0.87326   0.00000  Uiso   1.00
O592   O     0.24675   0.23796   0.79341   0.00000  Uiso   1.00
O593   O     0.24480   0.08559   0.76945   0.00000  Uiso   1.00
O594   O     0.25520   0.24774   0.89721   0.00000  Uiso   1.00
O595   O     0.18936   0.17155   0.88524   0.00000  Uiso   1.00
O596   O     0.31065   0.16179   0.78143   0.00000  Uiso   1.00
O597   O     0.18090   0.16176   0.78143   0.00000  Uiso   1.00
O598   O     0.31910   0.17157   0.88523   0.00000  Uiso   1.00
Br599  Br    0.54130   0.00902   0.73776   0.00000  Uiso   1.00
Br600  Br    0.95870   0.32431   0.92890   0.00000  Uiso   1.00
C601   C     0.74865   0.06661   0.81779   0.00000  Uiso   1.00
C602   C     0.59054   0.12076   0.80555   0.00000  Uiso   1.00
C603   C     0.88353   0.16748   0.83041   0.00000  Uiso   1.00
C604   C     0.61647   0.16585   0.83626   0.00000  Uiso   1.00
C605   C     0.90337   0.12249   0.80003   0.00000  Uiso   1.00
C606   C     0.59663   0.21084   0.86663   0.00000  Uiso   1.00
C607   C     0.94993   0.12167   0.80163   0.00000  Uiso   1.00
C608   C     0.55007   0.21166   0.86503   0.00000  Uiso   1.00
C609   C     0.97655   0.16712   0.83255   0.00000  Uiso   1.00
C610   C     0.52345   0.16622   0.83412   0.00000  Uiso   1.00
C611   C     0.95624   0.21336   0.86189   0.00000  Uiso   1.00
C612   C     0.75135   0.26673   0.84887   0.00000  Uiso   1.00
C613   C     0.54376   0.11997   0.80477   0.00000  Uiso   1.00
C614   C     0.97016   0.07586   0.77361   0.00000  Uiso   1.00
C615   C     0.52984   0.25747   0.89305   0.00000  Uiso   1.00
C616   C     0.51675   0.07453   0.77526   0.00000  Uiso   1.00
C617   C     0.98325   0.25881   0.89141   0.00000  Uiso   1.00
C618   C     0.74800   0.01065   0.80904   0.00000  Uiso   1.00
C619   C     0.75200   0.32269   0.85763   0.00000  Uiso   1.00
C620   C     0.66456   0.16648   0.83430   0.00000  Uiso   1.00
C621   C     0.83544   0.16686   0.83237   0.00000  Uiso   1.00
C622   C     0.90946   0.21257   0.86112   0.00000  Uiso   1.00
Cu623  Cu    0.75501   0.17246   0.89479   0.00000  Uiso   1.00
Cu624  Cu    0.74500   0.16087   0.77187   0.00000  Uiso   1.00
H625   H     0.89263   0.24663   0.88411   0.00000  Uiso   1.00
H626   H     0.78493   0.20737   0.68371   0.00000  Uiso   1.00
H627   H     0.60737   0.08671   0.78256   0.00000  Uiso   1.00
H628   H     0.88250   0.08778   0.77683   0.00000  Uiso   1.00
H629   H     0.61751   0.24555   0.88983   0.00000  Uiso   1.00
H630   H     0.94968   0.04080   0.75071   0.00000  Uiso   1.00
H631   H     0.55032   0.29254   0.91596   0.00000  Uiso   1.00
H632   H     0.74421   0.32019   0.76219   0.00000  Uiso   1.00
H633   H     0.75579   0.01314   0.90448   0.00000  Uiso   1.00
H634   H     0.71507   0.12596   0.98296   0.00000  Uiso   1.00
N635   N     0.73745   0.15214   0.67951   0.00000  Uiso   1.00
N636   N     0.76256   0.18119   0.98716   0.00000  Uiso   1.00
O637   O     0.75326   0.09538   0.87326   0.00000  Uiso   1.00
O638   O     0.74675   0.23796   0.79341   0.00000  Uiso   1.00
O639   O     0.74480   0.08559   0.76945   0.00000  Uiso   1.00
O640   O     0.75520   0.24774   0.89721   0.00000  Uiso   1.00
O641   O     0.68936   0.17155   0.88524   0.00000  Uiso   1.00
O642   O     0.81065   0.16179   0.78143   0.00000  Uiso   1.00
O643   O     0.68090   0.16176   0.78143   0.00000  Uiso   1.00
O644   O     0.81910   0.17157   0.88523   0.00000  Uiso   1.00
Br645  Br    0.04130   0.34236   0.73776   0.00000  Uiso   1.00
Br646  Br    0.45870   0.65764   0.92890   0.00000  Uiso   1.00
C647   C     0.24865   0.39994   0.81779   0.00000  Uiso   1.00
C648   C     0.09054   0.45409   0.80555   0.00000  Uiso   1.00
C649   C     0.38353   0.50082   0.83041   0.00000  Uiso   1.00
C650   C     0.11647   0.49918   0.83626   0.00000  Uiso   1.00
C651   C     0.40337   0.45583   0.80003   0.00000  Uiso   1.00
C652   C     0.09663   0.54417   0.86663   0.00000  Uiso   1.00
C653   C     0.44993   0.45501   0.80163   0.00000  Uiso   1.00
C654   C     0.05007   0.54499   0.86503   0.00000  Uiso   1.00
C655   C     0.47655   0.50045   0.83255   0.00000  Uiso   1.00
C656   C     0.02345   0.49955   0.83412   0.00000  Uiso   1.00
C657   C     0.45624   0.54670   0.86189   0.00000  Uiso   1.00
C658   C     0.25135   0.60006   0.84887   0.00000  Uiso   1.00
C659   C     0.04376   0.45330   0.80477   0.00000  Uiso   1.00
C660   C     0.47016   0.40919   0.77361   0.00000  Uiso   1.00
C661   C     0.02984   0.59081   0.89305   0.00000  Uiso   1.00
C662   C     0.01675   0.40786   0.77526   0.00000  Uiso   1.00
C663   C     0.48325   0.59214   0.89141   0.00000  Uiso   1.00
C664   C     0.24800   0.34398   0.80904   0.00000  Uiso   1.00
C665   C     0.25200   0.65602   0.85763   0.00000  Uiso   1.00
C666   C     0.16456   0.49981   0.83430   0.00000  Uiso   1.00
C667   C     0.33544   0.50019   0.83237   0.00000  Uiso   1.00
C668   C     0.40946   0.54591   0.86112   0.00000  Uiso   1.00
Cu669  Cu    0.25501   0.50579   0.89479   0.00000  Uiso   1.00
Cu670  Cu    0.24500   0.49421   0.77187   0.00000  Uiso   1.00
H671   H     0.39263   0.57996   0.88411   0.00000  Uiso   1.00
H672   H     0.28493   0.54070   0.68371   0.00000  Uiso   1.00
H673   H     0.10737   0.42004   0.78256   0.00000  Uiso   1.00
H674   H     0.38250   0.42112   0.77683   0.00000  Uiso   1.00
H675   H     0.11751   0.57888   0.88983   0.00000  Uiso   1.00
H676   H     0.44968   0.37413   0.75071   0.00000  Uiso   1.00
H677   H     0.05032   0.62587   0.91596   0.00000  Uiso   1.00
H678   H     0.24421   0.65352   0.76219   0.00000  Uiso   1.00
H679   H     0.25579   0.34648   0.90448   0.00000  Uiso   1.00
H680   H     0.21507   0.45930   0.98296   0.00000  Uiso   1.00
N681   N     0.23745   0.48547   0.67951   0.00000  Uiso   1.00
N682   N     0.26256   0.51453   0.98716   0.00000  Uiso   1.00
O683   O     0.25326   0.42871   0.87326   0.00000  Uiso   1.00
O684   O     0.24675   0.57129   0.79341   0.00000  Uiso   1.00
O685   O     0.24480   0.41892   0.76945   0.00000  Uiso   1.00
O686   O     0.25520   0.58108   0.89721   0.00000  Uiso   1.00
O687   O     0.18936   0.50488   0.88524   0.00000  Uiso   1.00
O688   O     0.31065   0.49512   0.78143   0.00000  Uiso   1.00
O689   O     0.18090   0.49510   0.78143   0.00000  Uiso   1.00
O690   O     0.31910   0.50490   0.88523   0.00000  Uiso   1.00
Br691  Br    0.54130   0.34236   0.73776   0.00000  Uiso   1.00
Br692  Br    0.95870   0.65764   0.92890   0.00000  Uiso   1.00
C693   C     0.74865   0.39994   0.81779   0.00000  Uiso   1.00
C694   C     0.59054   0.45409   0.80555   0.00000  Uiso   1.00
C695   C     0.88353   0.50082   0.83041   0.00000  Uiso   1.00
C696   C     0.61647   0.49918   0.83626   0.00000  Uiso   1.00
C697   C     0.90337   0.45583   0.80003   0.00000  Uiso   1.00
C698   C     0.59663   0.54417   0.86663   0.00000  Uiso   1.00
C699   C     0.94993   0.45501   0.80163   0.00000  Uiso   1.00
C700   C     0.55007   0.54499   0.86503   0.00000  Uiso   1.00
C701   C     0.97655   0.50045   0.83255   0.00000  Uiso   1.00
C702   C     0.52345   0.49955   0.83412   0.00000  Uiso   1.00
C703   C     0.95624   0.54670   0.86189   0.00000  Uiso   1.00
C704   C     0.75135   0.60006   0.84887   0.00000  Uiso   1.00
C705   C     0.54376   0.45330   0.80477   0.00000  Uiso   1.00
C706   C     0.97016   0.40919   0.77361   0.00000  Uiso   1.00
C707   C     0.52984   0.59081   0.89305   0.00000  Uiso   1.00
C708   C     0.51675   0.40786   0.77526   0.00000  Uiso   1.00
C709   C     0.98325   0.59214   0.89141   0.00000  Uiso   1.00
C710   C     0.74800   0.34398   0.80904   0.00000  Uiso   1.00
C711   C     0.75200   0.65602   0.85763   0.00000  Uiso   1.00
C712   C     0.66456   0.49981   0.83430   0.00000  Uiso   1.00
C713   C     0.83544   0.50019   0.83237   0.00000  Uiso   1.00
C714   C     0.90946   0.54591   0.86112   0.00000  Uiso   1.00
Cu715  Cu    0.75501   0.50579   0.89479   0.00000  Uiso   1.00
Cu716  Cu    0.74500   0.49421   0.77187   0.00000  Uiso   1.00
H717   H     0.89263   0.57996   0.88411   0.00000  Uiso   1.00
H718   H     0.78493   0.54070   0.68371   0.00000  Uiso   1.00
H719   H     0.60737   0.42004   0.78256   0.00000  Uiso   1.00
H720   H     0.88250   0.42112   0.77683   0.00000  Uiso   1.00
H721   H     0.61751   0.57888   0.88983   0.00000  Uiso   1.00
H722   H     0.94968   0.37413   0.75071   0.00000  Uiso   1.00
H723   H     0.55032   0.62587   0.91596   0.00000  Uiso   1.00
H724   H     0.74421   0.65352   0.76219   0.00000  Uiso   1.00
H725   H     0.75579   0.34648   0.90448   0.00000  Uiso   1.00
H726   H     0.71507   0.45930   0.98296   0.00000  Uiso   1.00
N727   N     0.73745   0.48547   0.67951   0.00000  Uiso   1.00
N728   N     0.76256   0.51453   0.98716   0.00000  Uiso   1.00
O729   O     0.75326   0.42871   0.87326   0.00000  Uiso   1.00
O730   O     0.74675   0.57129   0.79341   0.00000  Uiso   1.00
O731   O     0.74480   0.41892   0.76945   0.00000  Uiso   1.00
O732   O     0.75520   0.58108   0.89721   0.00000  Uiso   1.00
O733   O     0.68936   0.50488   0.88524   0.00000  Uiso   1.00
O734   O     0.81065   0.49512   0.78143   0.00000  Uiso   1.00
O735   O     0.68090   0.49510   0.78143   0.00000  Uiso   1.00
O736   O     0.81910   0.50490   0.88523   0.00000  Uiso   1.00
Br737  Br    0.04130   0.67569   0.73776   0.00000  Uiso   1.00
Br738  Br    0.45870   0.99098   0.92890   0.00000  Uiso   1.00
C739   C     0.24865   0.73327   0.81779   0.00000  Uiso   1.00
C740   C     0.09054   0.78743   0.80555   0.00000  Uiso   1.00
C741   C     0.38353   0.83415   0.83041   0.00000  Uiso   1.00
C742   C     0.11647   0.83252   0.83626   0.00000  Uiso   1.00
C743   C     0.40337   0.78916   0.80003   0.00000  Uiso   1.00
C744   C     0.09663   0.87751   0.86663   0.00000  Uiso   1.00
C745   C     0.44993   0.78834   0.80163   0.00000  Uiso   1.00
C746   C     0.05007   0.87833   0.86503   0.00000  Uiso   1.00
C747   C     0.47655   0.83378   0.83255   0.00000  Uiso   1.00
C748   C     0.02345   0.83288   0.83412   0.00000  Uiso   1.00
C749   C     0.45624   0.88003   0.86189   0.00000  Uiso   1.00
C750   C     0.25135   0.93339   0.84887   0.00000  Uiso   1.00
C751   C     0.04376   0.78664   0.80477   0.00000  Uiso   1.00
C752   C     0.47016   0.74253   0.77361   0.00000  Uiso   1.00
C753   C     0.02984   0.92414   0.89305   0.00000  Uiso   1.00
C754   C     0.01675   0.74119   0.77526   0.00000  Uiso   1.00
C755   C     0.48325   0.92547   0.89141   0.00000  Uiso   1.00
C756   C     0.24800   0.67731   0.80904   0.00000  Uiso   1.00
C757   C     0.25200   0.98935   0.85763   0.00000  Uiso   1.00
C758   C     0.16456   0.83314   0.83430   0.00000  Uiso   1.00
C759   C     0.33544   0.83353   0.83237   0.00000  Uiso   1.00
C760   C     0.40946   0.87924   0.86112   0.00000  Uiso   1.00
Cu761  Cu    0.25501   0.83913   0.89479   0.00000  Uiso   1.00
Cu762  Cu    0.24500   0.82754   0.77187   0.00000  Uiso   1.00
H763   H     0.39263   0.91329   0.88411   0.00000  Uiso   1.00
H764   H     0.28493   0.87404   0.68371   0.00000  Uiso   1.00
H765   H     0.10737   0.75337   0.78256   0.00000  Uiso   1.00
H766   H     0.38250   0.75445   0.77683   0.00000  Uiso   1.00
H767   H     0.11751   0.91222   0.88983   0.00000  Uiso   1.00
H768   H     0.44968   0.70746   0.75071   0.00000  Uiso   1.00
H769   H     0.05032   0.95920   0.91596   0.00000  Uiso   1.00
H770   H     0.24421   0.98686   0.76219   0.00000  Uiso   1.00
H771   H     0.25579   0.67981   0.90448   0.00000  Uiso   1.00
H772   H     0.21507   0.79263   0.98296   0.00000  Uiso   1.00
N773   N     0.23745   0.81881   0.67951   0.00000  Uiso   1.00
N774   N     0.26256   0.84786   0.98716   0.00000  Uiso   1.00
O775   O     0.25326   0.76204   0.87326   0.00000  Uiso   1.00
O776   O     0.24675   0.90462   0.79341   0.00000  Uiso   1.00
O777   O     0.24480   0.75226   0.76945   0.00000  Uiso   1.00
O778   O     0.25520   0.91441   0.89721   0.00000  Uiso   1.00
O779   O     0.18936   0.83821   0.88524   0.00000  Uiso   1.00
O780   O     0.31065   0.82845   0.78143   0.00000  Uiso   1.00
O781   O     0.18090   0.82843   0.78143   0.00000  Uiso   1.00
O782   O     0.31910   0.83824   0.88523   0.00000  Uiso   1.00
Br783  Br    0.54130   0.67569   0.73776   0.00000  Uiso   1.00
Br784  Br    0.95870   0.99098   0.92890   0.00000  Uiso   1.00
C785   C     0.74865   0.73327   0.81779   0.00000  Uiso   1.00
C786   C     0.59054   0.78743   0.80555   0.00000  Uiso   1.00
C787   C     0.88353   0.83415   0.83041   0.00000  Uiso   1.00
C788   C     0.61647   0.83252   0.83626   0.00000  Uiso   1.00
C789   C     0.90337   0.78916   0.80003   0.00000  Uiso   1.00
C790   C     0.59663   0.87751   0.86663   0.00000  Uiso   1.00
C791   C     0.94993   0.78834   0.80163   0.00000  Uiso   1.00
C792   C     0.55007   0.87833   0.86503   0.00000  Uiso   1.00
C793   C     0.97655   0.83378   0.83255   0.00000  Uiso   1.00
C794   C     0.52345   0.83288   0.83412   0.00000  Uiso   1.00
C795   C     0.95624   0.88003   0.86189   0.00000  Uiso   1.00
C796   C     0.75135   0.93339   0.84887   0.00000  Uiso   1.00
C797   C     0.54376   0.78664   0.80477   0.00000  Uiso   1.00
C798   C     0.97016   0.74253   0.77361   0.00000  Uiso   1.00
C799   C     0.52984   0.92414   0.89305   0.00000  Uiso   1.00
C800   C     0.51675   0.74119   0.77526   0.00000  Uiso   1.00
C801   C     0.98325   0.92547   0.89141   0.00000  Uiso   1.00
C802   C     0.74800   0.67731   0.80904   0.00000  Uiso   1.00
C803   C     0.75200   0.98935   0.85763   0.00000  Uiso   1.00
C804   C     0.66456   0.83314   0.83430   0.00000  Uiso   1.00
C805   C     0.83544   0.83353   0.83237   0.00000  Uiso   1.00
C806   C     0.90946   0.87924   0.86112   0.00000  Uiso   1.00
Cu807  Cu    0.75501   0.83913   0.89479   0.00000  Uiso   1.00
Cu808  Cu    0.74500   0.82754   0.77187   0.00000  Uiso   1.00
H809   H     0.89263   0.91329   0.88411   0.00000  Uiso   1.00
H810   H     0.78493   0.87404   0.68371   0.00000  Uiso   1.00
H811   H     0.60737   0.75337   0.78256   0.00000  Uiso   1.00
H812   H     0.88250   0.75445   0.77683   0.00000  Uiso   1.00
H813   H     0.61751   0.91222   0.88983   0.00000  Uiso   1.00
H814   H     0.94968   0.70746   0.75071   0.00000  Uiso   1.00
H815   H     0.55032   0.95920   0.91596   0.00000  Uiso   1.00
H816   H     0.74421   0.98686   0.76219   0.00000  Uiso   1.00
H817   H     0.75579   0.67981   0.90448   0.00000  Uiso   1.00
H818   H     0.71507   0.79263   0.98296   0.00000  Uiso   1.00
N819   N     0.73745   0.81881   0.67951   0.00000  Uiso   1.00
N820   N     0.76256   0.84786   0.98716   0.00000  Uiso   1.00
O821   O     0.75326   0.76204   0.87326   0.00000  Uiso   1.00
O822   O     0.74675   0.90462   0.79341   0.00000  Uiso   1.00
O823   O     0.74480   0.75226   0.76945   0.00000  Uiso   1.00
O824   O     0.75520   0.91441   0.89721   0.00000  Uiso   1.00
O825   O     0.68936   0.83821   0.88524   0.00000  Uiso   1.00
O826   O     0.81065   0.82845   0.78143   0.00000  Uiso   1.00
O827   O     0.68090   0.82843   0.78143   0.00000  Uiso   1.00
O828   O     0.81910   0.83824   0.88523   0.00000  Uiso   1.00
loop_
_geom_bond_atom_site_label_1
_geom_bond_atom_site_label_2
_geom_bond_distance
_geom_bond_site_symmetry_2
_ccdc_geom_bond_type
Br1    C18     1.923   .     S
Br2    C19     1.923   .     S
C3     C20     1.425   .     S
C3     O39     1.293   .     A
C3     O41     1.285   .     A
C4     H29     1.083   .     S
C4     C15     1.398   .     A
C4     C6      1.395   .     A
C5     C23     1.442   .     S
C5     C24     1.395   .     A
C5     C7      1.394   .     A
C6     C22     1.442   .     S
C6     C8      1.394   .     A
C7     C9      1.393   .     A
C7     H30     1.085   .     S
C8     H31     1.085   .     S
C8     C10     1.393   .     A
C9     C11     1.413   .     A
C9     C16     1.399   .     A
C10    C12     1.413   .     A
C10    C17     1.399   .     A
C11    C13     1.418   .     A
C11    C58     1.403   .     S
C12    C15     1.418   .     A
C12    C57     1.403   1_455 S
C13    C19     1.411   .     A
C13    C24     1.398   .     A
C14    O42     1.285   .     A
C14    C21     1.425   .     S
C14    O40     1.293   .     A
C15    C18     1.411   .     A
C16    H32     1.084   .     S
C16    C64     1.394   .     S
C17    H33     1.084   .     S
C17    C65     1.394   1_455 S
C18    C62     1.394   1_455 S
C19    C63     1.394   .     S
C20    C205    1.325   1_545 S
C20    H218    1.088   1_545 S
C21    C112    1.325   .     S
C21    H127    1.088   .     S
C22    O45     1.292   .     A
C22    O43     1.295   .     A
C23    O46     1.292   .     A
C23    O44     1.295   .     A
C24    H27     1.083   .     S
Cu25   O42     1.948   .     S
Cu25   N38     2.023   .     S
Cu25   O43     1.960   .     S
Cu25   Cu26    2.692   .     S
Cu25   O39     1.954   .     S
Cu25   O46     1.945   .     S
Cu26   N37     2.023   .     S
Cu26   O44     1.960   .     S
Cu26   O40     1.954   .     S
Cu26   O41     1.948   .     S
Cu26   O45     1.945   .     S
H28    N590    1.029   1_554 S
H34    C112    1.088   .     S
H35    C205    1.088   1_545 S
H36    N313    1.029   .     S
N37    H588    1.029   1_554 S
N37    N590    1.293   1_554 S
N38    N313    1.293   .     S
N38    H304    1.029   .     S
Br47   C64     1.923   .     S
Br48   C65     1.923   .     S
C49    C66     1.425   .     S
C49    O85     1.293   .     A
C49    O87     1.285   .     A
C50    H75     1.083   .     S
C50    C61     1.398   .     A
C50    C52     1.395   .     A
C51    C69     1.442   .     S
C51    C70     1.395   .     A
C51    C53     1.394   .     A
C52    C68     1.442   .     S
C52    C54     1.394   .     A
C53    C55     1.393   .     A
C53    H76     1.085   .     S
C54    H77     1.085   .     S
C54    C56     1.393   .     A
C55    C57     1.413   .     A
C55    C62     1.399   .     A
C56    C58     1.413   .     A
C56    C63     1.399   .     A
C57    C59     1.418   .     A
C57    C12     1.403   1_655 S
C58    C61     1.418   .     A
C59    C65     1.411   .     A
C59    C70     1.398   .     A
C60    O88     1.285   .     A
C60    C67     1.425   .     S
C60    O86     1.293   .     A
C61    C64     1.411   .     A
C62    H78     1.084   .     S
C62    C18     1.394   1_655 S
C63    H79     1.084   .     S
C65    C17     1.394   1_655 S
C66    C251    1.325   1_545 S
C66    H264    1.088   1_545 S
C67    C158    1.325   .     S
C67    H173    1.088   .     S
C68    O91     1.292   .     A
C68    O89     1.295   .     A
C69    O92     1.292   .     A
C69    O90     1.295   .     A
C70    H73     1.083   .     S
Cu71   O88     1.948   .     S
Cu71   N84     2.023   .     S
Cu71   O89     1.960   .     S
Cu71   Cu72    2.692   .     S
Cu71   O85     1.954   .     S
Cu71   O92     1.945   .     S
Cu72   N83     2.023   .     S
Cu72   O90     1.960   .     S
Cu72   O86     1.954   .     S
Cu72   O87     1.948   .     S
Cu72   O91     1.945   .     S
H74    N636    1.029   1_554 S
H80    C158    1.088   .     S
H81    C251    1.088   1_545 S
H82    N359    1.029   .     S
N83    H634    1.029   1_554 S
N83    N636    1.293   1_554 S
N84    N359    1.293   .     S
N84    H350    1.029   .     S
Br93   C110    1.923   .     S
Br94   C111    1.923   .     S
C95    C112    1.425   .     S
C95    O131    1.293   .     A
C95    O133    1.285   .     A
C96    H121    1.083   .     S
C96    C107    1.398   .     A
C96    C98     1.395   .     A
C97    C115    1.442   .     S
C97    C116    1.395   .     A
C97    C99     1.394   .     A
C98    C114    1.442   .     S
C98    C100    1.394   .     A
C99    C101    1.393   .     A
C99    H122    1.085   .     S
C100   H123    1.085   .     S
C100   C102    1.393   .     A
C101   C103    1.413   .     A
C101   C108    1.399   .     A
C102   C104    1.413   .     A
C102   C109    1.399   .     A
C103   C105    1.418   .     A
C103   C150    1.403   .     S
C104   C107    1.418   .     A
C104   C149    1.403   1_455 S
C105   C111    1.411   .     A
C105   C116    1.398   .     A
C106   O134    1.285   .     A
C106   C113    1.425   .     S
C106   O132    1.293   .     A
C107   C110    1.411   .     A
C108   H124    1.084   .     S
C108   C156    1.394   .     S
C109   H125    1.084   .     S
C109   C157    1.394   1_455 S
C110   C154    1.394   1_455 S
C111   C155    1.394   .     S
C113   C204    1.325   .     S
C113   H219    1.088   .     S
C114   O137    1.292   .     A
C114   O135    1.295   .     A
C115   O138    1.292   .     A
C115   O136    1.295   .     A
C116   H119    1.083   .     S
Cu117  O134    1.948   .     S
Cu117  N130    2.023   .     S
Cu117  O135    1.960   .     S
Cu117  Cu118   2.692   .     S
Cu117  O131    1.954   .     S
Cu117  O138    1.945   .     S
Cu118  N129    2.023   .     S
Cu118  O136    1.960   .     S
Cu118  O132    1.954   .     S
Cu118  O133    1.948   .     S
Cu118  O137    1.945   .     S
H120   N682    1.029   1_554 S
H126   C204    1.088   .     S
H128   N405    1.029   .     S
N129   H680    1.029   1_554 S
N129   N682    1.293   1_554 S
N130   N405    1.293   .     S
N130   H396    1.029   .     S
Br139  C156    1.923   .     S
Br140  C157    1.923   .     S
C141   C158    1.425   .     S
C141   O177    1.293   .     A
C141   O179    1.285   .     A
C142   H167    1.083   .     S
C142   C153    1.398   .     A
C142   C144    1.395   .     A
C143   C161    1.442   .     S
C143   C162    1.395   .     A
C143   C145    1.394   .     A
C144   C160    1.442   .     S
C144   C146    1.394   .     A
C145   C147    1.393   .     A
C145   H168    1.085   .     S
C146   H169    1.085   .     S
C146   C148    1.393   .     A
C147   C149    1.413   .     A
C147   C154    1.399   .     A
C148   C150    1.413   .     A
C148   C155    1.399   .     A
C149   C151    1.418   .     A
C149   C104    1.403   1_655 S
C150   C153    1.418   .     A
C151   C157    1.411   .     A
C151   C162    1.398   .     A
C152   O180    1.285   .     A
C152   C159    1.425   .     S
C152   O178    1.293   .     A
C153   C156    1.411   .     A
C154   H170    1.084   .     S
C154   C110    1.394   1_655 S
C155   H171    1.084   .     S
C157   C109    1.394   1_655 S
C159   C250    1.325   .     S
C159   H265    1.088   .     S
C160   O183    1.292   .     A
C160   O181    1.295   .     A
C161   O184    1.292   .     A
C161   O182    1.295   .     A
C162   H165    1.083   .     S
Cu163  O180    1.948   .     S
Cu163  N176    2.023   .     S
Cu163  O181    1.960   .     S
Cu163  Cu164   2.692   .     S
Cu163  O177    1.954   .     S
Cu163  O184    1.945   .     S
Cu164  N175    2.023   .     S
Cu164  O182    1.960   .     S
Cu164  O178    1.954   .     S
Cu164  O179    1.948   .     S
Cu164  O183    1.945   .     S
H166   N728    1.029   1_554 S
H172   C250    1.088   .     S
H174   N451    1.029   .     S
N175   H726    1.029   1_554 S
N175   N728    1.293   1_554 S
N176   N451    1.293   .     S
N176   H442    1.029   .     S
Br185  C202    1.923   .     S
Br186  C203    1.923   .     S
C187   C204    1.425   .     S
C187   O223    1.293   .     A
C187   O225    1.285   .     A
C188   H213    1.083   .     S
C188   C199    1.398   .     A
C188   C190    1.395   .     A
C189   C207    1.442   .     S
C189   C208    1.395   .     A
C189   C191    1.394   .     A
C190   C206    1.442   .     S
C190   C192    1.394   .     A
C191   C193    1.393   .     A
C191   H214    1.085   .     S
C192   H215    1.085   .     S
C192   C194    1.393   .     A
C193   C195    1.413   .     A
C193   C200    1.399   .     A
C194   C196    1.413   .     A
C194   C201    1.399   .     A
C195   C197    1.418   .     A
C195   C242    1.403   .     S
C196   C199    1.418   .     A
C196   C241    1.403   1_455 S
C197   C203    1.411   .     A
C197   C208    1.398   .     A
C198   O226    1.285   .     A
C198   C205    1.425   .     S
C198   O224    1.293   .     A
C199   C202    1.411   .     A
C200   H216    1.084   .     S
C200   C248    1.394   .     S
C201   H217    1.084   .     S
C201   C249    1.394   1_455 S
C202   C246    1.394   1_455 S
C203   C247    1.394   .     S
C205   C20     1.325   1_565 S
C205   H35     1.088   1_565 S
C206   O229    1.292   .     A
C206   O227    1.295   .     A
C207   O230    1.292   .     A
C207   O228    1.295   .     A
C208   H211    1.083   .     S
Cu209  O226    1.948   .     S
Cu209  N222    2.023   .     S
Cu209  O227    1.960   .     S
Cu209  Cu210   2.692   .     S
Cu209  O223    1.954   .     S
Cu209  O230    1.945   .     S
Cu210  N221    2.023   .     S
Cu210  O228    1.960   .     S
Cu210  O224    1.954   .     S
Cu210  O225    1.948   .     S
Cu210  O229    1.945   .     S
H212   N774    1.029   1_554 S
H218   C20     1.088   1_565 S
H220   N497    1.029   .     S
N221   H772    1.029   1_554 S
N221   N774    1.293   1_554 S
N222   N497    1.293   .     S
N222   H488    1.029   .     S
Br231  C248    1.923   .     S
Br232  C249    1.923   .     S
C233   C250    1.425   .     S
C233   O269    1.293   .     A
C233   O271    1.285   .     A
C234   H259    1.083   .     S
C234   C245    1.398   .     A
C234   C236    1.395   .     A
C235   C253    1.442   .     S
C235   C254    1.395   .     A
C235   C237    1.394   .     A
C236   C252    1.442   .     S
C236   C238    1.394   .     A
C237   C239    1.393   .     A
C237   H260    1.085   .     S
C238   H261    1.085   .     S
C238   C240    1.393   .     A
C239   C241    1.413   .     A
C239   C246    1.399   .     A
C240   C242    1.413   .     A
C240   C247    1.399   .     A
C241   C243    1.418   .     A
C241   C196    1.403   1_655 S
C242   C245    1.418   .     A
C243   C249    1.411   .     A
C243   C254    1.398   .     A
C244   O272    1.285   .     A
C244   C251    1.425   .     S
C244   O270    1.293   .     A
C245   C248    1.411   .     A
C246   H262    1.084   .     S
C246   C202    1.394   1_655 S
C247   H263    1.084   .     S
C249   C201    1.394   1_655 S
C251   C66     1.325   1_565 S
C251   H81     1.088   1_565 S
C252   O275    1.292   .     A
C252   O273    1.295   .     A
C253   O276    1.292   .     A
C253   O274    1.295   .     A
C254   H257    1.083   .     S
Cu255  O272    1.948   .     S
Cu255  N268    2.023   .     S
Cu255  O273    1.960   .     S
Cu255  Cu256   2.692   .     S
Cu255  O269    1.954   .     S
Cu255  O276    1.945   .     S
Cu256  N267    2.023   .     S
Cu256  O274    1.960   .     S
Cu256  O270    1.954   .     S
Cu256  O271    1.948   .     S
Cu256  O275    1.945   .     S
H258   N820    1.029   1_554 S
H264   C66     1.088   1_565 S
H266   N543    1.029   .     S
N267   H818    1.029   1_554 S
N267   N820    1.293   1_554 S
N268   N543    1.293   .     S
N268   H534    1.029   .     S
Br277  C294    1.923   .     S
Br278  C295    1.923   .     S
C279   C296    1.425   .     S
C279   O315    1.293   .     A
C279   O317    1.285   .     A
C280   H305    1.083   .     S
C280   C291    1.398   .     A
C280   C282    1.395   .     A
C281   C299    1.442   .     S
C281   C300    1.395   .     A
C281   C283    1.394   .     A
C282   C298    1.442   .     S
C282   C284    1.394   .     A
C283   C285    1.393   .     A
C283   H306    1.085   .     S
C284   H307    1.085   .     S
C284   C286    1.393   .     A
C285   C287    1.413   .     A
C285   C292    1.399   .     A
C286   C288    1.413   .     A
C286   C293    1.399   .     A
C287   C289    1.418   .     A
C287   C334    1.403   .     S
C288   C291    1.418   .     A
C288   C333    1.403   1_455 S
C289   C295    1.411   .     A
C289   C300    1.398   .     A
C290   O318    1.285   .     A
C290   C297    1.425   .     S
C290   O316    1.293   .     A
C291   C294    1.411   .     A
C292   H308    1.084   .     S
C292   C340    1.394   .     S
C293   H309    1.084   .     S
C293   C341    1.394   1_455 S
C294   C338    1.394   1_455 S
C295   C339    1.394   .     S
C296   C481    1.325   1_545 S
C296   H494    1.088   1_545 S
C297   C388    1.325   .     S
C297   H403    1.088   .     S
C298   O321    1.292   .     A
C298   O319    1.295   .     A
C299   O322    1.292   .     A
C299   O320    1.295   .     A
C300   H303    1.083   .     S
Cu301  O318    1.948   .     S
Cu301  N314    2.023   .     S
Cu301  O319    1.960   .     S
Cu301  Cu302   2.692   .     S
Cu301  O315    1.954   .     S
Cu301  O322    1.945   .     S
Cu302  N313    2.023   .     S
Cu302  O320    1.960   .     S
Cu302  O316    1.954   .     S
Cu302  O317    1.948   .     S
Cu302  O321    1.945   .     S
H310   C388    1.088   .     S
H311   C481    1.088   1_545 S
H312   N589    1.029   .     S
N314   N589    1.293   .     S
N314   H580    1.029   .     S
Br323  C340    1.923   .     S
Br324  C341    1.923   .     S
C325   C342    1.425   .     S
C325   O361    1.293   .     A
C325   O363    1.285   .     A
C326   H351    1.083   .     S
C326   C337    1.398   .     A
C326   C328    1.395   .     A
C327   C345    1.442   .     S
C327   C346    1.395   .     A
C327   C329    1.394   .     A
C328   C344    1.442   .     S
C328   C330    1.394   .     A
C329   C331    1.393   .     A
C329   H352    1.085   .     S
C330   H353    1.085   .     S
C330   C332    1.393   .     A
C331   C333    1.413   .     A
C331   C338    1.399   .     A
C332   C334    1.413   .     A
C332   C339    1.399   .     A
C333   C335    1.418   .     A
C333   C288    1.403   1_655 S
C334   C337    1.418   .     A
C335   C341    1.411   .     A
C335   C346    1.398   .     A
C336   O364    1.285   .     A
C336   C343    1.425   .     S
C336   O362    1.293   .     A
C337   C340    1.411   .     A
C338   H354    1.084   .     S
C338   C294    1.394   1_655 S
C339   H355    1.084   .     S
C341   C293    1.394   1_655 S
C342   C527    1.325   1_545 S
C342   H540    1.088   1_545 S
C343   C434    1.325   .     S
C343   H449    1.088   .     S
C344   O367    1.292   .     A
C344   O365    1.295   .     A
C345   O368    1.292   .     A
C345   O366    1.295   .     A
C346   H349    1.083   .     S
Cu347  O364    1.948   .     S
Cu347  N360    2.023   .     S
Cu347  O365    1.960   .     S
Cu347  Cu348   2.692   .     S
Cu347  O361    1.954   .     S
Cu347  O368    1.945   .     S
Cu348  N359    2.023   .     S
Cu348  O366    1.960   .     S
Cu348  O362    1.954   .     S
Cu348  O363    1.948   .     S
Cu348  O367    1.945   .     S
H356   C434    1.088   .     S
H357   C527    1.088   1_545 S
H358   N635    1.029   .     S
N360   N635    1.293   .     S
N360   H626    1.029   .     S
Br369  C386    1.923   .     S
Br370  C387    1.923   .     S
C371   C388    1.425   .     S
C371   O407    1.293   .     A
C371   O409    1.285   .     A
C372   H397    1.083   .     S
C372   C383    1.398   .     A
C372   C374    1.395   .     A
C373   C391    1.442   .     S
C373   C392    1.395   .     A
C373   C375    1.394   .     A
C374   C390    1.442   .     S
C374   C376    1.394   .     A
C375   C377    1.393   .     A
C375   H398    1.085   .     S
C376   H399    1.085   .     S
C376   C378    1.393   .     A
C377   C379    1.413   .     A
C377   C384    1.399   .     A
C378   C380    1.413   .     A
C378   C385    1.399   .     A
C379   C381    1.418   .     A
C379   C426    1.403   .     S
C380   C383    1.418   .     A
C380   C425    1.403   1_455 S
C381   C387    1.411   .     A
C381   C392    1.398   .     A
C382   O410    1.285   .     A
C382   C389    1.425   .     S
C382   O408    1.293   .     A
C383   C386    1.411   .     A
C384   H400    1.084   .     S
C384   C432    1.394   .     S
C385   H401    1.084   .     S
C385   C433    1.394   1_455 S
C386   C430    1.394   1_455 S
C387   C431    1.394   .     S
C389   C480    1.325   .     S
C389   H495    1.088   .     S
C390   O413    1.292   .     A
C390   O411    1.295   .     A
C391   O414    1.292   .     A
C391   O412    1.295   .     A
C392   H395    1.083   .     S
Cu393  O410    1.948   .     S
Cu393  N406    2.023   .     S
Cu393  O411    1.960   .     S
Cu393  Cu394   2.692   .     S
Cu393  O407    1.954   .     S
Cu393  O414    1.945   .     S
Cu394  N405    2.023   .     S
Cu394  O412    1.960   .     S
Cu394  O408    1.954   .     S
Cu394  O409    1.948   .     S
Cu394  O413    1.945   .     S
H402   C480    1.088   .     S
H404   N681    1.029   .     S
N406   N681    1.293   .     S
N406   H672    1.029   .     S
Br415  C432    1.923   .     S
Br416  C433    1.923   .     S
C417   C434    1.425   .     S
C417   O453    1.293   .     A
C417   O455    1.285   .     A
C418   H443    1.083   .     S
C418   C429    1.398   .     A
C418   C420    1.395   .     A
C419   C437    1.442   .     S
C419   C438    1.395   .     A
C419   C421    1.394   .     A
C420   C436    1.442   .     S
C420   C422    1.394   .     A
C421   C423    1.393   .     A
C421   H444    1.085   .     S
C422   H445    1.085   .     S
C422   C424    1.393   .     A
C423   C425    1.413   .     A
C423   C430    1.399   .     A
C424   C426    1.413   .     A
C424   C431    1.399   .     A
C425   C427    1.418   .     A
C425   C380    1.403   1_655 S
C426   C429    1.418   .     A
C427   C433    1.411   .     A
C427   C438    1.398   .     A
C428   O456    1.285   .     A
C428   C435    1.425   .     S
C428   O454    1.293   .     A
C429   C432    1.411   .     A
C430   H446    1.084   .     S
C430   C386    1.394   1_655 S
C431   H447    1.084   .     S
C433   C385    1.394   1_655 S
C435   C526    1.325   .     S
C435   H541    1.088   .     S
C436   O459    1.292   .     A
C436   O457    1.295   .     A
C437   O460    1.292   .     A
C437   O458    1.295   .     A
C438   H441    1.083   .     S
Cu439  O456    1.948   .     S
Cu439  N452    2.023   .     S
Cu439  O457    1.960   .     S
Cu439  Cu440   2.692   .     S
Cu439  O453    1.954   .     S
Cu439  O460    1.945   .     S
Cu440  N451    2.023   .     S
Cu440  O458    1.960   .     S
Cu440  O454    1.954   .     S
Cu440  O455    1.948   .     S
Cu440  O459    1.945   .     S
H448   C526    1.088   .     S
H450   N727    1.029   .     S
N452   N727    1.293   .     S
N452   H718    1.029   .     S
Br461  C478    1.923   .     S
Br462  C479    1.923   .     S
C463   C480    1.425   .     S
C463   O499    1.293   .     A
C463   O501    1.285   .     A
C464   H489    1.083   .     S
C464   C475    1.398   .     A
C464   C466    1.395   .     A
C465   C483    1.442   .     S
C465   C484    1.395   .     A
C465   C467    1.394   .     A
C466   C482    1.442   .     S
C466   C468    1.394   .     A
C467   C469    1.393   .     A
C467   H490    1.085   .     S
C468   H491    1.085   .     S
C468   C470    1.393   .     A
C469   C471    1.413   .     A
C469   C476    1.399   .     A
C470   C472    1.413   .     A
C470   C477    1.399   .     A
C471   C473    1.418   .     A
C471   C518    1.403   .     S
C472   C475    1.418   .     A
C472   C517    1.403   1_455 S
C473   C479    1.411   .     A
C473   C484    1.398   .     A
C474   O502    1.285   .     A
C474   C481    1.425   .     S
C474   O500    1.293   .     A
C475   C478    1.411   .     A
C476   H492    1.084   .     S
C476   C524    1.394   .     S
C477   H493    1.084   .     S
C477   C525    1.394   1_455 S
C478   C522    1.394   1_455 S
C479   C523    1.394   .     S
C481   C296    1.325   1_565 S
C481   H311    1.088   1_565 S
C482   O505    1.292   .     A
C482   O503    1.295   .     A
C483   O506    1.292   .     A
C483   O504    1.295   .     A
C484   H487    1.083   .     S
Cu485  O502    1.948   .     S
Cu485  N498    2.023   .     S
Cu485  O503    1.960   .     S
Cu485  Cu486   2.692   .     S
Cu485  O499    1.954   .     S
Cu485  O506    1.945   .     S
Cu486  N497    2.023   .     S
Cu486  O504    1.960   .     S
Cu486  O500    1.954   .     S
Cu486  O501    1.948   .     S
Cu486  O505    1.945   .     S
H494   C296    1.088   1_565 S
H496   N773    1.029   .     S
N498   N773    1.293   .     S
N498   H764    1.029   .     S
Br507  C524    1.923   .     S
Br508  C525    1.923   .     S
C509   C526    1.425   .     S
C509   O545    1.293   .     A
C509   O547    1.285   .     A
C510   H535    1.083   .     S
C510   C521    1.398   .     A
C510   C512    1.395   .     A
C511   C529    1.442   .     S
C511   C530    1.395   .     A
C511   C513    1.394   .     A
C512   C528    1.442   .     S
C512   C514    1.394   .     A
C513   C515    1.393   .     A
C513   H536    1.085   .     S
C514   H537    1.085   .     S
C514   C516    1.393   .     A
C515   C517    1.413   .     A
C515   C522    1.399   .     A
C516   C518    1.413   .     A
C516   C523    1.399   .     A
C517   C519    1.418   .     A
C517   C472    1.403   1_655 S
C518   C521    1.418   .     A
C519   C525    1.411   .     A
C519   C530    1.398   .     A
C520   O548    1.285   .     A
C520   C527    1.425   .     S
C520   O546    1.293   .     A
C521   C524    1.411   .     A
C522   H538    1.084   .     S
C522   C478    1.394   1_655 S
C523   H539    1.084   .     S
C525   C477    1.394   1_655 S
C527   C342    1.325   1_565 S
C527   H357    1.088   1_565 S
C528   O551    1.292   .     A
C528   O549    1.295   .     A
C529   O552    1.292   .     A
C529   O550    1.295   .     A
C530   H533    1.083   .     S
Cu531  O548    1.948   .     S
Cu531  N544    2.023   .     S
Cu531  O549    1.960   .     S
Cu531  Cu532   2.692   .     S
Cu531  O545    1.954   .     S
Cu531  O552    1.945   .     S
Cu532  N543    2.023   .     S
Cu532  O550    1.960   .     S
Cu532  O546    1.954   .     S
Cu532  O547    1.948   .     S
Cu532  O551    1.945   .     S
H540   C342    1.088   1_565 S
H542   N819    1.029   .     S
N544   N819    1.293   .     S
N544   H810    1.029   .     S
Br553  C570    1.923   .     S
Br554  C571    1.923   .     S
C555   C572    1.425   .     S
C555   O591    1.293   .     A
C555   O593    1.285   .     A
C556   H581    1.083   .     S
C556   C567    1.398   .     A
C556   C558    1.395   .     A
C557   C575    1.442   .     S
C557   C576    1.395   .     A
C557   C559    1.394   .     A
C558   C574    1.442   .     S
C558   C560    1.394   .     A
C559   C561    1.393   .     A
C559   H582    1.085   .     S
C560   H583    1.085   .     S
C560   C562    1.393   .     A
C561   C563    1.413   .     A
C561   C568    1.399   .     A
C562   C564    1.413   .     A
C562   C569    1.399   .     A
C563   C565    1.418   .     A
C563   C610    1.403   .     S
C564   C567    1.418   .     A
C564   C609    1.403   1_455 S
C565   C571    1.411   .     A
C565   C576    1.398   .     A
C566   O594    1.285   .     A
C566   C573    1.425   .     S
C566   O592    1.293   .     A
C567   C570    1.411   .     A
C568   H584    1.084   .     S
C568   C616    1.394   .     S
C569   H585    1.084   .     S
C569   C617    1.394   1_455 S
C570   C614    1.394   1_455 S
C571   C615    1.394   .     S
C572   C757    1.325   1_545 S
C572   H770    1.088   1_545 S
C573   C664    1.325   .     S
C573   H679    1.088   .     S
C574   O597    1.292   .     A
C574   O595    1.295   .     A
C575   O598    1.292   .     A
C575   O596    1.295   .     A
C576   H579    1.083   .     S
Cu577  O594    1.948   .     S
Cu577  N590    2.023   .     S
Cu577  O595    1.960   .     S
Cu577  Cu578   2.692   .     S
Cu577  O591    1.954   .     S
Cu577  O598    1.945   .     S
Cu578  N589    2.023   .     S
Cu578  O596    1.960   .     S
Cu578  O592    1.954   .     S
Cu578  O593    1.948   .     S
Cu578  O597    1.945   .     S
H586   C664    1.088   .     S
H587   C757    1.088   1_545 S
H588   N37     1.029   1_556 S
N590   N37     1.293   1_556 S
N590   H28     1.029   1_556 S
Br599  C616    1.923   .     S
Br600  C617    1.923   .     S
C601   C618    1.425   .     S
C601   O637    1.293   .     A
C601   O639    1.285   .     A
C602   H627    1.083   .     S
C602   C613    1.398   .     A
C602   C604    1.395   .     A
C603   C621    1.442   .     S
C603   C622    1.395   .     A
C603   C605    1.394   .     A
C604   C620    1.442   .     S
C604   C606    1.394   .     A
C605   C607    1.393   .     A
C605   H628    1.085   .     S
C606   H629    1.085   .     S
C606   C608    1.393   .     A
C607   C609    1.413   .     A
C607   C614    1.399   .     A
C608   C610    1.413   .     A
C608   C615    1.399   .     A
C609   C611    1.418   .     A
C609   C564    1.403   1_655 S
C610   C613    1.418   .     A
C611   C617    1.411   .     A
C611   C622    1.398   .     A
C612   O640    1.285   .     A
C612   C619    1.425   .     S
C612   O638    1.293   .     A
C613   C616    1.411   .     A
C614   H630    1.084   .     S
C614   C570    1.394   1_655 S
C615   H631    1.084   .     S
C617   C569    1.394   1_655 S
C618   C803    1.325   1_545 S
C618   H816    1.088   1_545 S
C619   C710    1.325   .     S
C619   H725    1.088   .     S
C620   O643    1.292   .     A
C620   O641    1.295   .     A
C621   O644    1.292   .     A
C621   O642    1.295   .     A
C622   H625    1.083   .     S
Cu623  O640    1.948   .     S
Cu623  N636    2.023   .     S
Cu623  O641    1.960   .     S
Cu623  Cu624   2.692   .     S
Cu623  O637    1.954   .     S
Cu623  O644    1.945   .     S
Cu624  N635    2.023   .     S
Cu624  O642    1.960   .     S
Cu624  O638    1.954   .     S
Cu624  O639    1.948   .     S
Cu624  O643    1.945   .     S
H632   C710    1.088   .     S
H633   C803    1.088   1_545 S
H634   N83     1.029   1_556 S
N636   N83     1.293   1_556 S
N636   H74     1.029   1_556 S
Br645  C662    1.923   .     S
Br646  C663    1.923   .     S
C647   C664    1.425   .     S
C647   O683    1.293   .     A
C647   O685    1.285   .     A
C648   H673    1.083   .     S
C648   C659    1.398   .     A
C648   C650    1.395   .     A
C649   C667    1.442   .     S
C649   C668    1.395   .     A
C649   C651    1.394   .     A
C650   C666    1.442   .     S
C650   C652    1.394   .     A
C651   C653    1.393   .     A
C651   H674    1.085   .     S
C652   H675    1.085   .     S
C652   C654    1.393   .     A
C653   C655    1.413   .     A
C653   C660    1.399   .     A
C654   C656    1.413   .     A
C654   C661    1.399   .     A
C655   C657    1.418   .     A
C655   C702    1.403   .     S
C656   C659    1.418   .     A
C656   C701    1.403   1_455 S
C657   C663    1.411   .     A
C657   C668    1.398   .     A
C658   O686    1.285   .     A
C658   C665    1.425   .     S
C658   O684    1.293   .     A
C659   C662    1.411   .     A
C660   H676    1.084   .     S
C660   C708    1.394   .     S
C661   H677    1.084   .     S
C661   C709    1.394   1_455 S
C662   C706    1.394   1_455 S
C663   C707    1.394   .     S
C665   C756    1.325   .     S
C665   H771    1.088   .     S
C666   O689    1.292   .     A
C666   O687    1.295   .     A
C667   O690    1.292   .     A
C667   O688    1.295   .     A
C668   H671    1.083   .     S
Cu669  O686    1.948   .     S
Cu669  N682    2.023   .     S
Cu669  O687    1.960   .     S
Cu669  Cu670   2.692   .     S
Cu669  O683    1.954   .     S
Cu669  O690    1.945   .     S
Cu670  N681    2.023   .     S
Cu670  O688    1.960   .     S
Cu670  O684    1.954   .     S
Cu670  O685    1.948   .     S
Cu670  O689    1.945   .     S
H678   C756    1.088   .     S
H680   N129    1.029   1_556 S
N682   N129    1.293   1_556 S
N682   H120    1.029   1_556 S
Br691  C708    1.923   .     S
Br692  C709    1.923   .     S
C693   C710    1.425   .     S
C693   O729    1.293   .     A
C693   O731    1.285   .     A
C694   H719    1.083   .     S
C694   C705    1.398   .     A
C694   C696    1.395   .     A
C695   C713    1.442   .     S
C695   C714    1.395   .     A
C695   C697    1.394   .     A
C696   C712    1.442   .     S
C696   C698    1.394   .     A
C697   C699    1.393   .     A
C697   H720    1.085   .     S
C698   H721    1.085   .     S
C698   C700    1.393   .     A
C699   C701    1.413   .     A
C699   C706    1.399   .     A
C700   C702    1.413   .     A
C700   C707    1.399   .     A
C701   C703    1.418   .     A
C701   C656    1.403   1_655 S
C702   C705    1.418   .     A
C703   C709    1.411   .     A
C703   C714    1.398   .     A
C704   O732    1.285   .     A
C704   C711    1.425   .     S
C704   O730    1.293   .     A
C705   C708    1.411   .     A
C706   H722    1.084   .     S
C706   C662    1.394   1_655 S
C707   H723    1.084   .     S
C709   C661    1.394   1_655 S
C711   C802    1.325   .     S
C711   H817    1.088   .     S
C712   O735    1.292   .     A
C712   O733    1.295   .     A
C713   O736    1.292   .     A
C713   O734    1.295   .     A
C714   H717    1.083   .     S
Cu715  O732    1.948   .     S
Cu715  N728    2.023   .     S
Cu715  O733    1.960   .     S
Cu715  Cu716   2.692   .     S
Cu715  O729    1.954   .     S
Cu715  O736    1.945   .     S
Cu716  N727    2.023   .     S
Cu716  O734    1.960   .     S
Cu716  O730    1.954   .     S
Cu716  O731    1.948   .     S
Cu716  O735    1.945   .     S
H724   C802    1.088   .     S
H726   N175    1.029   1_556 S
N728   N175    1.293   1_556 S
N728   H166    1.029   1_556 S
Br737  C754    1.923   .     S
Br738  C755    1.923   .     S
C739   C756    1.425   .     S
C739   O775    1.293   .     A
C739   O777    1.285   .     A
C740   H765    1.083   .     S
C740   C751    1.398   .     A
C740   C742    1.395   .     A
C741   C759    1.442   .     S
C741   C760    1.395   .     A
C741   C743    1.394   .     A
C742   C758    1.442   .     S
C742   C744    1.394   .     A
C743   C745    1.393   .     A
C743   H766    1.085   .     S
C744   H767    1.085   .     S
C744   C746    1.393   .     A
C745   C747    1.413   .     A
C745   C752    1.399   .     A
C746   C748    1.413   .     A
C746   C753    1.399   .     A
C747   C749    1.418   .     A
C747   C794    1.403   .     S
C748   C751    1.418   .     A
C748   C793    1.403   1_455 S
C749   C755    1.411   .     A
C749   C760    1.398   .     A
C750   O778    1.285   .     A
C750   C757    1.425   .     S
C750   O776    1.293   .     A
C751   C754    1.411   .     A
C752   H768    1.084   .     S
C752   C800    1.394   .     S
C753   H769    1.084   .     S
C753   C801    1.394   1_455 S
C754   C798    1.394   1_455 S
C755   C799    1.394   .     S
C757   C572    1.325   1_565 S
C757   H587    1.088   1_565 S
C758   O781    1.292   .     A
C758   O779    1.295   .     A
C759   O782    1.292   .     A
C759   O780    1.295   .     A
C760   H763    1.083   .     S
Cu761  O778    1.948   .     S
Cu761  N774    2.023   .     S
Cu761  O779    1.960   .     S
Cu761  Cu762   2.692   .     S
Cu761  O775    1.954   .     S
Cu761  O782    1.945   .     S
Cu762  N773    2.023   .     S
Cu762  O780    1.960   .     S
Cu762  O776    1.954   .     S
Cu762  O777    1.948   .     S
Cu762  O781    1.945   .     S
H770   C572    1.088   1_565 S
H772   N221    1.029   1_556 S
N774   N221    1.293   1_556 S
N774   H212    1.029   1_556 S
Br783  C800    1.923   .     S
Br784  C801    1.923   .     S
C785   C802    1.425   .     S
C785   O821    1.293   .     A
C785   O823    1.285   .     A
C786   H811    1.083   .     S
C786   C797    1.398   .     A
C786   C788    1.395   .     A
C787   C805    1.442   .     S
C787   C806    1.395   .     A
C787   C789    1.394   .     A
C788   C804    1.442   .     S
C788   C790    1.394   .     A
C789   C791    1.393   .     A
C789   H812    1.085   .     S
C790   H813    1.085   .     S
C790   C792    1.393   .     A
C791   C793    1.413   .     A
C791   C798    1.399   .     A
C792   C794    1.413   .     A
C792   C799    1.399   .     A
C793   C795    1.418   .     A
C793   C748    1.403   1_655 S
C794   C797    1.418   .     A
C795   C801    1.411   .     A
C795   C806    1.398   .     A
C796   O824    1.285   .     A
C796   C803    1.425   .     S
C796   O822    1.293   .     A
C797   C800    1.411   .     A
C798   H814    1.084   .     S
C798   C754    1.394   1_655 S
C799   H815    1.084   .     S
C801   C753    1.394   1_655 S
C803   C618    1.325   1_565 S
C803   H633    1.088   1_565 S
C804   O827    1.292   .     A
C804   O825    1.295   .     A
C805   O828    1.292   .     A
C805   O826    1.295   .     A
C806   H809    1.083   .     S
Cu807  O824    1.948   .     S
Cu807  N820    2.023   .     S
Cu807  O825    1.960   .     S
Cu807  Cu808   2.692   .     S
Cu807  O821    1.954   .     S
Cu807  O828    1.945   .     S
Cu808  N819    2.023   .     S
Cu808  O826    1.960   .     S
Cu808  O822    1.954   .     S
Cu808  O823    1.948   .     S
Cu808  O827    1.945   .     S
H816   C618    1.088   1_565 S
H818   N267    1.029   1_556 S
N820   N267    1.293   1_556 S
N820   H258    1.029   1_556 S
