data_str_m2_o2_o10_pcu_sym.98
_audit_creation_date              2020-01-03
_audit_creation_method            'Materials Studio'
_symmetry_space_group_name_H-M    'P1'
_symmetry_Int_Tables_number       1
_symmetry_cell_setting            triclinic
loop_
_symmetry_equiv_pos_as_xyz
  x,y,z
_cell_length_a                    26.1790
_cell_length_b                    30.2858
_cell_length_c                    27.8982
_cell_angle_alpha                 91.7081
_cell_angle_beta                  98.7166
_cell_angle_gamma                 91.5412
loop_
_atom_site_label
_atom_site_type_symbol
_atom_site_fract_x
_atom_site_fract_y
_atom_site_fract_z
_atom_site_U_iso_or_equiv
_atom_site_adp_type
_atom_site_occupancy
C1     C     0.16724   0.16524   0.24941   0.00000  Uiso   1.00
C2     C     0.21150   0.26362   0.45366   0.00000  Uiso   1.00
C3     C     0.16649   0.24961   0.02717   0.00000  Uiso   1.00
C4     C     0.16706   0.25010   0.47284   0.00000  Uiso   1.00
C5     C     0.06787   0.24985   0.23742   0.00000  Uiso   1.00
C6     C     0.26545   0.25001   0.26258   0.00000  Uiso   1.00
C7     C     0.01238   0.24972   0.23066   0.00000  Uiso   1.00
C8     C     0.32094   0.24997   0.26935   0.00000  Uiso   1.00
C9     C     0.12794   0.04862   0.26766   0.00000  Uiso   1.00
C10    C     0.17598   0.45145   0.20925   0.00000  Uiso   1.00
C11    C     0.12923   0.09443   0.26807   0.00000  Uiso   1.00
C12    C     0.16600   0.33517   0.25067   0.00000  Uiso   1.00
C13    C     0.17622   0.40574   0.21068   0.00000  Uiso   1.00
C14    C     0.16746   0.11728   0.24788   0.00000  Uiso   1.00
C15    C     0.16522   0.38387   0.25187   0.00000  Uiso   1.00
C16    C     0.20536   0.09408   0.22730   0.00000  Uiso   1.00
C17    C     0.15334   0.40917   0.29233   0.00000  Uiso   1.00
C18    C     0.20417   0.04790   0.22785   0.00000  Uiso   1.00
C19    C     0.15413   0.45529   0.29045   0.00000  Uiso   1.00
C20    C     0.16561   0.02503   0.24794   0.00000  Uiso   1.00
C21    C     0.16521   0.47654   0.24916   0.00000  Uiso   1.00
C22    C     0.24805   0.11785   0.20665   0.00000  Uiso   1.00
C23    C     0.18329   0.28701   0.05739   0.00000  Uiso   1.00
C24    C     0.13878   0.38869   0.33727   0.00000  Uiso   1.00
C25    C     0.11357   0.17806   0.11823   0.00000  Uiso   1.00
C26    C     0.25051   0.29585   0.38555   0.00000  Uiso   1.00
C27    C     0.14057   0.16795   0.02125   0.00000  Uiso   1.00
C28    C     0.26274   0.27192   0.48671   0.00000  Uiso   1.00
C29    C     0.12321   0.23598   0.43949   0.00000  Uiso   1.00
C30    C     0.18549   0.28578   0.10815   0.00000  Uiso   1.00
C31    C     0.12468   0.23411   0.38915   0.00000  Uiso   1.00
C32    C     0.14555   0.21428   0.09979   0.00000  Uiso   1.00
C33    C     0.20841   0.26806   0.40262   0.00000  Uiso   1.00
C34    C     0.15053   0.21167   0.04963   0.00000  Uiso   1.00
Cu35   Cu    0.16667   0.24999   0.29821   0.00000  Uiso   1.00
Cu36   Cu    0.16667   0.25000   0.20178   0.00000  Uiso   1.00
H37    H     0.09731   0.03164   0.28259   0.00000  Uiso   1.00
H38    H     0.10549   0.36500   0.32723   0.00000  Uiso   1.00
H39    H     0.17231   0.37176   0.35697   0.00000  Uiso   1.00
H40    H     0.12700   0.41388   0.36288   0.00000  Uiso   1.00
H41    H     0.23391   0.02976   0.21344   0.00000  Uiso   1.00
H42    H     0.14650   0.47486   0.32159   0.00000  Uiso   1.00
H43    H     0.19597   0.31697   0.04188   0.00000  Uiso   1.00
H44    H     0.08807   0.22533   0.45241   0.00000  Uiso   1.00
H45    H     0.20118   0.31427   0.13027   0.00000  Uiso   1.00
H46    H     0.09126   0.22093   0.36493   0.00000  Uiso   1.00
H47    H     0.09375   0.18945   0.14803   0.00000  Uiso   1.00
H48    H     0.18385   0.46718   0.17666   0.00000  Uiso   1.00
H49    H     0.08129   0.16652   0.08975   0.00000  Uiso   1.00
H50    H     0.13777   0.14935   0.12875   0.00000  Uiso   1.00
H51    H     0.23719   0.31242   0.35171   0.00000  Uiso   1.00
H52    H     0.26322   0.32371   0.41179   0.00000  Uiso   1.00
H53    H     0.28456   0.27559   0.38211   0.00000  Uiso   1.00
H54    H     0.09873   0.16316   0.00729   0.00000  Uiso   1.00
H55    H     0.16288   0.16592   0.49052   0.00000  Uiso   1.00
H56    H     0.15356   0.14004   0.04451   0.00000  Uiso   1.00
H57    H     0.26857   0.30766   0.49656   0.00000  Uiso   1.00
H58    H     0.26504   0.25282   0.02025   0.00000  Uiso   1.00
H59    H     0.09993   0.11215   0.28366   0.00000  Uiso   1.00
H60    H     0.29528   0.26069   0.46861   0.00000  Uiso   1.00
H61    H     0.18518   0.38749   0.17919   0.00000  Uiso   1.00
H62    H     0.32520   0.24947   0.19373   0.00000  Uiso   1.00
H63    H     0.00809   0.25022   0.30629   0.00000  Uiso   1.00
H64    H     0.26921   0.14151   0.23436   0.00000  Uiso   1.00
H65    H     0.27637   0.09451   0.19537   0.00000  Uiso   1.00
H66    H     0.23161   0.13605   0.17424   0.00000  Uiso   1.00
N67    N     0.16667   0.25001   0.12934   0.00000  Uiso   1.00
N68    N     0.16667   0.24999   0.37065   0.00000  Uiso   1.00
O69    O     0.16667   0.18572   0.29071   0.00000  Uiso   1.00
O70    O     0.16666   0.31427   0.20928   0.00000  Uiso   1.00
O71    O     0.16667   0.18573   0.20928   0.00000  Uiso   1.00
O72    O     0.16666   0.31427   0.29072   0.00000  Uiso   1.00
O73    O     0.09161   0.24999   0.28132   0.00000  Uiso   1.00
O74    O     0.24172   0.25000   0.21868   0.00000  Uiso   1.00
O75    O     0.09161   0.25000   0.19989   0.00000  Uiso   1.00
O76    O     0.24172   0.25000   0.30011   0.00000  Uiso   1.00
C77    C     0.50058   0.16524   0.24941   0.00000  Uiso   1.00
C78    C     0.54483   0.26362   0.45366   0.00000  Uiso   1.00
C79    C     0.49982   0.24961   0.02717   0.00000  Uiso   1.00
C80    C     0.50039   0.25010   0.47284   0.00000  Uiso   1.00
C81    C     0.40121   0.24985   0.23742   0.00000  Uiso   1.00
C82    C     0.59879   0.25001   0.26258   0.00000  Uiso   1.00
C83    C     0.34571   0.24972   0.23066   0.00000  Uiso   1.00
C84    C     0.65427   0.24997   0.26935   0.00000  Uiso   1.00
C85    C     0.46127   0.04862   0.26766   0.00000  Uiso   1.00
C86    C     0.50931   0.45145   0.20925   0.00000  Uiso   1.00
C87    C     0.46256   0.09443   0.26807   0.00000  Uiso   1.00
C88    C     0.49933   0.33517   0.25067   0.00000  Uiso   1.00
C89    C     0.50956   0.40574   0.21068   0.00000  Uiso   1.00
C90    C     0.50079   0.11728   0.24788   0.00000  Uiso   1.00
C91    C     0.49855   0.38387   0.25187   0.00000  Uiso   1.00
C92    C     0.53869   0.09408   0.22730   0.00000  Uiso   1.00
C93    C     0.48668   0.40917   0.29233   0.00000  Uiso   1.00
C94    C     0.53751   0.04790   0.22785   0.00000  Uiso   1.00
C95    C     0.48746   0.45529   0.29045   0.00000  Uiso   1.00
C96    C     0.49894   0.02503   0.24794   0.00000  Uiso   1.00
C97    C     0.49854   0.47654   0.24916   0.00000  Uiso   1.00
C98    C     0.58138   0.11785   0.20665   0.00000  Uiso   1.00
C99    C     0.51662   0.28701   0.05739   0.00000  Uiso   1.00
C100   C     0.47211   0.38869   0.33727   0.00000  Uiso   1.00
C101   C     0.44690   0.17806   0.11823   0.00000  Uiso   1.00
C102   C     0.58384   0.29585   0.38555   0.00000  Uiso   1.00
C103   C     0.47391   0.16795   0.02125   0.00000  Uiso   1.00
C104   C     0.59607   0.27192   0.48671   0.00000  Uiso   1.00
C105   C     0.45654   0.23598   0.43949   0.00000  Uiso   1.00
C106   C     0.51883   0.28578   0.10815   0.00000  Uiso   1.00
C107   C     0.45802   0.23411   0.38915   0.00000  Uiso   1.00
C108   C     0.47889   0.21428   0.09979   0.00000  Uiso   1.00
C109   C     0.54174   0.26806   0.40262   0.00000  Uiso   1.00
C110   C     0.48387   0.21167   0.04963   0.00000  Uiso   1.00
Cu111  Cu    0.50000   0.24999   0.29821   0.00000  Uiso   1.00
Cu112  Cu    0.50000   0.25000   0.20178   0.00000  Uiso   1.00
H113   H     0.43064   0.03164   0.28259   0.00000  Uiso   1.00
H114   H     0.43882   0.36500   0.32723   0.00000  Uiso   1.00
H115   H     0.50564   0.37176   0.35697   0.00000  Uiso   1.00
H116   H     0.46033   0.41388   0.36288   0.00000  Uiso   1.00
H117   H     0.56725   0.02976   0.21344   0.00000  Uiso   1.00
H118   H     0.47983   0.47486   0.32159   0.00000  Uiso   1.00
H119   H     0.52930   0.31697   0.04188   0.00000  Uiso   1.00
H120   H     0.42140   0.22533   0.45241   0.00000  Uiso   1.00
H121   H     0.53452   0.31427   0.13027   0.00000  Uiso   1.00
H122   H     0.42459   0.22093   0.36493   0.00000  Uiso   1.00
H123   H     0.42709   0.18945   0.14803   0.00000  Uiso   1.00
H124   H     0.51718   0.46718   0.17666   0.00000  Uiso   1.00
H125   H     0.41462   0.16652   0.08975   0.00000  Uiso   1.00
H126   H     0.47110   0.14935   0.12875   0.00000  Uiso   1.00
H127   H     0.57052   0.31242   0.35171   0.00000  Uiso   1.00
H128   H     0.59656   0.32371   0.41179   0.00000  Uiso   1.00
H129   H     0.61789   0.27559   0.38211   0.00000  Uiso   1.00
H130   H     0.43206   0.16316   0.00729   0.00000  Uiso   1.00
H131   H     0.49622   0.16592   0.49052   0.00000  Uiso   1.00
H132   H     0.48690   0.14004   0.04451   0.00000  Uiso   1.00
H133   H     0.60191   0.30766   0.49656   0.00000  Uiso   1.00
H134   H     0.59838   0.25282   0.02025   0.00000  Uiso   1.00
H135   H     0.43326   0.11215   0.28366   0.00000  Uiso   1.00
H136   H     0.62861   0.26069   0.46861   0.00000  Uiso   1.00
H137   H     0.51851   0.38749   0.17919   0.00000  Uiso   1.00
H138   H     0.65853   0.24947   0.19373   0.00000  Uiso   1.00
H139   H     0.34143   0.25022   0.30629   0.00000  Uiso   1.00
H140   H     0.60254   0.14151   0.23436   0.00000  Uiso   1.00
H141   H     0.60970   0.09451   0.19537   0.00000  Uiso   1.00
H142   H     0.56494   0.13605   0.17424   0.00000  Uiso   1.00
N143   N     0.50000   0.25001   0.12934   0.00000  Uiso   1.00
N144   N     0.50000   0.24999   0.37065   0.00000  Uiso   1.00
O145   O     0.50000   0.18572   0.29071   0.00000  Uiso   1.00
O146   O     0.50000   0.31427   0.20928   0.00000  Uiso   1.00
O147   O     0.50000   0.18573   0.20928   0.00000  Uiso   1.00
O148   O     0.50000   0.31427   0.29072   0.00000  Uiso   1.00
O149   O     0.42495   0.24999   0.28132   0.00000  Uiso   1.00
O150   O     0.57505   0.25000   0.21868   0.00000  Uiso   1.00
O151   O     0.42495   0.25000   0.19989   0.00000  Uiso   1.00
O152   O     0.57505   0.25000   0.30011   0.00000  Uiso   1.00
C153   C     0.83391   0.16524   0.24941   0.00000  Uiso   1.00
C154   C     0.87817   0.26362   0.45366   0.00000  Uiso   1.00
C155   C     0.83316   0.24961   0.02717   0.00000  Uiso   1.00
C156   C     0.83372   0.25010   0.47284   0.00000  Uiso   1.00
C157   C     0.73454   0.24985   0.23742   0.00000  Uiso   1.00
C158   C     0.93212   0.25001   0.26258   0.00000  Uiso   1.00
C159   C     0.67904   0.24972   0.23066   0.00000  Uiso   1.00
C160   C     0.98760   0.24997   0.26935   0.00000  Uiso   1.00
C161   C     0.79460   0.04862   0.26766   0.00000  Uiso   1.00
C162   C     0.84264   0.45145   0.20925   0.00000  Uiso   1.00
C163   C     0.79590   0.09443   0.26807   0.00000  Uiso   1.00
C164   C     0.83266   0.33517   0.25067   0.00000  Uiso   1.00
C165   C     0.84289   0.40574   0.21068   0.00000  Uiso   1.00
C166   C     0.83412   0.11728   0.24788   0.00000  Uiso   1.00
C167   C     0.83188   0.38387   0.25187   0.00000  Uiso   1.00
C168   C     0.87202   0.09408   0.22730   0.00000  Uiso   1.00
C169   C     0.82001   0.40917   0.29233   0.00000  Uiso   1.00
C170   C     0.87084   0.04790   0.22785   0.00000  Uiso   1.00
C171   C     0.82080   0.45529   0.29045   0.00000  Uiso   1.00
C172   C     0.83227   0.02503   0.24794   0.00000  Uiso   1.00
C173   C     0.83187   0.47654   0.24916   0.00000  Uiso   1.00
C174   C     0.91472   0.11785   0.20665   0.00000  Uiso   1.00
C175   C     0.84995   0.28701   0.05739   0.00000  Uiso   1.00
C176   C     0.80544   0.38869   0.33727   0.00000  Uiso   1.00
C177   C     0.78024   0.17806   0.11823   0.00000  Uiso   1.00
C178   C     0.91717   0.29585   0.38555   0.00000  Uiso   1.00
C179   C     0.80724   0.16795   0.02125   0.00000  Uiso   1.00
C180   C     0.92940   0.27192   0.48671   0.00000  Uiso   1.00
C181   C     0.78987   0.23598   0.43949   0.00000  Uiso   1.00
C182   C     0.85216   0.28578   0.10815   0.00000  Uiso   1.00
C183   C     0.79135   0.23411   0.38915   0.00000  Uiso   1.00
C184   C     0.81222   0.21428   0.09979   0.00000  Uiso   1.00
C185   C     0.87507   0.26806   0.40262   0.00000  Uiso   1.00
C186   C     0.81720   0.21167   0.04963   0.00000  Uiso   1.00
Cu187  Cu    0.83333   0.24999   0.29821   0.00000  Uiso   1.00
Cu188  Cu    0.83333   0.25000   0.20178   0.00000  Uiso   1.00
H189   H     0.76397   0.03164   0.28259   0.00000  Uiso   1.00
H190   H     0.77215   0.36500   0.32723   0.00000  Uiso   1.00
H191   H     0.83898   0.37176   0.35697   0.00000  Uiso   1.00
H192   H     0.79366   0.41388   0.36288   0.00000  Uiso   1.00
H193   H     0.90058   0.02976   0.21344   0.00000  Uiso   1.00
H194   H     0.81316   0.47486   0.32159   0.00000  Uiso   1.00
H195   H     0.86264   0.31697   0.04188   0.00000  Uiso   1.00
H196   H     0.75474   0.22533   0.45241   0.00000  Uiso   1.00
H197   H     0.86785   0.31427   0.13027   0.00000  Uiso   1.00
H198   H     0.75793   0.22093   0.36493   0.00000  Uiso   1.00
H199   H     0.76042   0.18945   0.14803   0.00000  Uiso   1.00
H200   H     0.85051   0.46718   0.17666   0.00000  Uiso   1.00
H201   H     0.74795   0.16652   0.08975   0.00000  Uiso   1.00
H202   H     0.80443   0.14935   0.12875   0.00000  Uiso   1.00
H203   H     0.90386   0.31242   0.35171   0.00000  Uiso   1.00
H204   H     0.92989   0.32371   0.41179   0.00000  Uiso   1.00
H205   H     0.95123   0.27559   0.38211   0.00000  Uiso   1.00
H206   H     0.76539   0.16316   0.00729   0.00000  Uiso   1.00
H207   H     0.82955   0.16592   0.49052   0.00000  Uiso   1.00
H208   H     0.82023   0.14004   0.04451   0.00000  Uiso   1.00
H209   H     0.93524   0.30766   0.49656   0.00000  Uiso   1.00
H210   H     0.93171   0.25282   0.02025   0.00000  Uiso   1.00
H211   H     0.76659   0.11215   0.28366   0.00000  Uiso   1.00
H212   H     0.96195   0.26069   0.46861   0.00000  Uiso   1.00
H213   H     0.85185   0.38749   0.17919   0.00000  Uiso   1.00
H214   H     0.99187   0.24947   0.19373   0.00000  Uiso   1.00
H215   H     0.67476   0.25022   0.30629   0.00000  Uiso   1.00
H216   H     0.93587   0.14151   0.23436   0.00000  Uiso   1.00
H217   H     0.94304   0.09451   0.19537   0.00000  Uiso   1.00
H218   H     0.89827   0.13605   0.17424   0.00000  Uiso   1.00
N219   N     0.83333   0.25001   0.12934   0.00000  Uiso   1.00
N220   N     0.83333   0.24999   0.37065   0.00000  Uiso   1.00
O221   O     0.83334   0.18572   0.29071   0.00000  Uiso   1.00
O222   O     0.83333   0.31427   0.20928   0.00000  Uiso   1.00
O223   O     0.83334   0.18573   0.20928   0.00000  Uiso   1.00
O224   O     0.83333   0.31427   0.29072   0.00000  Uiso   1.00
O225   O     0.75828   0.24999   0.28132   0.00000  Uiso   1.00
O226   O     0.90839   0.25000   0.21868   0.00000  Uiso   1.00
O227   O     0.75828   0.25000   0.19989   0.00000  Uiso   1.00
O228   O     0.90839   0.25000   0.30011   0.00000  Uiso   1.00
C229   C     0.16724   0.66524   0.24941   0.00000  Uiso   1.00
C230   C     0.21150   0.76362   0.45366   0.00000  Uiso   1.00
C231   C     0.16649   0.74961   0.02717   0.00000  Uiso   1.00
C232   C     0.16706   0.75010   0.47284   0.00000  Uiso   1.00
C233   C     0.06787   0.74985   0.23742   0.00000  Uiso   1.00
C234   C     0.26545   0.75001   0.26258   0.00000  Uiso   1.00
C235   C     0.01238   0.74972   0.23066   0.00000  Uiso   1.00
C236   C     0.32094   0.74997   0.26935   0.00000  Uiso   1.00
C237   C     0.12794   0.54862   0.26766   0.00000  Uiso   1.00
C238   C     0.17598   0.95145   0.20925   0.00000  Uiso   1.00
C239   C     0.12923   0.59443   0.26807   0.00000  Uiso   1.00
C240   C     0.16600   0.83517   0.25067   0.00000  Uiso   1.00
C241   C     0.17622   0.90574   0.21068   0.00000  Uiso   1.00
C242   C     0.16746   0.61728   0.24788   0.00000  Uiso   1.00
C243   C     0.16522   0.88387   0.25187   0.00000  Uiso   1.00
C244   C     0.20536   0.59408   0.22730   0.00000  Uiso   1.00
C245   C     0.15334   0.90917   0.29233   0.00000  Uiso   1.00
C246   C     0.20417   0.54790   0.22785   0.00000  Uiso   1.00
C247   C     0.15413   0.95529   0.29045   0.00000  Uiso   1.00
C248   C     0.16561   0.52503   0.24794   0.00000  Uiso   1.00
C249   C     0.16521   0.97654   0.24916   0.00000  Uiso   1.00
C250   C     0.24805   0.61785   0.20665   0.00000  Uiso   1.00
C251   C     0.18329   0.78701   0.05739   0.00000  Uiso   1.00
C252   C     0.13878   0.88869   0.33727   0.00000  Uiso   1.00
C253   C     0.11357   0.67806   0.11823   0.00000  Uiso   1.00
C254   C     0.25051   0.79585   0.38555   0.00000  Uiso   1.00
C255   C     0.14057   0.66795   0.02125   0.00000  Uiso   1.00
C256   C     0.26274   0.77192   0.48671   0.00000  Uiso   1.00
C257   C     0.12321   0.73598   0.43949   0.00000  Uiso   1.00
C258   C     0.18549   0.78578   0.10815   0.00000  Uiso   1.00
C259   C     0.12468   0.73411   0.38915   0.00000  Uiso   1.00
C260   C     0.14555   0.71428   0.09979   0.00000  Uiso   1.00
C261   C     0.20841   0.76806   0.40262   0.00000  Uiso   1.00
C262   C     0.15053   0.71167   0.04963   0.00000  Uiso   1.00
Cu263  Cu    0.16667   0.74999   0.29821   0.00000  Uiso   1.00
Cu264  Cu    0.16667   0.75000   0.20178   0.00000  Uiso   1.00
H265   H     0.09731   0.53164   0.28259   0.00000  Uiso   1.00
H266   H     0.10549   0.86500   0.32723   0.00000  Uiso   1.00
H267   H     0.17231   0.87176   0.35697   0.00000  Uiso   1.00
H268   H     0.12700   0.91388   0.36288   0.00000  Uiso   1.00
H269   H     0.23391   0.52976   0.21344   0.00000  Uiso   1.00
H270   H     0.14650   0.97486   0.32159   0.00000  Uiso   1.00
H271   H     0.19597   0.81697   0.04188   0.00000  Uiso   1.00
H272   H     0.08807   0.72533   0.45241   0.00000  Uiso   1.00
H273   H     0.20118   0.81427   0.13027   0.00000  Uiso   1.00
H274   H     0.09126   0.72093   0.36493   0.00000  Uiso   1.00
H275   H     0.09375   0.68945   0.14803   0.00000  Uiso   1.00
H276   H     0.18385   0.96718   0.17666   0.00000  Uiso   1.00
H277   H     0.08129   0.66652   0.08975   0.00000  Uiso   1.00
H278   H     0.13777   0.64935   0.12875   0.00000  Uiso   1.00
H279   H     0.23719   0.81242   0.35171   0.00000  Uiso   1.00
H280   H     0.26322   0.82371   0.41179   0.00000  Uiso   1.00
H281   H     0.28456   0.77559   0.38211   0.00000  Uiso   1.00
H282   H     0.09873   0.66316   0.00729   0.00000  Uiso   1.00
H283   H     0.16288   0.66592   0.49052   0.00000  Uiso   1.00
H284   H     0.15356   0.64004   0.04451   0.00000  Uiso   1.00
H285   H     0.26857   0.80766   0.49656   0.00000  Uiso   1.00
H286   H     0.26504   0.75282   0.02025   0.00000  Uiso   1.00
H287   H     0.09993   0.61215   0.28366   0.00000  Uiso   1.00
H288   H     0.29528   0.76069   0.46861   0.00000  Uiso   1.00
H289   H     0.18518   0.88749   0.17919   0.00000  Uiso   1.00
H290   H     0.32520   0.74947   0.19373   0.00000  Uiso   1.00
H291   H     0.00809   0.75022   0.30629   0.00000  Uiso   1.00
H292   H     0.26921   0.64151   0.23436   0.00000  Uiso   1.00
H293   H     0.27637   0.59451   0.19537   0.00000  Uiso   1.00
H294   H     0.23161   0.63605   0.17424   0.00000  Uiso   1.00
N295   N     0.16667   0.75001   0.12934   0.00000  Uiso   1.00
N296   N     0.16667   0.74999   0.37065   0.00000  Uiso   1.00
O297   O     0.16667   0.68572   0.29071   0.00000  Uiso   1.00
O298   O     0.16666   0.81427   0.20928   0.00000  Uiso   1.00
O299   O     0.16667   0.68573   0.20928   0.00000  Uiso   1.00
O300   O     0.16666   0.81427   0.29072   0.00000  Uiso   1.00
O301   O     0.09161   0.74999   0.28132   0.00000  Uiso   1.00
O302   O     0.24172   0.75000   0.21868   0.00000  Uiso   1.00
O303   O     0.09161   0.75000   0.19989   0.00000  Uiso   1.00
O304   O     0.24172   0.75000   0.30011   0.00000  Uiso   1.00
C305   C     0.50058   0.66524   0.24941   0.00000  Uiso   1.00
C306   C     0.54483   0.76362   0.45366   0.00000  Uiso   1.00
C307   C     0.49982   0.74961   0.02717   0.00000  Uiso   1.00
C308   C     0.50039   0.75010   0.47284   0.00000  Uiso   1.00
C309   C     0.40121   0.74985   0.23742   0.00000  Uiso   1.00
C310   C     0.59879   0.75001   0.26258   0.00000  Uiso   1.00
C311   C     0.34571   0.74972   0.23066   0.00000  Uiso   1.00
C312   C     0.65427   0.74997   0.26935   0.00000  Uiso   1.00
C313   C     0.46127   0.54862   0.26766   0.00000  Uiso   1.00
C314   C     0.50931   0.95145   0.20925   0.00000  Uiso   1.00
C315   C     0.46256   0.59443   0.26807   0.00000  Uiso   1.00
C316   C     0.49933   0.83517   0.25067   0.00000  Uiso   1.00
C317   C     0.50956   0.90574   0.21068   0.00000  Uiso   1.00
C318   C     0.50079   0.61728   0.24788   0.00000  Uiso   1.00
C319   C     0.49855   0.88387   0.25187   0.00000  Uiso   1.00
C320   C     0.53869   0.59408   0.22730   0.00000  Uiso   1.00
C321   C     0.48668   0.90917   0.29233   0.00000  Uiso   1.00
C322   C     0.53751   0.54790   0.22785   0.00000  Uiso   1.00
C323   C     0.48746   0.95529   0.29045   0.00000  Uiso   1.00
C324   C     0.49894   0.52503   0.24794   0.00000  Uiso   1.00
C325   C     0.49854   0.97654   0.24916   0.00000  Uiso   1.00
C326   C     0.58138   0.61785   0.20665   0.00000  Uiso   1.00
C327   C     0.51662   0.78701   0.05739   0.00000  Uiso   1.00
C328   C     0.47211   0.88869   0.33727   0.00000  Uiso   1.00
C329   C     0.44690   0.67806   0.11823   0.00000  Uiso   1.00
C330   C     0.58384   0.79585   0.38555   0.00000  Uiso   1.00
C331   C     0.47391   0.66795   0.02125   0.00000  Uiso   1.00
C332   C     0.59607   0.77192   0.48671   0.00000  Uiso   1.00
C333   C     0.45654   0.73598   0.43949   0.00000  Uiso   1.00
C334   C     0.51883   0.78578   0.10815   0.00000  Uiso   1.00
C335   C     0.45802   0.73411   0.38915   0.00000  Uiso   1.00
C336   C     0.47889   0.71428   0.09979   0.00000  Uiso   1.00
C337   C     0.54174   0.76806   0.40262   0.00000  Uiso   1.00
C338   C     0.48387   0.71167   0.04963   0.00000  Uiso   1.00
Cu339  Cu    0.50000   0.74999   0.29821   0.00000  Uiso   1.00
Cu340  Cu    0.50000   0.75000   0.20178   0.00000  Uiso   1.00
H341   H     0.43064   0.53164   0.28259   0.00000  Uiso   1.00
H342   H     0.43882   0.86500   0.32723   0.00000  Uiso   1.00
H343   H     0.50564   0.87176   0.35697   0.00000  Uiso   1.00
H344   H     0.46033   0.91388   0.36288   0.00000  Uiso   1.00
H345   H     0.56725   0.52976   0.21344   0.00000  Uiso   1.00
H346   H     0.47983   0.97486   0.32159   0.00000  Uiso   1.00
H347   H     0.52930   0.81697   0.04188   0.00000  Uiso   1.00
H348   H     0.42140   0.72533   0.45241   0.00000  Uiso   1.00
H349   H     0.53452   0.81427   0.13027   0.00000  Uiso   1.00
H350   H     0.42459   0.72093   0.36493   0.00000  Uiso   1.00
H351   H     0.42709   0.68945   0.14803   0.00000  Uiso   1.00
H352   H     0.51718   0.96718   0.17666   0.00000  Uiso   1.00
H353   H     0.41462   0.66652   0.08975   0.00000  Uiso   1.00
H354   H     0.47110   0.64935   0.12875   0.00000  Uiso   1.00
H355   H     0.57052   0.81242   0.35171   0.00000  Uiso   1.00
H356   H     0.59656   0.82371   0.41179   0.00000  Uiso   1.00
H357   H     0.61789   0.77559   0.38211   0.00000  Uiso   1.00
H358   H     0.43206   0.66316   0.00729   0.00000  Uiso   1.00
H359   H     0.49622   0.66592   0.49052   0.00000  Uiso   1.00
H360   H     0.48690   0.64004   0.04451   0.00000  Uiso   1.00
H361   H     0.60191   0.80766   0.49656   0.00000  Uiso   1.00
H362   H     0.59838   0.75282   0.02025   0.00000  Uiso   1.00
H363   H     0.43326   0.61215   0.28366   0.00000  Uiso   1.00
H364   H     0.62861   0.76069   0.46861   0.00000  Uiso   1.00
H365   H     0.51851   0.88749   0.17919   0.00000  Uiso   1.00
H366   H     0.65853   0.74947   0.19373   0.00000  Uiso   1.00
H367   H     0.34143   0.75022   0.30629   0.00000  Uiso   1.00
H368   H     0.60254   0.64151   0.23436   0.00000  Uiso   1.00
H369   H     0.60970   0.59451   0.19537   0.00000  Uiso   1.00
H370   H     0.56494   0.63605   0.17424   0.00000  Uiso   1.00
N371   N     0.50000   0.75001   0.12934   0.00000  Uiso   1.00
N372   N     0.50000   0.74999   0.37065   0.00000  Uiso   1.00
O373   O     0.50000   0.68572   0.29071   0.00000  Uiso   1.00
O374   O     0.50000   0.81427   0.20928   0.00000  Uiso   1.00
O375   O     0.50000   0.68573   0.20928   0.00000  Uiso   1.00
O376   O     0.50000   0.81427   0.29072   0.00000  Uiso   1.00
O377   O     0.42495   0.74999   0.28132   0.00000  Uiso   1.00
O378   O     0.57505   0.75000   0.21868   0.00000  Uiso   1.00
O379   O     0.42495   0.75000   0.19989   0.00000  Uiso   1.00
O380   O     0.57505   0.75000   0.30011   0.00000  Uiso   1.00
C381   C     0.83391   0.66524   0.24941   0.00000  Uiso   1.00
C382   C     0.87817   0.76362   0.45366   0.00000  Uiso   1.00
C383   C     0.83316   0.74961   0.02717   0.00000  Uiso   1.00
C384   C     0.83372   0.75010   0.47284   0.00000  Uiso   1.00
C385   C     0.73454   0.74985   0.23742   0.00000  Uiso   1.00
C386   C     0.93212   0.75001   0.26258   0.00000  Uiso   1.00
C387   C     0.67904   0.74972   0.23066   0.00000  Uiso   1.00
C388   C     0.98760   0.74997   0.26935   0.00000  Uiso   1.00
C389   C     0.79460   0.54862   0.26766   0.00000  Uiso   1.00
C390   C     0.84264   0.95145   0.20925   0.00000  Uiso   1.00
C391   C     0.79590   0.59443   0.26807   0.00000  Uiso   1.00
C392   C     0.83266   0.83517   0.25067   0.00000  Uiso   1.00
C393   C     0.84289   0.90574   0.21068   0.00000  Uiso   1.00
C394   C     0.83412   0.61728   0.24788   0.00000  Uiso   1.00
C395   C     0.83188   0.88387   0.25187   0.00000  Uiso   1.00
C396   C     0.87202   0.59408   0.22730   0.00000  Uiso   1.00
C397   C     0.82001   0.90917   0.29233   0.00000  Uiso   1.00
C398   C     0.87084   0.54790   0.22785   0.00000  Uiso   1.00
C399   C     0.82080   0.95529   0.29045   0.00000  Uiso   1.00
C400   C     0.83227   0.52503   0.24794   0.00000  Uiso   1.00
C401   C     0.83187   0.97654   0.24916   0.00000  Uiso   1.00
C402   C     0.91472   0.61785   0.20665   0.00000  Uiso   1.00
C403   C     0.84995   0.78701   0.05739   0.00000  Uiso   1.00
C404   C     0.80544   0.88869   0.33727   0.00000  Uiso   1.00
C405   C     0.78024   0.67806   0.11823   0.00000  Uiso   1.00
C406   C     0.91717   0.79585   0.38555   0.00000  Uiso   1.00
C407   C     0.80724   0.66795   0.02125   0.00000  Uiso   1.00
C408   C     0.92940   0.77192   0.48671   0.00000  Uiso   1.00
C409   C     0.78987   0.73598   0.43949   0.00000  Uiso   1.00
C410   C     0.85216   0.78578   0.10815   0.00000  Uiso   1.00
C411   C     0.79135   0.73411   0.38915   0.00000  Uiso   1.00
C412   C     0.81222   0.71428   0.09979   0.00000  Uiso   1.00
C413   C     0.87507   0.76806   0.40262   0.00000  Uiso   1.00
C414   C     0.81720   0.71167   0.04963   0.00000  Uiso   1.00
Cu415  Cu    0.83333   0.74999   0.29821   0.00000  Uiso   1.00
Cu416  Cu    0.83333   0.75000   0.20178   0.00000  Uiso   1.00
H417   H     0.76397   0.53164   0.28259   0.00000  Uiso   1.00
H418   H     0.77215   0.86500   0.32723   0.00000  Uiso   1.00
H419   H     0.83898   0.87176   0.35697   0.00000  Uiso   1.00
H420   H     0.79366   0.91388   0.36288   0.00000  Uiso   1.00
H421   H     0.90058   0.52976   0.21344   0.00000  Uiso   1.00
H422   H     0.81316   0.97486   0.32159   0.00000  Uiso   1.00
H423   H     0.86264   0.81697   0.04188   0.00000  Uiso   1.00
H424   H     0.75474   0.72533   0.45241   0.00000  Uiso   1.00
H425   H     0.86785   0.81427   0.13027   0.00000  Uiso   1.00
H426   H     0.75793   0.72093   0.36493   0.00000  Uiso   1.00
H427   H     0.76042   0.68945   0.14803   0.00000  Uiso   1.00
H428   H     0.85051   0.96718   0.17666   0.00000  Uiso   1.00
H429   H     0.74795   0.66652   0.08975   0.00000  Uiso   1.00
H430   H     0.80443   0.64935   0.12875   0.00000  Uiso   1.00
H431   H     0.90386   0.81242   0.35171   0.00000  Uiso   1.00
H432   H     0.92989   0.82371   0.41179   0.00000  Uiso   1.00
H433   H     0.95123   0.77559   0.38211   0.00000  Uiso   1.00
H434   H     0.76539   0.66316   0.00729   0.00000  Uiso   1.00
H435   H     0.82955   0.66592   0.49052   0.00000  Uiso   1.00
H436   H     0.82023   0.64004   0.04451   0.00000  Uiso   1.00
H437   H     0.93524   0.80766   0.49656   0.00000  Uiso   1.00
H438   H     0.93171   0.75282   0.02025   0.00000  Uiso   1.00
H439   H     0.76659   0.61215   0.28366   0.00000  Uiso   1.00
H440   H     0.96195   0.76069   0.46861   0.00000  Uiso   1.00
H441   H     0.85185   0.88749   0.17919   0.00000  Uiso   1.00
H442   H     0.99187   0.74947   0.19373   0.00000  Uiso   1.00
H443   H     0.67476   0.75022   0.30629   0.00000  Uiso   1.00
H444   H     0.93587   0.64151   0.23436   0.00000  Uiso   1.00
H445   H     0.94304   0.59451   0.19537   0.00000  Uiso   1.00
H446   H     0.89827   0.63605   0.17424   0.00000  Uiso   1.00
N447   N     0.83333   0.75001   0.12934   0.00000  Uiso   1.00
N448   N     0.83333   0.74999   0.37065   0.00000  Uiso   1.00
O449   O     0.83334   0.68572   0.29071   0.00000  Uiso   1.00
O450   O     0.83333   0.81427   0.20928   0.00000  Uiso   1.00
O451   O     0.83334   0.68573   0.20928   0.00000  Uiso   1.00
O452   O     0.83333   0.81427   0.29072   0.00000  Uiso   1.00
O453   O     0.75828   0.74999   0.28132   0.00000  Uiso   1.00
O454   O     0.90839   0.75000   0.21868   0.00000  Uiso   1.00
O455   O     0.75828   0.75000   0.19989   0.00000  Uiso   1.00
O456   O     0.90839   0.75000   0.30011   0.00000  Uiso   1.00
C457   C     0.16724   0.16524   0.74941   0.00000  Uiso   1.00
C458   C     0.21150   0.26362   0.95366   0.00000  Uiso   1.00
C459   C     0.16649   0.24961   0.52717   0.00000  Uiso   1.00
C460   C     0.16706   0.25010   0.97284   0.00000  Uiso   1.00
C461   C     0.06787   0.24985   0.73742   0.00000  Uiso   1.00
C462   C     0.26545   0.25001   0.76258   0.00000  Uiso   1.00
C463   C     0.01238   0.24972   0.73066   0.00000  Uiso   1.00
C464   C     0.32094   0.24997   0.76935   0.00000  Uiso   1.00
C465   C     0.12794   0.04862   0.76766   0.00000  Uiso   1.00
C466   C     0.17598   0.45145   0.70925   0.00000  Uiso   1.00
C467   C     0.12923   0.09443   0.76807   0.00000  Uiso   1.00
C468   C     0.16600   0.33517   0.75067   0.00000  Uiso   1.00
C469   C     0.17622   0.40574   0.71068   0.00000  Uiso   1.00
C470   C     0.16746   0.11728   0.74788   0.00000  Uiso   1.00
C471   C     0.16522   0.38387   0.75187   0.00000  Uiso   1.00
C472   C     0.20536   0.09408   0.72730   0.00000  Uiso   1.00
C473   C     0.15334   0.40917   0.79233   0.00000  Uiso   1.00
C474   C     0.20417   0.04790   0.72785   0.00000  Uiso   1.00
C475   C     0.15413   0.45529   0.79045   0.00000  Uiso   1.00
C476   C     0.16561   0.02503   0.74794   0.00000  Uiso   1.00
C477   C     0.16521   0.47654   0.74916   0.00000  Uiso   1.00
C478   C     0.24805   0.11785   0.70665   0.00000  Uiso   1.00
C479   C     0.18329   0.28701   0.55739   0.00000  Uiso   1.00
C480   C     0.13878   0.38869   0.83727   0.00000  Uiso   1.00
C481   C     0.11357   0.17806   0.61823   0.00000  Uiso   1.00
C482   C     0.25051   0.29585   0.88555   0.00000  Uiso   1.00
C483   C     0.14057   0.16795   0.52125   0.00000  Uiso   1.00
C484   C     0.26274   0.27192   0.98671   0.00000  Uiso   1.00
C485   C     0.12321   0.23598   0.93949   0.00000  Uiso   1.00
C486   C     0.18549   0.28578   0.60815   0.00000  Uiso   1.00
C487   C     0.12468   0.23411   0.88915   0.00000  Uiso   1.00
C488   C     0.14555   0.21428   0.59979   0.00000  Uiso   1.00
C489   C     0.20841   0.26806   0.90262   0.00000  Uiso   1.00
C490   C     0.15053   0.21167   0.54963   0.00000  Uiso   1.00
Cu491  Cu    0.16667   0.24999   0.79821   0.00000  Uiso   1.00
Cu492  Cu    0.16667   0.25000   0.70178   0.00000  Uiso   1.00
H493   H     0.09731   0.03164   0.78259   0.00000  Uiso   1.00
H494   H     0.10549   0.36500   0.82723   0.00000  Uiso   1.00
H495   H     0.17231   0.37176   0.85697   0.00000  Uiso   1.00
H496   H     0.12700   0.41388   0.86288   0.00000  Uiso   1.00
H497   H     0.23391   0.02976   0.71344   0.00000  Uiso   1.00
H498   H     0.14650   0.47486   0.82159   0.00000  Uiso   1.00
H499   H     0.19597   0.31697   0.54188   0.00000  Uiso   1.00
H500   H     0.08807   0.22533   0.95241   0.00000  Uiso   1.00
H501   H     0.20118   0.31427   0.63027   0.00000  Uiso   1.00
H502   H     0.09126   0.22093   0.86493   0.00000  Uiso   1.00
H503   H     0.09375   0.18945   0.64803   0.00000  Uiso   1.00
H504   H     0.18385   0.46718   0.67666   0.00000  Uiso   1.00
H505   H     0.08129   0.16652   0.58975   0.00000  Uiso   1.00
H506   H     0.13777   0.14935   0.62875   0.00000  Uiso   1.00
H507   H     0.23719   0.31242   0.85171   0.00000  Uiso   1.00
H508   H     0.26322   0.32371   0.91179   0.00000  Uiso   1.00
H509   H     0.28456   0.27559   0.88211   0.00000  Uiso   1.00
H510   H     0.09873   0.16316   0.50729   0.00000  Uiso   1.00
H511   H     0.16288   0.16592   0.99052   0.00000  Uiso   1.00
H512   H     0.15356   0.14004   0.54451   0.00000  Uiso   1.00
H513   H     0.26857   0.30766   0.99656   0.00000  Uiso   1.00
H514   H     0.26504   0.25282   0.52025   0.00000  Uiso   1.00
H515   H     0.09993   0.11215   0.78366   0.00000  Uiso   1.00
H516   H     0.29528   0.26069   0.96861   0.00000  Uiso   1.00
H517   H     0.18518   0.38749   0.67919   0.00000  Uiso   1.00
H518   H     0.32520   0.24947   0.69373   0.00000  Uiso   1.00
H519   H     0.00809   0.25022   0.80629   0.00000  Uiso   1.00
H520   H     0.26921   0.14151   0.73436   0.00000  Uiso   1.00
H521   H     0.27637   0.09451   0.69537   0.00000  Uiso   1.00
H522   H     0.23161   0.13605   0.67424   0.00000  Uiso   1.00
N523   N     0.16667   0.25001   0.62934   0.00000  Uiso   1.00
N524   N     0.16667   0.24999   0.87065   0.00000  Uiso   1.00
O525   O     0.16667   0.18572   0.79071   0.00000  Uiso   1.00
O526   O     0.16666   0.31427   0.70928   0.00000  Uiso   1.00
O527   O     0.16667   0.18573   0.70928   0.00000  Uiso   1.00
O528   O     0.16666   0.31427   0.79072   0.00000  Uiso   1.00
O529   O     0.09161   0.24999   0.78132   0.00000  Uiso   1.00
O530   O     0.24172   0.25000   0.71868   0.00000  Uiso   1.00
O531   O     0.09161   0.25000   0.69989   0.00000  Uiso   1.00
O532   O     0.24172   0.25000   0.80011   0.00000  Uiso   1.00
C533   C     0.50058   0.16524   0.74941   0.00000  Uiso   1.00
C534   C     0.54483   0.26362   0.95366   0.00000  Uiso   1.00
C535   C     0.49982   0.24961   0.52717   0.00000  Uiso   1.00
C536   C     0.50039   0.25010   0.97284   0.00000  Uiso   1.00
C537   C     0.40121   0.24985   0.73742   0.00000  Uiso   1.00
C538   C     0.59879   0.25001   0.76258   0.00000  Uiso   1.00
C539   C     0.34571   0.24972   0.73066   0.00000  Uiso   1.00
C540   C     0.65427   0.24997   0.76935   0.00000  Uiso   1.00
C541   C     0.46127   0.04862   0.76766   0.00000  Uiso   1.00
C542   C     0.50931   0.45145   0.70925   0.00000  Uiso   1.00
C543   C     0.46256   0.09443   0.76807   0.00000  Uiso   1.00
C544   C     0.49933   0.33517   0.75067   0.00000  Uiso   1.00
C545   C     0.50956   0.40574   0.71068   0.00000  Uiso   1.00
C546   C     0.50079   0.11728   0.74788   0.00000  Uiso   1.00
C547   C     0.49855   0.38387   0.75187   0.00000  Uiso   1.00
C548   C     0.53869   0.09408   0.72730   0.00000  Uiso   1.00
C549   C     0.48668   0.40917   0.79233   0.00000  Uiso   1.00
C550   C     0.53751   0.04790   0.72785   0.00000  Uiso   1.00
C551   C     0.48746   0.45529   0.79045   0.00000  Uiso   1.00
C552   C     0.49894   0.02503   0.74794   0.00000  Uiso   1.00
C553   C     0.49854   0.47654   0.74916   0.00000  Uiso   1.00
C554   C     0.58138   0.11785   0.70665   0.00000  Uiso   1.00
C555   C     0.51662   0.28701   0.55739   0.00000  Uiso   1.00
C556   C     0.47211   0.38869   0.83727   0.00000  Uiso   1.00
C557   C     0.44690   0.17806   0.61823   0.00000  Uiso   1.00
C558   C     0.58384   0.29585   0.88555   0.00000  Uiso   1.00
C559   C     0.47391   0.16795   0.52125   0.00000  Uiso   1.00
C560   C     0.59607   0.27192   0.98671   0.00000  Uiso   1.00
C561   C     0.45654   0.23598   0.93949   0.00000  Uiso   1.00
C562   C     0.51883   0.28578   0.60815   0.00000  Uiso   1.00
C563   C     0.45802   0.23411   0.88915   0.00000  Uiso   1.00
C564   C     0.47889   0.21428   0.59979   0.00000  Uiso   1.00
C565   C     0.54174   0.26806   0.90262   0.00000  Uiso   1.00
C566   C     0.48387   0.21167   0.54963   0.00000  Uiso   1.00
Cu567  Cu    0.50000   0.24999   0.79821   0.00000  Uiso   1.00
Cu568  Cu    0.50000   0.25000   0.70178   0.00000  Uiso   1.00
H569   H     0.43064   0.03164   0.78259   0.00000  Uiso   1.00
H570   H     0.43882   0.36500   0.82723   0.00000  Uiso   1.00
H571   H     0.50564   0.37176   0.85697   0.00000  Uiso   1.00
H572   H     0.46033   0.41388   0.86288   0.00000  Uiso   1.00
H573   H     0.56725   0.02976   0.71344   0.00000  Uiso   1.00
H574   H     0.47983   0.47486   0.82159   0.00000  Uiso   1.00
H575   H     0.52930   0.31697   0.54188   0.00000  Uiso   1.00
H576   H     0.42140   0.22533   0.95241   0.00000  Uiso   1.00
H577   H     0.53452   0.31427   0.63027   0.00000  Uiso   1.00
H578   H     0.42459   0.22093   0.86493   0.00000  Uiso   1.00
H579   H     0.42709   0.18945   0.64803   0.00000  Uiso   1.00
H580   H     0.51718   0.46718   0.67666   0.00000  Uiso   1.00
H581   H     0.41462   0.16652   0.58975   0.00000  Uiso   1.00
H582   H     0.47110   0.14935   0.62875   0.00000  Uiso   1.00
H583   H     0.57052   0.31242   0.85171   0.00000  Uiso   1.00
H584   H     0.59656   0.32371   0.91179   0.00000  Uiso   1.00
H585   H     0.61789   0.27559   0.88211   0.00000  Uiso   1.00
H586   H     0.43206   0.16316   0.50729   0.00000  Uiso   1.00
H587   H     0.49622   0.16592   0.99052   0.00000  Uiso   1.00
H588   H     0.48690   0.14004   0.54451   0.00000  Uiso   1.00
H589   H     0.60191   0.30766   0.99656   0.00000  Uiso   1.00
H590   H     0.59838   0.25282   0.52025   0.00000  Uiso   1.00
H591   H     0.43326   0.11215   0.78366   0.00000  Uiso   1.00
H592   H     0.62861   0.26069   0.96861   0.00000  Uiso   1.00
H593   H     0.51851   0.38749   0.67919   0.00000  Uiso   1.00
H594   H     0.65853   0.24947   0.69373   0.00000  Uiso   1.00
H595   H     0.34143   0.25022   0.80629   0.00000  Uiso   1.00
H596   H     0.60254   0.14151   0.73436   0.00000  Uiso   1.00
H597   H     0.60970   0.09451   0.69537   0.00000  Uiso   1.00
H598   H     0.56494   0.13605   0.67424   0.00000  Uiso   1.00
N599   N     0.50000   0.25001   0.62934   0.00000  Uiso   1.00
N600   N     0.50000   0.24999   0.87065   0.00000  Uiso   1.00
O601   O     0.50000   0.18572   0.79071   0.00000  Uiso   1.00
O602   O     0.50000   0.31427   0.70928   0.00000  Uiso   1.00
O603   O     0.50000   0.18573   0.70928   0.00000  Uiso   1.00
O604   O     0.50000   0.31427   0.79072   0.00000  Uiso   1.00
O605   O     0.42495   0.24999   0.78132   0.00000  Uiso   1.00
O606   O     0.57505   0.25000   0.71868   0.00000  Uiso   1.00
O607   O     0.42495   0.25000   0.69989   0.00000  Uiso   1.00
O608   O     0.57505   0.25000   0.80011   0.00000  Uiso   1.00
C609   C     0.83391   0.16524   0.74941   0.00000  Uiso   1.00
C610   C     0.87817   0.26362   0.95366   0.00000  Uiso   1.00
C611   C     0.83316   0.24961   0.52717   0.00000  Uiso   1.00
C612   C     0.83372   0.25010   0.97284   0.00000  Uiso   1.00
C613   C     0.73454   0.24985   0.73742   0.00000  Uiso   1.00
C614   C     0.93212   0.25001   0.76258   0.00000  Uiso   1.00
C615   C     0.67904   0.24972   0.73066   0.00000  Uiso   1.00
C616   C     0.98760   0.24997   0.76935   0.00000  Uiso   1.00
C617   C     0.79460   0.04862   0.76766   0.00000  Uiso   1.00
C618   C     0.84264   0.45145   0.70925   0.00000  Uiso   1.00
C619   C     0.79590   0.09443   0.76807   0.00000  Uiso   1.00
C620   C     0.83266   0.33517   0.75067   0.00000  Uiso   1.00
C621   C     0.84289   0.40574   0.71068   0.00000  Uiso   1.00
C622   C     0.83412   0.11728   0.74788   0.00000  Uiso   1.00
C623   C     0.83188   0.38387   0.75187   0.00000  Uiso   1.00
C624   C     0.87202   0.09408   0.72730   0.00000  Uiso   1.00
C625   C     0.82001   0.40917   0.79233   0.00000  Uiso   1.00
C626   C     0.87084   0.04790   0.72785   0.00000  Uiso   1.00
C627   C     0.82080   0.45529   0.79045   0.00000  Uiso   1.00
C628   C     0.83227   0.02503   0.74794   0.00000  Uiso   1.00
C629   C     0.83187   0.47654   0.74916   0.00000  Uiso   1.00
C630   C     0.91472   0.11785   0.70665   0.00000  Uiso   1.00
C631   C     0.84995   0.28701   0.55739   0.00000  Uiso   1.00
C632   C     0.80544   0.38869   0.83727   0.00000  Uiso   1.00
C633   C     0.78024   0.17806   0.61823   0.00000  Uiso   1.00
C634   C     0.91717   0.29585   0.88555   0.00000  Uiso   1.00
C635   C     0.80724   0.16795   0.52125   0.00000  Uiso   1.00
C636   C     0.92940   0.27192   0.98671   0.00000  Uiso   1.00
C637   C     0.78987   0.23598   0.93949   0.00000  Uiso   1.00
C638   C     0.85216   0.28578   0.60815   0.00000  Uiso   1.00
C639   C     0.79135   0.23411   0.88915   0.00000  Uiso   1.00
C640   C     0.81222   0.21428   0.59979   0.00000  Uiso   1.00
C641   C     0.87507   0.26806   0.90262   0.00000  Uiso   1.00
C642   C     0.81720   0.21167   0.54963   0.00000  Uiso   1.00
Cu643  Cu    0.83333   0.24999   0.79821   0.00000  Uiso   1.00
Cu644  Cu    0.83333   0.25000   0.70178   0.00000  Uiso   1.00
H645   H     0.76397   0.03164   0.78259   0.00000  Uiso   1.00
H646   H     0.77215   0.36500   0.82723   0.00000  Uiso   1.00
H647   H     0.83898   0.37176   0.85697   0.00000  Uiso   1.00
H648   H     0.79366   0.41388   0.86288   0.00000  Uiso   1.00
H649   H     0.90058   0.02976   0.71344   0.00000  Uiso   1.00
H650   H     0.81316   0.47486   0.82159   0.00000  Uiso   1.00
H651   H     0.86264   0.31697   0.54188   0.00000  Uiso   1.00
H652   H     0.75474   0.22533   0.95241   0.00000  Uiso   1.00
H653   H     0.86785   0.31427   0.63027   0.00000  Uiso   1.00
H654   H     0.75793   0.22093   0.86493   0.00000  Uiso   1.00
H655   H     0.76042   0.18945   0.64803   0.00000  Uiso   1.00
H656   H     0.85051   0.46718   0.67666   0.00000  Uiso   1.00
H657   H     0.74795   0.16652   0.58975   0.00000  Uiso   1.00
H658   H     0.80443   0.14935   0.62875   0.00000  Uiso   1.00
H659   H     0.90386   0.31242   0.85171   0.00000  Uiso   1.00
H660   H     0.92989   0.32371   0.91179   0.00000  Uiso   1.00
H661   H     0.95123   0.27559   0.88211   0.00000  Uiso   1.00
H662   H     0.76539   0.16316   0.50729   0.00000  Uiso   1.00
H663   H     0.82955   0.16592   0.99052   0.00000  Uiso   1.00
H664   H     0.82023   0.14004   0.54451   0.00000  Uiso   1.00
H665   H     0.93524   0.30766   0.99656   0.00000  Uiso   1.00
H666   H     0.93171   0.25282   0.52025   0.00000  Uiso   1.00
H667   H     0.76659   0.11215   0.78366   0.00000  Uiso   1.00
H668   H     0.96195   0.26069   0.96861   0.00000  Uiso   1.00
H669   H     0.85185   0.38749   0.67919   0.00000  Uiso   1.00
H670   H     0.99187   0.24947   0.69373   0.00000  Uiso   1.00
H671   H     0.67476   0.25022   0.80629   0.00000  Uiso   1.00
H672   H     0.93587   0.14151   0.73436   0.00000  Uiso   1.00
H673   H     0.94304   0.09451   0.69537   0.00000  Uiso   1.00
H674   H     0.89827   0.13605   0.67424   0.00000  Uiso   1.00
N675   N     0.83333   0.25001   0.62934   0.00000  Uiso   1.00
N676   N     0.83333   0.24999   0.87065   0.00000  Uiso   1.00
O677   O     0.83334   0.18572   0.79071   0.00000  Uiso   1.00
O678   O     0.83333   0.31427   0.70928   0.00000  Uiso   1.00
O679   O     0.83334   0.18573   0.70928   0.00000  Uiso   1.00
O680   O     0.83333   0.31427   0.79072   0.00000  Uiso   1.00
O681   O     0.75828   0.24999   0.78132   0.00000  Uiso   1.00
O682   O     0.90839   0.25000   0.71868   0.00000  Uiso   1.00
O683   O     0.75828   0.25000   0.69989   0.00000  Uiso   1.00
O684   O     0.90839   0.25000   0.80011   0.00000  Uiso   1.00
C685   C     0.16724   0.66524   0.74941   0.00000  Uiso   1.00
C686   C     0.21150   0.76362   0.95366   0.00000  Uiso   1.00
C687   C     0.16649   0.74961   0.52717   0.00000  Uiso   1.00
C688   C     0.16706   0.75010   0.97284   0.00000  Uiso   1.00
C689   C     0.06787   0.74985   0.73742   0.00000  Uiso   1.00
C690   C     0.26545   0.75001   0.76258   0.00000  Uiso   1.00
C691   C     0.01238   0.74972   0.73066   0.00000  Uiso   1.00
C692   C     0.32094   0.74997   0.76935   0.00000  Uiso   1.00
C693   C     0.12794   0.54862   0.76766   0.00000  Uiso   1.00
C694   C     0.17598   0.95145   0.70925   0.00000  Uiso   1.00
C695   C     0.12923   0.59443   0.76807   0.00000  Uiso   1.00
C696   C     0.16600   0.83517   0.75067   0.00000  Uiso   1.00
C697   C     0.17622   0.90574   0.71068   0.00000  Uiso   1.00
C698   C     0.16746   0.61728   0.74788   0.00000  Uiso   1.00
C699   C     0.16522   0.88387   0.75187   0.00000  Uiso   1.00
C700   C     0.20536   0.59408   0.72730   0.00000  Uiso   1.00
C701   C     0.15334   0.90917   0.79233   0.00000  Uiso   1.00
C702   C     0.20417   0.54790   0.72785   0.00000  Uiso   1.00
C703   C     0.15413   0.95529   0.79045   0.00000  Uiso   1.00
C704   C     0.16561   0.52503   0.74794   0.00000  Uiso   1.00
C705   C     0.16521   0.97654   0.74916   0.00000  Uiso   1.00
C706   C     0.24805   0.61785   0.70665   0.00000  Uiso   1.00
C707   C     0.18329   0.78701   0.55739   0.00000  Uiso   1.00
C708   C     0.13878   0.88869   0.83727   0.00000  Uiso   1.00
C709   C     0.11357   0.67806   0.61823   0.00000  Uiso   1.00
C710   C     0.25051   0.79585   0.88555   0.00000  Uiso   1.00
C711   C     0.14057   0.66795   0.52125   0.00000  Uiso   1.00
C712   C     0.26274   0.77192   0.98671   0.00000  Uiso   1.00
C713   C     0.12321   0.73598   0.93949   0.00000  Uiso   1.00
C714   C     0.18549   0.78578   0.60815   0.00000  Uiso   1.00
C715   C     0.12468   0.73411   0.88915   0.00000  Uiso   1.00
C716   C     0.14555   0.71428   0.59979   0.00000  Uiso   1.00
C717   C     0.20841   0.76806   0.90262   0.00000  Uiso   1.00
C718   C     0.15053   0.71167   0.54963   0.00000  Uiso   1.00
Cu719  Cu    0.16667   0.74999   0.79821   0.00000  Uiso   1.00
Cu720  Cu    0.16667   0.75000   0.70178   0.00000  Uiso   1.00
H721   H     0.09731   0.53164   0.78259   0.00000  Uiso   1.00
H722   H     0.10549   0.86500   0.82723   0.00000  Uiso   1.00
H723   H     0.17231   0.87176   0.85697   0.00000  Uiso   1.00
H724   H     0.12700   0.91388   0.86288   0.00000  Uiso   1.00
H725   H     0.23391   0.52976   0.71344   0.00000  Uiso   1.00
H726   H     0.14650   0.97486   0.82159   0.00000  Uiso   1.00
H727   H     0.19597   0.81697   0.54188   0.00000  Uiso   1.00
H728   H     0.08807   0.72533   0.95241   0.00000  Uiso   1.00
H729   H     0.20118   0.81427   0.63027   0.00000  Uiso   1.00
H730   H     0.09126   0.72093   0.86493   0.00000  Uiso   1.00
H731   H     0.09375   0.68945   0.64803   0.00000  Uiso   1.00
H732   H     0.18385   0.96718   0.67666   0.00000  Uiso   1.00
H733   H     0.08129   0.66652   0.58975   0.00000  Uiso   1.00
H734   H     0.13777   0.64935   0.62875   0.00000  Uiso   1.00
H735   H     0.23719   0.81242   0.85171   0.00000  Uiso   1.00
H736   H     0.26322   0.82371   0.91179   0.00000  Uiso   1.00
H737   H     0.28456   0.77559   0.88211   0.00000  Uiso   1.00
H738   H     0.09873   0.66316   0.50729   0.00000  Uiso   1.00
H739   H     0.16288   0.66592   0.99052   0.00000  Uiso   1.00
H740   H     0.15356   0.64004   0.54451   0.00000  Uiso   1.00
H741   H     0.26857   0.80766   0.99656   0.00000  Uiso   1.00
H742   H     0.26504   0.75282   0.52025   0.00000  Uiso   1.00
H743   H     0.09993   0.61215   0.78366   0.00000  Uiso   1.00
H744   H     0.29528   0.76069   0.96861   0.00000  Uiso   1.00
H745   H     0.18518   0.88749   0.67919   0.00000  Uiso   1.00
H746   H     0.32520   0.74947   0.69373   0.00000  Uiso   1.00
H747   H     0.00809   0.75022   0.80629   0.00000  Uiso   1.00
H748   H     0.26921   0.64151   0.73436   0.00000  Uiso   1.00
H749   H     0.27637   0.59451   0.69537   0.00000  Uiso   1.00
H750   H     0.23161   0.63605   0.67424   0.00000  Uiso   1.00
N751   N     0.16667   0.75001   0.62934   0.00000  Uiso   1.00
N752   N     0.16667   0.74999   0.87065   0.00000  Uiso   1.00
O753   O     0.16667   0.68572   0.79071   0.00000  Uiso   1.00
O754   O     0.16666   0.81427   0.70928   0.00000  Uiso   1.00
O755   O     0.16667   0.68573   0.70928   0.00000  Uiso   1.00
O756   O     0.16666   0.81427   0.79072   0.00000  Uiso   1.00
O757   O     0.09161   0.74999   0.78132   0.00000  Uiso   1.00
O758   O     0.24172   0.75000   0.71868   0.00000  Uiso   1.00
O759   O     0.09161   0.75000   0.69989   0.00000  Uiso   1.00
O760   O     0.24172   0.75000   0.80011   0.00000  Uiso   1.00
C761   C     0.50058   0.66524   0.74941   0.00000  Uiso   1.00
C762   C     0.54483   0.76362   0.95366   0.00000  Uiso   1.00
C763   C     0.49982   0.74961   0.52717   0.00000  Uiso   1.00
C764   C     0.50039   0.75010   0.97284   0.00000  Uiso   1.00
C765   C     0.40121   0.74985   0.73742   0.00000  Uiso   1.00
C766   C     0.59879   0.75001   0.76258   0.00000  Uiso   1.00
C767   C     0.34571   0.74972   0.73066   0.00000  Uiso   1.00
C768   C     0.65427   0.74997   0.76935   0.00000  Uiso   1.00
C769   C     0.46127   0.54862   0.76766   0.00000  Uiso   1.00
C770   C     0.50931   0.95145   0.70925   0.00000  Uiso   1.00
C771   C     0.46256   0.59443   0.76807   0.00000  Uiso   1.00
C772   C     0.49933   0.83517   0.75067   0.00000  Uiso   1.00
C773   C     0.50956   0.90574   0.71068   0.00000  Uiso   1.00
C774   C     0.50079   0.61728   0.74788   0.00000  Uiso   1.00
C775   C     0.49855   0.88387   0.75187   0.00000  Uiso   1.00
C776   C     0.53869   0.59408   0.72730   0.00000  Uiso   1.00
C777   C     0.48668   0.90917   0.79233   0.00000  Uiso   1.00
C778   C     0.53751   0.54790   0.72785   0.00000  Uiso   1.00
C779   C     0.48746   0.95529   0.79045   0.00000  Uiso   1.00
C780   C     0.49894   0.52503   0.74794   0.00000  Uiso   1.00
C781   C     0.49854   0.97654   0.74916   0.00000  Uiso   1.00
C782   C     0.58138   0.61785   0.70665   0.00000  Uiso   1.00
C783   C     0.51662   0.78701   0.55739   0.00000  Uiso   1.00
C784   C     0.47211   0.88869   0.83727   0.00000  Uiso   1.00
C785   C     0.44690   0.67806   0.61823   0.00000  Uiso   1.00
C786   C     0.58384   0.79585   0.88555   0.00000  Uiso   1.00
C787   C     0.47391   0.66795   0.52125   0.00000  Uiso   1.00
C788   C     0.59607   0.77192   0.98671   0.00000  Uiso   1.00
C789   C     0.45654   0.73598   0.93949   0.00000  Uiso   1.00
C790   C     0.51883   0.78578   0.60815   0.00000  Uiso   1.00
C791   C     0.45802   0.73411   0.88915   0.00000  Uiso   1.00
C792   C     0.47889   0.71428   0.59979   0.00000  Uiso   1.00
C793   C     0.54174   0.76806   0.90262   0.00000  Uiso   1.00
C794   C     0.48387   0.71167   0.54963   0.00000  Uiso   1.00
Cu795  Cu    0.50000   0.74999   0.79821   0.00000  Uiso   1.00
Cu796  Cu    0.50000   0.75000   0.70178   0.00000  Uiso   1.00
H797   H     0.43064   0.53164   0.78259   0.00000  Uiso   1.00
H798   H     0.43882   0.86500   0.82723   0.00000  Uiso   1.00
H799   H     0.50564   0.87176   0.85697   0.00000  Uiso   1.00
H800   H     0.46033   0.91388   0.86288   0.00000  Uiso   1.00
H801   H     0.56725   0.52976   0.71344   0.00000  Uiso   1.00
H802   H     0.47983   0.97486   0.82159   0.00000  Uiso   1.00
H803   H     0.52930   0.81697   0.54188   0.00000  Uiso   1.00
H804   H     0.42140   0.72533   0.95241   0.00000  Uiso   1.00
H805   H     0.53452   0.81427   0.63027   0.00000  Uiso   1.00
H806   H     0.42459   0.72093   0.86493   0.00000  Uiso   1.00
H807   H     0.42709   0.68945   0.64803   0.00000  Uiso   1.00
H808   H     0.51718   0.96718   0.67666   0.00000  Uiso   1.00
H809   H     0.41462   0.66652   0.58975   0.00000  Uiso   1.00
H810   H     0.47110   0.64935   0.62875   0.00000  Uiso   1.00
H811   H     0.57052   0.81242   0.85171   0.00000  Uiso   1.00
H812   H     0.59656   0.82371   0.91179   0.00000  Uiso   1.00
H813   H     0.61789   0.77559   0.88211   0.00000  Uiso   1.00
H814   H     0.43206   0.66316   0.50729   0.00000  Uiso   1.00
H815   H     0.49622   0.66592   0.99052   0.00000  Uiso   1.00
H816   H     0.48690   0.64004   0.54451   0.00000  Uiso   1.00
H817   H     0.60191   0.80766   0.99656   0.00000  Uiso   1.00
H818   H     0.59838   0.75282   0.52025   0.00000  Uiso   1.00
H819   H     0.43326   0.61215   0.78366   0.00000  Uiso   1.00
H820   H     0.62861   0.76069   0.96861   0.00000  Uiso   1.00
H821   H     0.51851   0.88749   0.67919   0.00000  Uiso   1.00
H822   H     0.65853   0.74947   0.69373   0.00000  Uiso   1.00
H823   H     0.34143   0.75022   0.80629   0.00000  Uiso   1.00
H824   H     0.60254   0.64151   0.73436   0.00000  Uiso   1.00
H825   H     0.60970   0.59451   0.69537   0.00000  Uiso   1.00
H826   H     0.56494   0.63605   0.67424   0.00000  Uiso   1.00
N827   N     0.50000   0.75001   0.62934   0.00000  Uiso   1.00
N828   N     0.50000   0.74999   0.87065   0.00000  Uiso   1.00
O829   O     0.50000   0.68572   0.79071   0.00000  Uiso   1.00
O830   O     0.50000   0.81427   0.70928   0.00000  Uiso   1.00
O831   O     0.50000   0.68573   0.70928   0.00000  Uiso   1.00
O832   O     0.50000   0.81427   0.79072   0.00000  Uiso   1.00
O833   O     0.42495   0.74999   0.78132   0.00000  Uiso   1.00
O834   O     0.57505   0.75000   0.71868   0.00000  Uiso   1.00
O835   O     0.42495   0.75000   0.69989   0.00000  Uiso   1.00
O836   O     0.57505   0.75000   0.80011   0.00000  Uiso   1.00
C837   C     0.83391   0.66524   0.74941   0.00000  Uiso   1.00
C838   C     0.87817   0.76362   0.95366   0.00000  Uiso   1.00
C839   C     0.83316   0.74961   0.52717   0.00000  Uiso   1.00
C840   C     0.83372   0.75010   0.97284   0.00000  Uiso   1.00
C841   C     0.73454   0.74985   0.73742   0.00000  Uiso   1.00
C842   C     0.93212   0.75001   0.76258   0.00000  Uiso   1.00
C843   C     0.67904   0.74972   0.73066   0.00000  Uiso   1.00
C844   C     0.98760   0.74997   0.76935   0.00000  Uiso   1.00
C845   C     0.79460   0.54862   0.76766   0.00000  Uiso   1.00
C846   C     0.84264   0.95145   0.70925   0.00000  Uiso   1.00
C847   C     0.79590   0.59443   0.76807   0.00000  Uiso   1.00
C848   C     0.83266   0.83517   0.75067   0.00000  Uiso   1.00
C849   C     0.84289   0.90574   0.71068   0.00000  Uiso   1.00
C850   C     0.83412   0.61728   0.74788   0.00000  Uiso   1.00
C851   C     0.83188   0.88387   0.75187   0.00000  Uiso   1.00
C852   C     0.87202   0.59408   0.72730   0.00000  Uiso   1.00
C853   C     0.82001   0.90917   0.79233   0.00000  Uiso   1.00
C854   C     0.87084   0.54790   0.72785   0.00000  Uiso   1.00
C855   C     0.82080   0.95529   0.79045   0.00000  Uiso   1.00
C856   C     0.83227   0.52503   0.74794   0.00000  Uiso   1.00
C857   C     0.83187   0.97654   0.74916   0.00000  Uiso   1.00
C858   C     0.91472   0.61785   0.70665   0.00000  Uiso   1.00
C859   C     0.84995   0.78701   0.55739   0.00000  Uiso   1.00
C860   C     0.80544   0.88869   0.83727   0.00000  Uiso   1.00
C861   C     0.78024   0.67806   0.61823   0.00000  Uiso   1.00
C862   C     0.91717   0.79585   0.88555   0.00000  Uiso   1.00
C863   C     0.80724   0.66795   0.52125   0.00000  Uiso   1.00
C864   C     0.92940   0.77192   0.98671   0.00000  Uiso   1.00
C865   C     0.78987   0.73598   0.93949   0.00000  Uiso   1.00
C866   C     0.85216   0.78578   0.60815   0.00000  Uiso   1.00
C867   C     0.79135   0.73411   0.88915   0.00000  Uiso   1.00
C868   C     0.81222   0.71428   0.59979   0.00000  Uiso   1.00
C869   C     0.87507   0.76806   0.90262   0.00000  Uiso   1.00
C870   C     0.81720   0.71167   0.54963   0.00000  Uiso   1.00
Cu871  Cu    0.83333   0.74999   0.79821   0.00000  Uiso   1.00
Cu872  Cu    0.83333   0.75000   0.70178   0.00000  Uiso   1.00
H873   H     0.76397   0.53164   0.78259   0.00000  Uiso   1.00
H874   H     0.77215   0.86500   0.82723   0.00000  Uiso   1.00
H875   H     0.83898   0.87176   0.85697   0.00000  Uiso   1.00
H876   H     0.79366   0.91388   0.86288   0.00000  Uiso   1.00
H877   H     0.90058   0.52976   0.71344   0.00000  Uiso   1.00
H878   H     0.81316   0.97486   0.82159   0.00000  Uiso   1.00
H879   H     0.86264   0.81697   0.54188   0.00000  Uiso   1.00
H880   H     0.75474   0.72533   0.95241   0.00000  Uiso   1.00
H881   H     0.86785   0.81427   0.63027   0.00000  Uiso   1.00
H882   H     0.75793   0.72093   0.86493   0.00000  Uiso   1.00
H883   H     0.76042   0.68945   0.64803   0.00000  Uiso   1.00
H884   H     0.85051   0.96718   0.67666   0.00000  Uiso   1.00
H885   H     0.74795   0.66652   0.58975   0.00000  Uiso   1.00
H886   H     0.80443   0.64935   0.62875   0.00000  Uiso   1.00
H887   H     0.90386   0.81242   0.85171   0.00000  Uiso   1.00
H888   H     0.92989   0.82371   0.91179   0.00000  Uiso   1.00
H889   H     0.95123   0.77559   0.88211   0.00000  Uiso   1.00
H890   H     0.76539   0.66316   0.50729   0.00000  Uiso   1.00
H891   H     0.82955   0.66592   0.99052   0.00000  Uiso   1.00
H892   H     0.82023   0.64004   0.54451   0.00000  Uiso   1.00
H893   H     0.93524   0.80766   0.99656   0.00000  Uiso   1.00
H894   H     0.93171   0.75282   0.52025   0.00000  Uiso   1.00
H895   H     0.76659   0.61215   0.78366   0.00000  Uiso   1.00
H896   H     0.96195   0.76069   0.96861   0.00000  Uiso   1.00
H897   H     0.85185   0.88749   0.67919   0.00000  Uiso   1.00
H898   H     0.99187   0.74947   0.69373   0.00000  Uiso   1.00
H899   H     0.67476   0.75022   0.80629   0.00000  Uiso   1.00
H900   H     0.93587   0.64151   0.73436   0.00000  Uiso   1.00
H901   H     0.94304   0.59451   0.69537   0.00000  Uiso   1.00
H902   H     0.89827   0.63605   0.67424   0.00000  Uiso   1.00
N903   N     0.83333   0.75001   0.62934   0.00000  Uiso   1.00
N904   N     0.83333   0.74999   0.87065   0.00000  Uiso   1.00
O905   O     0.83334   0.68572   0.79071   0.00000  Uiso   1.00
O906   O     0.83333   0.81427   0.70928   0.00000  Uiso   1.00
O907   O     0.83334   0.68573   0.70928   0.00000  Uiso   1.00
O908   O     0.83333   0.81427   0.79072   0.00000  Uiso   1.00
O909   O     0.75828   0.74999   0.78132   0.00000  Uiso   1.00
O910   O     0.90839   0.75000   0.71868   0.00000  Uiso   1.00
O911   O     0.75828   0.75000   0.69989   0.00000  Uiso   1.00
O912   O     0.90839   0.75000   0.80011   0.00000  Uiso   1.00
loop_
_geom_bond_atom_site_label_1
_geom_bond_atom_site_label_2
_geom_bond_distance
_geom_bond_site_symmetry_2
_ccdc_geom_bond_type
C1     O71     1.294   .     A
C1     O69     1.295   .     A
C1     C14     1.452   .     S
C2     C4      1.409   .     A
C2     C33     1.424   .     A
C2     C28     1.518   .     S
C3     C23     1.411   .     A
C3     C34     1.408   .     A
C3     C460    1.519   1_554 S
C4     C29     1.412   .     A
C4     C459    1.519   .     S
C5     C7      1.436   .     S
C5     O75     1.296   .     A
C5     O73     1.286   .     A
C6     O74     1.287   .     A
C6     C8      1.436   .     S
C6     O76     1.296   .     A
C7     C160    1.341   1_455 S
C7     H214    1.087   1_455 S
C8     C83     1.341   .     S
C8     H139    1.087   .     S
C9     C20     1.402   .     A
C9     H37     1.083   .     S
C9     C11     1.386   .     A
C10    C21     1.397   .     A
C10    H48     1.083   .     S
C10    C13     1.386   .     A
C11    C14     1.398   .     A
C11    H59     1.084   .     S
C12    O72     1.299   .     A
C12    C15     1.475   .     S
C12    O70     1.303   .     A
C13    C15     1.406   .     A
C13    H61     1.083   .     S
C14    C16     1.412   .     A
C15    C17     1.423   .     A
C16    C22     1.509   .     S
C16    C18     1.399   .     A
C17    C19     1.399   .     A
C17    C24     1.510   .     S
C18    H41     1.083   .     S
C18    C20     1.404   .     A
C19    C21     1.400   .     A
C19    H42     1.084   .     S
C20    C249    1.470   1_545 S
C21    C248    1.470   .     S
C22    H65     1.111   .     S
C22    H66     1.110   .     S
C22    H64     1.111   .     S
C23    H43     1.082   .     S
C23    C30     1.410   .     A
C24    H39     1.109   .     S
C24    H38     1.110   .     S
C24    H40     1.111   .     S
C25    H50     1.110   .     S
C25    H47     1.097   .     S
C25    C32     1.511   .     S
C25    H49     1.110   .     S
C26    H52     1.110   .     S
C26    C33     1.511   .     S
C26    H53     1.110   .     S
C26    H51     1.097   .     S
C27    H54     1.110   .     S
C27    C34     1.518   .     S
C27    H56     1.110   .     S
C27    H511    1.109   1_554 S
C28    H57     1.110   .     S
C28    H60     1.110   .     S
C28    H514    1.109   .     S
C29    H44     1.082   .     S
C29    C31     1.410   .     A
C30    H45     1.080   .     S
C30    N67     1.365   .     A
C31    H46     1.080   .     S
C31    N68     1.365   .     A
C32    C34     1.425   .     A
C32    N67     1.390   .     A
C33    N68     1.390   .     A
Cu35   Cu36    2.690   .     S
Cu35   O76     1.957   .     S
Cu35   O72     1.964   .     S
Cu35   O73     1.950   .     S
Cu35   N68     2.021   .     S
Cu35   O69     1.951   .     S
Cu36   O70     1.951   .     S
Cu36   N67     2.021   .     S
Cu36   O75     1.957   .     S
Cu36   O74     1.950   .     S
Cu36   O71     1.964   .     S
H55    C483    1.109   .     S
H58    C484    1.109   1_554 S
H62    C83     1.087   .     S
H63    C160    1.087   1_455 S
C77    O147    1.294   .     A
C77    O145    1.295   .     A
C77    C90     1.452   .     S
C78    C80     1.409   .     A
C78    C109    1.424   .     A
C78    C104    1.518   .     S
C79    C99     1.411   .     A
C79    C110    1.408   .     A
C79    C536    1.519   1_554 S
C80    C105    1.412   .     A
C80    C535    1.519   .     S
C81    C83     1.436   .     S
C81    O151    1.296   .     A
C81    O149    1.286   .     A
C82    O150    1.287   .     A
C82    C84     1.436   .     S
C82    O152    1.296   .     A
C84    C159    1.341   .     S
C84    H215    1.087   .     S
C85    C96     1.402   .     A
C85    H113    1.083   .     S
C85    C87     1.386   .     A
C86    C97     1.397   .     A
C86    H124    1.083   .     S
C86    C89     1.386   .     A
C87    C90     1.398   .     A
C87    H135    1.084   .     S
C88    O148    1.299   .     A
C88    C91     1.475   .     S
C88    O146    1.303   .     A
C89    C91     1.406   .     A
C89    H137    1.083   .     S
C90    C92     1.412   .     A
C91    C93     1.423   .     A
C92    C98     1.509   .     S
C92    C94     1.399   .     A
C93    C95     1.399   .     A
C93    C100    1.510   .     S
C94    H117    1.083   .     S
C94    C96     1.404   .     A
C95    C97     1.400   .     A
C95    H118    1.084   .     S
C96    C325    1.470   1_545 S
C97    C324    1.470   .     S
C98    H141    1.111   .     S
C98    H142    1.110   .     S
C98    H140    1.111   .     S
C99    H119    1.082   .     S
C99    C106    1.410   .     A
C100   H115    1.109   .     S
C100   H114    1.110   .     S
C100   H116    1.111   .     S
C101   H126    1.110   .     S
C101   H123    1.097   .     S
C101   C108    1.511   .     S
C101   H125    1.110   .     S
C102   H128    1.110   .     S
C102   C109    1.511   .     S
C102   H129    1.110   .     S
C102   H127    1.097   .     S
C103   H130    1.110   .     S
C103   C110    1.518   .     S
C103   H132    1.110   .     S
C103   H587    1.109   1_554 S
C104   H133    1.110   .     S
C104   H136    1.110   .     S
C104   H590    1.109   .     S
C105   H120    1.082   .     S
C105   C107    1.410   .     A
C106   H121    1.080   .     S
C106   N143    1.365   .     A
C107   H122    1.080   .     S
C107   N144    1.365   .     A
C108   C110    1.425   .     A
C108   N143    1.390   .     A
C109   N144    1.390   .     A
Cu111  Cu112   2.690   .     S
Cu111  O152    1.957   .     S
Cu111  O148    1.964   .     S
Cu111  O149    1.950   .     S
Cu111  N144    2.021   .     S
Cu111  O145    1.951   .     S
Cu112  O146    1.951   .     S
Cu112  N143    2.021   .     S
Cu112  O151    1.957   .     S
Cu112  O150    1.950   .     S
Cu112  O147    1.964   .     S
H131   C559    1.109   .     S
H134   C560    1.109   1_554 S
H138   C159    1.087   .     S
C153   O223    1.294   .     A
C153   O221    1.295   .     A
C153   C166    1.452   .     S
C154   C156    1.409   .     A
C154   C185    1.424   .     A
C154   C180    1.518   .     S
C155   C175    1.411   .     A
C155   C186    1.408   .     A
C155   C612    1.519   1_554 S
C156   C181    1.412   .     A
C156   C611    1.519   .     S
C157   C159    1.436   .     S
C157   O227    1.296   .     A
C157   O225    1.286   .     A
C158   O226    1.287   .     A
C158   C160    1.436   .     S
C158   O228    1.296   .     A
C160   C7      1.341   1_655 S
C160   H63     1.087   1_655 S
C161   C172    1.402   .     A
C161   H189    1.083   .     S
C161   C163    1.386   .     A
C162   C173    1.397   .     A
C162   H200    1.083   .     S
C162   C165    1.386   .     A
C163   C166    1.398   .     A
C163   H211    1.084   .     S
C164   O224    1.299   .     A
C164   C167    1.475   .     S
C164   O222    1.303   .     A
C165   C167    1.406   .     A
C165   H213    1.083   .     S
C166   C168    1.412   .     A
C167   C169    1.423   .     A
C168   C174    1.509   .     S
C168   C170    1.399   .     A
C169   C171    1.399   .     A
C169   C176    1.510   .     S
C170   H193    1.083   .     S
C170   C172    1.404   .     A
C171   C173    1.400   .     A
C171   H194    1.084   .     S
C172   C401    1.470   1_545 S
C173   C400    1.470   .     S
C174   H217    1.111   .     S
C174   H218    1.110   .     S
C174   H216    1.111   .     S
C175   H195    1.082   .     S
C175   C182    1.410   .     A
C176   H191    1.109   .     S
C176   H190    1.110   .     S
C176   H192    1.111   .     S
C177   H202    1.110   .     S
C177   H199    1.097   .     S
C177   C184    1.511   .     S
C177   H201    1.110   .     S
C178   H204    1.110   .     S
C178   C185    1.511   .     S
C178   H205    1.110   .     S
C178   H203    1.097   .     S
C179   H206    1.110   .     S
C179   C186    1.518   .     S
C179   H208    1.110   .     S
C179   H663    1.109   1_554 S
C180   H209    1.110   .     S
C180   H212    1.110   .     S
C180   H666    1.109   .     S
C181   H196    1.082   .     S
C181   C183    1.410   .     A
C182   H197    1.080   .     S
C182   N219    1.365   .     A
C183   H198    1.080   .     S
C183   N220    1.365   .     A
C184   C186    1.425   .     A
C184   N219    1.390   .     A
C185   N220    1.390   .     A
Cu187  Cu188   2.690   .     S
Cu187  O228    1.957   .     S
Cu187  O224    1.964   .     S
Cu187  O225    1.950   .     S
Cu187  N220    2.021   .     S
Cu187  O221    1.951   .     S
Cu188  O222    1.951   .     S
Cu188  N219    2.021   .     S
Cu188  O227    1.957   .     S
Cu188  O226    1.950   .     S
Cu188  O223    1.964   .     S
H207   C635    1.109   .     S
H210   C636    1.109   1_554 S
H214   C7      1.087   1_655 S
C229   O299    1.294   .     A
C229   O297    1.295   .     A
C229   C242    1.452   .     S
C230   C232    1.409   .     A
C230   C261    1.424   .     A
C230   C256    1.518   .     S
C231   C251    1.411   .     A
C231   C262    1.408   .     A
C231   C688    1.519   1_554 S
C232   C257    1.412   .     A
C232   C687    1.519   .     S
C233   C235    1.436   .     S
C233   O303    1.296   .     A
C233   O301    1.286   .     A
C234   O302    1.287   .     A
C234   C236    1.436   .     S
C234   O304    1.296   .     A
C235   C388    1.341   1_455 S
C235   H442    1.087   1_455 S
C236   C311    1.341   .     S
C236   H367    1.087   .     S
C237   C248    1.402   .     A
C237   H265    1.083   .     S
C237   C239    1.386   .     A
C238   C249    1.397   .     A
C238   H276    1.083   .     S
C238   C241    1.386   .     A
C239   C242    1.398   .     A
C239   H287    1.084   .     S
C240   O300    1.299   .     A
C240   C243    1.475   .     S
C240   O298    1.303   .     A
C241   C243    1.406   .     A
C241   H289    1.083   .     S
C242   C244    1.412   .     A
C243   C245    1.423   .     A
C244   C250    1.509   .     S
C244   C246    1.399   .     A
C245   C247    1.399   .     A
C245   C252    1.510   .     S
C246   H269    1.083   .     S
C246   C248    1.404   .     A
C247   C249    1.400   .     A
C247   H270    1.084   .     S
C249   C20     1.470   1_565 S
C250   H293    1.111   .     S
C250   H294    1.110   .     S
C250   H292    1.111   .     S
C251   H271    1.082   .     S
C251   C258    1.410   .     A
C252   H267    1.109   .     S
C252   H266    1.110   .     S
C252   H268    1.111   .     S
C253   H278    1.110   .     S
C253   H275    1.097   .     S
C253   C260    1.511   .     S
C253   H277    1.110   .     S
C254   H280    1.110   .     S
C254   C261    1.511   .     S
C254   H281    1.110   .     S
C254   H279    1.097   .     S
C255   H282    1.110   .     S
C255   C262    1.518   .     S
C255   H284    1.110   .     S
C255   H739    1.109   1_554 S
C256   H285    1.110   .     S
C256   H288    1.110   .     S
C256   H742    1.109   .     S
C257   H272    1.082   .     S
C257   C259    1.410   .     A
C258   H273    1.080   .     S
C258   N295    1.365   .     A
C259   H274    1.080   .     S
C259   N296    1.365   .     A
C260   C262    1.425   .     A
C260   N295    1.390   .     A
C261   N296    1.390   .     A
Cu263  Cu264   2.690   .     S
Cu263  O304    1.957   .     S
Cu263  O300    1.964   .     S
Cu263  O301    1.950   .     S
Cu263  N296    2.021   .     S
Cu263  O297    1.951   .     S
Cu264  O298    1.951   .     S
Cu264  N295    2.021   .     S
Cu264  O303    1.957   .     S
Cu264  O302    1.950   .     S
Cu264  O299    1.964   .     S
H283   C711    1.109   .     S
H286   C712    1.109   1_554 S
H290   C311    1.087   .     S
H291   C388    1.087   1_455 S
C305   O375    1.294   .     A
C305   O373    1.295   .     A
C305   C318    1.452   .     S
C306   C308    1.409   .     A
C306   C337    1.424   .     A
C306   C332    1.518   .     S
C307   C327    1.411   .     A
C307   C338    1.408   .     A
C307   C764    1.519   1_554 S
C308   C333    1.412   .     A
C308   C763    1.519   .     S
C309   C311    1.436   .     S
C309   O379    1.296   .     A
C309   O377    1.286   .     A
C310   O378    1.287   .     A
C310   C312    1.436   .     S
C310   O380    1.296   .     A
C312   C387    1.341   .     S
C312   H443    1.087   .     S
C313   C324    1.402   .     A
C313   H341    1.083   .     S
C313   C315    1.386   .     A
C314   C325    1.397   .     A
C314   H352    1.083   .     S
C314   C317    1.386   .     A
C315   C318    1.398   .     A
C315   H363    1.084   .     S
C316   O376    1.299   .     A
C316   C319    1.475   .     S
C316   O374    1.303   .     A
C317   C319    1.406   .     A
C317   H365    1.083   .     S
C318   C320    1.412   .     A
C319   C321    1.423   .     A
C320   C326    1.509   .     S
C320   C322    1.399   .     A
C321   C323    1.399   .     A
C321   C328    1.510   .     S
C322   H345    1.083   .     S
C322   C324    1.404   .     A
C323   C325    1.400   .     A
C323   H346    1.084   .     S
C325   C96     1.470   1_565 S
C326   H369    1.111   .     S
C326   H370    1.110   .     S
C326   H368    1.111   .     S
C327   H347    1.082   .     S
C327   C334    1.410   .     A
C328   H343    1.109   .     S
C328   H342    1.110   .     S
C328   H344    1.111   .     S
C329   H354    1.110   .     S
C329   H351    1.097   .     S
C329   C336    1.511   .     S
C329   H353    1.110   .     S
C330   H356    1.110   .     S
C330   C337    1.511   .     S
C330   H357    1.110   .     S
C330   H355    1.097   .     S
C331   H358    1.110   .     S
C331   C338    1.518   .     S
C331   H360    1.110   .     S
C331   H815    1.109   1_554 S
C332   H361    1.110   .     S
C332   H364    1.110   .     S
C332   H818    1.109   .     S
C333   H348    1.082   .     S
C333   C335    1.410   .     A
C334   H349    1.080   .     S
C334   N371    1.365   .     A
C335   H350    1.080   .     S
C335   N372    1.365   .     A
C336   C338    1.425   .     A
C336   N371    1.390   .     A
C337   N372    1.390   .     A
Cu339  Cu340   2.690   .     S
Cu339  O380    1.957   .     S
Cu339  O376    1.964   .     S
Cu339  O377    1.950   .     S
Cu339  N372    2.021   .     S
Cu339  O373    1.951   .     S
Cu340  O374    1.951   .     S
Cu340  N371    2.021   .     S
Cu340  O379    1.957   .     S
Cu340  O378    1.950   .     S
Cu340  O375    1.964   .     S
H359   C787    1.109   .     S
H362   C788    1.109   1_554 S
H366   C387    1.087   .     S
C381   O451    1.294   .     A
C381   O449    1.295   .     A
C381   C394    1.452   .     S
C382   C384    1.409   .     A
C382   C413    1.424   .     A
C382   C408    1.518   .     S
C383   C403    1.411   .     A
C383   C414    1.408   .     A
C383   C840    1.519   1_554 S
C384   C409    1.412   .     A
C384   C839    1.519   .     S
C385   C387    1.436   .     S
C385   O455    1.296   .     A
C385   O453    1.286   .     A
C386   O454    1.287   .     A
C386   C388    1.436   .     S
C386   O456    1.296   .     A
C388   C235    1.341   1_655 S
C388   H291    1.087   1_655 S
C389   C400    1.402   .     A
C389   H417    1.083   .     S
C389   C391    1.386   .     A
C390   C401    1.397   .     A
C390   H428    1.083   .     S
C390   C393    1.386   .     A
C391   C394    1.398   .     A
C391   H439    1.084   .     S
C392   O452    1.299   .     A
C392   C395    1.475   .     S
C392   O450    1.303   .     A
C393   C395    1.406   .     A
C393   H441    1.083   .     S
C394   C396    1.412   .     A
C395   C397    1.423   .     A
C396   C402    1.509   .     S
C396   C398    1.399   .     A
C397   C399    1.399   .     A
C397   C404    1.510   .     S
C398   H421    1.083   .     S
C398   C400    1.404   .     A
C399   C401    1.400   .     A
C399   H422    1.084   .     S
C401   C172    1.470   1_565 S
C402   H445    1.111   .     S
C402   H446    1.110   .     S
C402   H444    1.111   .     S
C403   H423    1.082   .     S
C403   C410    1.410   .     A
C404   H419    1.109   .     S
C404   H418    1.110   .     S
C404   H420    1.111   .     S
C405   H430    1.110   .     S
C405   H427    1.097   .     S
C405   C412    1.511   .     S
C405   H429    1.110   .     S
C406   H432    1.110   .     S
C406   C413    1.511   .     S
C406   H433    1.110   .     S
C406   H431    1.097   .     S
C407   H434    1.110   .     S
C407   C414    1.518   .     S
C407   H436    1.110   .     S
C407   H891    1.109   1_554 S
C408   H437    1.110   .     S
C408   H440    1.110   .     S
C408   H894    1.109   .     S
C409   H424    1.082   .     S
C409   C411    1.410   .     A
C410   H425    1.080   .     S
C410   N447    1.365   .     A
C411   H426    1.080   .     S
C411   N448    1.365   .     A
C412   C414    1.425   .     A
C412   N447    1.390   .     A
C413   N448    1.390   .     A
Cu415  Cu416   2.690   .     S
Cu415  O456    1.957   .     S
Cu415  O452    1.964   .     S
Cu415  O453    1.950   .     S
Cu415  N448    2.021   .     S
Cu415  O449    1.951   .     S
Cu416  O450    1.951   .     S
Cu416  N447    2.021   .     S
Cu416  O455    1.957   .     S
Cu416  O454    1.950   .     S
Cu416  O451    1.964   .     S
H435   C863    1.109   .     S
H438   C864    1.109   1_554 S
H442   C235    1.087   1_655 S
C457   O527    1.294   .     A
C457   O525    1.295   .     A
C457   C470    1.452   .     S
C458   C460    1.409   .     A
C458   C489    1.424   .     A
C458   C484    1.518   .     S
C459   C479    1.411   .     A
C459   C490    1.408   .     A
C460   C485    1.412   .     A
C460   C3      1.519   1_556 S
C461   C463    1.436   .     S
C461   O531    1.296   .     A
C461   O529    1.286   .     A
C462   O530    1.287   .     A
C462   C464    1.436   .     S
C462   O532    1.296   .     A
C463   C616    1.341   1_455 S
C463   H670    1.087   1_455 S
C464   C539    1.341   .     S
C464   H595    1.087   .     S
C465   C476    1.402   .     A
C465   H493    1.083   .     S
C465   C467    1.386   .     A
C466   C477    1.397   .     A
C466   H504    1.083   .     S
C466   C469    1.386   .     A
C467   C470    1.398   .     A
C467   H515    1.084   .     S
C468   O528    1.299   .     A
C468   C471    1.475   .     S
C468   O526    1.303   .     A
C469   C471    1.406   .     A
C469   H517    1.083   .     S
C470   C472    1.412   .     A
C471   C473    1.423   .     A
C472   C478    1.509   .     S
C472   C474    1.399   .     A
C473   C475    1.399   .     A
C473   C480    1.510   .     S
C474   H497    1.083   .     S
C474   C476    1.404   .     A
C475   C477    1.400   .     A
C475   H498    1.084   .     S
C476   C705    1.470   1_545 S
C477   C704    1.470   .     S
C478   H521    1.111   .     S
C478   H522    1.110   .     S
C478   H520    1.111   .     S
C479   H499    1.082   .     S
C479   C486    1.410   .     A
C480   H495    1.109   .     S
C480   H494    1.110   .     S
C480   H496    1.111   .     S
C481   H506    1.110   .     S
C481   H503    1.097   .     S
C481   C488    1.511   .     S
C481   H505    1.110   .     S
C482   H508    1.110   .     S
C482   C489    1.511   .     S
C482   H509    1.110   .     S
C482   H507    1.097   .     S
C483   H510    1.110   .     S
C483   C490    1.518   .     S
C483   H512    1.110   .     S
C484   H513    1.110   .     S
C484   H516    1.110   .     S
C484   H58     1.109   1_556 S
C485   H500    1.082   .     S
C485   C487    1.410   .     A
C486   H501    1.080   .     S
C486   N523    1.365   .     A
C487   H502    1.080   .     S
C487   N524    1.365   .     A
C488   C490    1.425   .     A
C488   N523    1.390   .     A
C489   N524    1.390   .     A
Cu491  Cu492   2.690   .     S
Cu491  O532    1.957   .     S
Cu491  O528    1.964   .     S
Cu491  O529    1.950   .     S
Cu491  N524    2.021   .     S
Cu491  O525    1.951   .     S
Cu492  O526    1.951   .     S
Cu492  N523    2.021   .     S
Cu492  O531    1.957   .     S
Cu492  O530    1.950   .     S
Cu492  O527    1.964   .     S
H511   C27     1.109   1_556 S
H518   C539    1.087   .     S
H519   C616    1.087   1_455 S
C533   O603    1.294   .     A
C533   O601    1.295   .     A
C533   C546    1.452   .     S
C534   C536    1.409   .     A
C534   C565    1.424   .     A
C534   C560    1.518   .     S
C535   C555    1.411   .     A
C535   C566    1.408   .     A
C536   C561    1.412   .     A
C536   C79     1.519   1_556 S
C537   C539    1.436   .     S
C537   O607    1.296   .     A
C537   O605    1.286   .     A
C538   O606    1.287   .     A
C538   C540    1.436   .     S
C538   O608    1.296   .     A
C540   C615    1.341   .     S
C540   H671    1.087   .     S
C541   C552    1.402   .     A
C541   H569    1.083   .     S
C541   C543    1.386   .     A
C542   C553    1.397   .     A
C542   H580    1.083   .     S
C542   C545    1.386   .     A
C543   C546    1.398   .     A
C543   H591    1.084   .     S
C544   O604    1.299   .     A
C544   C547    1.475   .     S
C544   O602    1.303   .     A
C545   C547    1.406   .     A
C545   H593    1.083   .     S
C546   C548    1.412   .     A
C547   C549    1.423   .     A
C548   C554    1.509   .     S
C548   C550    1.399   .     A
C549   C551    1.399   .     A
C549   C556    1.510   .     S
C550   H573    1.083   .     S
C550   C552    1.404   .     A
C551   C553    1.400   .     A
C551   H574    1.084   .     S
C552   C781    1.470   1_545 S
C553   C780    1.470   .     S
C554   H597    1.111   .     S
C554   H598    1.110   .     S
C554   H596    1.111   .     S
C555   H575    1.082   .     S
C555   C562    1.410   .     A
C556   H571    1.109   .     S
C556   H570    1.110   .     S
C556   H572    1.111   .     S
C557   H582    1.110   .     S
C557   H579    1.097   .     S
C557   C564    1.511   .     S
C557   H581    1.110   .     S
C558   H584    1.110   .     S
C558   C565    1.511   .     S
C558   H585    1.110   .     S
C558   H583    1.097   .     S
C559   H586    1.110   .     S
C559   C566    1.518   .     S
C559   H588    1.110   .     S
C560   H589    1.110   .     S
C560   H592    1.110   .     S
C560   H134    1.109   1_556 S
C561   H576    1.082   .     S
C561   C563    1.410   .     A
C562   H577    1.080   .     S
C562   N599    1.365   .     A
C563   H578    1.080   .     S
C563   N600    1.365   .     A
C564   C566    1.425   .     A
C564   N599    1.390   .     A
C565   N600    1.390   .     A
Cu567  Cu568   2.690   .     S
Cu567  O608    1.957   .     S
Cu567  O604    1.964   .     S
Cu567  O605    1.950   .     S
Cu567  N600    2.021   .     S
Cu567  O601    1.951   .     S
Cu568  O602    1.951   .     S
Cu568  N599    2.021   .     S
Cu568  O607    1.957   .     S
Cu568  O606    1.950   .     S
Cu568  O603    1.964   .     S
H587   C103    1.109   1_556 S
H594   C615    1.087   .     S
C609   O679    1.294   .     A
C609   O677    1.295   .     A
C609   C622    1.452   .     S
C610   C612    1.409   .     A
C610   C641    1.424   .     A
C610   C636    1.518   .     S
C611   C631    1.411   .     A
C611   C642    1.408   .     A
C612   C637    1.412   .     A
C612   C155    1.519   1_556 S
C613   C615    1.436   .     S
C613   O683    1.296   .     A
C613   O681    1.286   .     A
C614   O682    1.287   .     A
C614   C616    1.436   .     S
C614   O684    1.296   .     A
C616   C463    1.341   1_655 S
C616   H519    1.087   1_655 S
C617   C628    1.402   .     A
C617   H645    1.083   .     S
C617   C619    1.386   .     A
C618   C629    1.397   .     A
C618   H656    1.083   .     S
C618   C621    1.386   .     A
C619   C622    1.398   .     A
C619   H667    1.084   .     S
C620   O680    1.299   .     A
C620   C623    1.475   .     S
C620   O678    1.303   .     A
C621   C623    1.406   .     A
C621   H669    1.083   .     S
C622   C624    1.412   .     A
C623   C625    1.423   .     A
C624   C630    1.509   .     S
C624   C626    1.399   .     A
C625   C627    1.399   .     A
C625   C632    1.510   .     S
C626   H649    1.083   .     S
C626   C628    1.404   .     A
C627   C629    1.400   .     A
C627   H650    1.084   .     S
C628   C857    1.470   1_545 S
C629   C856    1.470   .     S
C630   H673    1.111   .     S
C630   H674    1.110   .     S
C630   H672    1.111   .     S
C631   H651    1.082   .     S
C631   C638    1.410   .     A
C632   H647    1.109   .     S
C632   H646    1.110   .     S
C632   H648    1.111   .     S
C633   H658    1.110   .     S
C633   H655    1.097   .     S
C633   C640    1.511   .     S
C633   H657    1.110   .     S
C634   H660    1.110   .     S
C634   C641    1.511   .     S
C634   H661    1.110   .     S
C634   H659    1.097   .     S
C635   H662    1.110   .     S
C635   C642    1.518   .     S
C635   H664    1.110   .     S
C636   H665    1.110   .     S
C636   H668    1.110   .     S
C636   H210    1.109   1_556 S
C637   H652    1.082   .     S
C637   C639    1.410   .     A
C638   H653    1.080   .     S
C638   N675    1.365   .     A
C639   H654    1.080   .     S
C639   N676    1.365   .     A
C640   C642    1.425   .     A
C640   N675    1.390   .     A
C641   N676    1.390   .     A
Cu643  Cu644   2.690   .     S
Cu643  O684    1.957   .     S
Cu643  O680    1.964   .     S
Cu643  O681    1.950   .     S
Cu643  N676    2.021   .     S
Cu643  O677    1.951   .     S
Cu644  O678    1.951   .     S
Cu644  N675    2.021   .     S
Cu644  O683    1.957   .     S
Cu644  O682    1.950   .     S
Cu644  O679    1.964   .     S
H663   C179    1.109   1_556 S
H670   C463    1.087   1_655 S
C685   O755    1.294   .     A
C685   O753    1.295   .     A
C685   C698    1.452   .     S
C686   C688    1.409   .     A
C686   C717    1.424   .     A
C686   C712    1.518   .     S
C687   C707    1.411   .     A
C687   C718    1.408   .     A
C688   C713    1.412   .     A
C688   C231    1.519   1_556 S
C689   C691    1.436   .     S
C689   O759    1.296   .     A
C689   O757    1.286   .     A
C690   O758    1.287   .     A
C690   C692    1.436   .     S
C690   O760    1.296   .     A
C691   C844    1.341   1_455 S
C691   H898    1.087   1_455 S
C692   C767    1.341   .     S
C692   H823    1.087   .     S
C693   C704    1.402   .     A
C693   H721    1.083   .     S
C693   C695    1.386   .     A
C694   C705    1.397   .     A
C694   H732    1.083   .     S
C694   C697    1.386   .     A
C695   C698    1.398   .     A
C695   H743    1.084   .     S
C696   O756    1.299   .     A
C696   C699    1.475   .     S
C696   O754    1.303   .     A
C697   C699    1.406   .     A
C697   H745    1.083   .     S
C698   C700    1.412   .     A
C699   C701    1.423   .     A
C700   C706    1.509   .     S
C700   C702    1.399   .     A
C701   C703    1.399   .     A
C701   C708    1.510   .     S
C702   H725    1.083   .     S
C702   C704    1.404   .     A
C703   C705    1.400   .     A
C703   H726    1.084   .     S
C705   C476    1.470   1_565 S
C706   H749    1.111   .     S
C706   H750    1.110   .     S
C706   H748    1.111   .     S
C707   H727    1.082   .     S
C707   C714    1.410   .     A
C708   H723    1.109   .     S
C708   H722    1.110   .     S
C708   H724    1.111   .     S
C709   H734    1.110   .     S
C709   H731    1.097   .     S
C709   C716    1.511   .     S
C709   H733    1.110   .     S
C710   H736    1.110   .     S
C710   C717    1.511   .     S
C710   H737    1.110   .     S
C710   H735    1.097   .     S
C711   H738    1.110   .     S
C711   C718    1.518   .     S
C711   H740    1.110   .     S
C712   H741    1.110   .     S
C712   H744    1.110   .     S
C712   H286    1.109   1_556 S
C713   H728    1.082   .     S
C713   C715    1.410   .     A
C714   H729    1.080   .     S
C714   N751    1.365   .     A
C715   H730    1.080   .     S
C715   N752    1.365   .     A
C716   C718    1.425   .     A
C716   N751    1.390   .     A
C717   N752    1.390   .     A
Cu719  Cu720   2.690   .     S
Cu719  O760    1.957   .     S
Cu719  O756    1.964   .     S
Cu719  O757    1.950   .     S
Cu719  N752    2.021   .     S
Cu719  O753    1.951   .     S
Cu720  O754    1.951   .     S
Cu720  N751    2.021   .     S
Cu720  O759    1.957   .     S
Cu720  O758    1.950   .     S
Cu720  O755    1.964   .     S
H739   C255    1.109   1_556 S
H746   C767    1.087   .     S
H747   C844    1.087   1_455 S
C761   O831    1.294   .     A
C761   O829    1.295   .     A
C761   C774    1.452   .     S
C762   C764    1.409   .     A
C762   C793    1.424   .     A
C762   C788    1.518   .     S
C763   C783    1.411   .     A
C763   C794    1.408   .     A
C764   C789    1.412   .     A
C764   C307    1.519   1_556 S
C765   C767    1.436   .     S
C765   O835    1.296   .     A
C765   O833    1.286   .     A
C766   O834    1.287   .     A
C766   C768    1.436   .     S
C766   O836    1.296   .     A
C768   C843    1.341   .     S
C768   H899    1.087   .     S
C769   C780    1.402   .     A
C769   H797    1.083   .     S
C769   C771    1.386   .     A
C770   C781    1.397   .     A
C770   H808    1.083   .     S
C770   C773    1.386   .     A
C771   C774    1.398   .     A
C771   H819    1.084   .     S
C772   O832    1.299   .     A
C772   C775    1.475   .     S
C772   O830    1.303   .     A
C773   C775    1.406   .     A
C773   H821    1.083   .     S
C774   C776    1.412   .     A
C775   C777    1.423   .     A
C776   C782    1.509   .     S
C776   C778    1.399   .     A
C777   C779    1.399   .     A
C777   C784    1.510   .     S
C778   H801    1.083   .     S
C778   C780    1.404   .     A
C779   C781    1.400   .     A
C779   H802    1.084   .     S
C781   C552    1.470   1_565 S
C782   H825    1.111   .     S
C782   H826    1.110   .     S
C782   H824    1.111   .     S
C783   H803    1.082   .     S
C783   C790    1.410   .     A
C784   H799    1.109   .     S
C784   H798    1.110   .     S
C784   H800    1.111   .     S
C785   H810    1.110   .     S
C785   H807    1.097   .     S
C785   C792    1.511   .     S
C785   H809    1.110   .     S
C786   H812    1.110   .     S
C786   C793    1.511   .     S
C786   H813    1.110   .     S
C786   H811    1.097   .     S
C787   H814    1.110   .     S
C787   C794    1.518   .     S
C787   H816    1.110   .     S
C788   H817    1.110   .     S
C788   H820    1.110   .     S
C788   H362    1.109   1_556 S
C789   H804    1.082   .     S
C789   C791    1.410   .     A
C790   H805    1.080   .     S
C790   N827    1.365   .     A
C791   H806    1.080   .     S
C791   N828    1.365   .     A
C792   C794    1.425   .     A
C792   N827    1.390   .     A
C793   N828    1.390   .     A
Cu795  Cu796   2.690   .     S
Cu795  O836    1.957   .     S
Cu795  O832    1.964   .     S
Cu795  O833    1.950   .     S
Cu795  N828    2.021   .     S
Cu795  O829    1.951   .     S
Cu796  O830    1.951   .     S
Cu796  N827    2.021   .     S
Cu796  O835    1.957   .     S
Cu796  O834    1.950   .     S
Cu796  O831    1.964   .     S
H815   C331    1.109   1_556 S
H822   C843    1.087   .     S
C837   O907    1.294   .     A
C837   O905    1.295   .     A
C837   C850    1.452   .     S
C838   C840    1.409   .     A
C838   C869    1.424   .     A
C838   C864    1.518   .     S
C839   C859    1.411   .     A
C839   C870    1.408   .     A
C840   C865    1.412   .     A
C840   C383    1.519   1_556 S
C841   C843    1.436   .     S
C841   O911    1.296   .     A
C841   O909    1.286   .     A
C842   O910    1.287   .     A
C842   C844    1.436   .     S
C842   O912    1.296   .     A
C844   C691    1.341   1_655 S
C844   H747    1.087   1_655 S
C845   C856    1.402   .     A
C845   H873    1.083   .     S
C845   C847    1.386   .     A
C846   C857    1.397   .     A
C846   H884    1.083   .     S
C846   C849    1.386   .     A
C847   C850    1.398   .     A
C847   H895    1.084   .     S
C848   O908    1.299   .     A
C848   C851    1.475   .     S
C848   O906    1.303   .     A
C849   C851    1.406   .     A
C849   H897    1.083   .     S
C850   C852    1.412   .     A
C851   C853    1.423   .     A
C852   C858    1.509   .     S
C852   C854    1.399   .     A
C853   C855    1.399   .     A
C853   C860    1.510   .     S
C854   H877    1.083   .     S
C854   C856    1.404   .     A
C855   C857    1.400   .     A
C855   H878    1.084   .     S
C857   C628    1.470   1_565 S
C858   H901    1.111   .     S
C858   H902    1.110   .     S
C858   H900    1.111   .     S
C859   H879    1.082   .     S
C859   C866    1.410   .     A
C860   H875    1.109   .     S
C860   H874    1.110   .     S
C860   H876    1.111   .     S
C861   H886    1.110   .     S
C861   H883    1.097   .     S
C861   C868    1.511   .     S
C861   H885    1.110   .     S
C862   H888    1.110   .     S
C862   C869    1.511   .     S
C862   H889    1.110   .     S
C862   H887    1.097   .     S
C863   H890    1.110   .     S
C863   C870    1.518   .     S
C863   H892    1.110   .     S
C864   H893    1.110   .     S
C864   H896    1.110   .     S
C864   H438    1.109   1_556 S
C865   H880    1.082   .     S
C865   C867    1.410   .     A
C866   H881    1.080   .     S
C866   N903    1.365   .     A
C867   H882    1.080   .     S
C867   N904    1.365   .     A
C868   C870    1.425   .     A
C868   N903    1.390   .     A
C869   N904    1.390   .     A
Cu871  Cu872   2.690   .     S
Cu871  O912    1.957   .     S
Cu871  O908    1.964   .     S
Cu871  O909    1.950   .     S
Cu871  N904    2.021   .     S
Cu871  O905    1.951   .     S
Cu872  O906    1.951   .     S
Cu872  N903    2.021   .     S
Cu872  O911    1.957   .     S
Cu872  O910    1.950   .     S
Cu872  O907    1.964   .     S
H891   C407    1.109   1_556 S
H898   C691    1.087   1_655 S
