data_str_m2_o10_o17_pcu_sym.48
_audit_creation_date              2020-01-03
_audit_creation_method            'Materials Studio'
_symmetry_space_group_name_H-M    'P1'
_symmetry_Int_Tables_number       1
_symmetry_cell_setting            triclinic
loop_
_symmetry_equiv_pos_as_xyz
  x,y,z
_cell_length_a                    29.9841
_cell_length_b                    26.0307
_cell_length_c                    22.3534
_cell_angle_alpha                 102.8658
_cell_angle_beta                  93.8609
_cell_angle_gamma                 92.4403
loop_
_atom_site_label
_atom_site_type_symbol
_atom_site_fract_x
_atom_site_fract_y
_atom_site_fract_z
_atom_site_U_iso_or_equiv
_atom_site_adp_type
_atom_site_occupancy
C1     C     0.24865   0.06660   0.15112   0.00000  Uiso   1.00
C2     C     0.09044   0.12201   0.13697   0.00000  Uiso   1.00
C3     C     0.38347   0.16733   0.16349   0.00000  Uiso   1.00
C4     C     0.11653   0.16601   0.16984   0.00000  Uiso   1.00
C5     C     0.40284   0.12306   0.13039   0.00000  Uiso   1.00
C6     C     0.09716   0.21028   0.20295   0.00000  Uiso   1.00
C7     C     0.44980   0.12217   0.12959   0.00000  Uiso   1.00
C8     C     0.05020   0.21117   0.20375   0.00000  Uiso   1.00
C9     C     0.47647   0.16668   0.16501   0.00000  Uiso   1.00
C10    C     0.02353   0.16665   0.16833   0.00000  Uiso   1.00
C11    C     0.45605   0.21131   0.19746   0.00000  Uiso   1.00
C12    C     0.25135   0.26673   0.18222   0.00000  Uiso   1.00
C13    C     0.04395   0.12203   0.13588   0.00000  Uiso   1.00
C14    C     0.47115   0.07797   0.09676   0.00000  Uiso   1.00
C15    C     0.02885   0.25536   0.23657   0.00000  Uiso   1.00
C16    C     0.44656   0.03174   0.05465   0.00000  Uiso   1.00
C17    C     0.05344   0.30159   0.27868   0.00000  Uiso   1.00
C18    C     0.01784   0.07831   0.10153   0.00000  Uiso   1.00
C19    C     0.48216   0.25502   0.23180   0.00000  Uiso   1.00
C20    C     0.24801   0.01063   0.14236   0.00000  Uiso   1.00
C21    C     0.25199   0.32270   0.19097   0.00000  Uiso   1.00
C22    C     0.16459   0.16641   0.16764   0.00000  Uiso   1.00
C23    C     0.33541   0.16692   0.16569   0.00000  Uiso   1.00
C24    C     0.40956   0.21132   0.19636   0.00000  Uiso   1.00
Cu25   Cu    0.25501   0.17246   0.22813   0.00000  Uiso   1.00
Cu26   Cu    0.24500   0.16087   0.10521   0.00000  Uiso   1.00
F27    F     0.38939   0.25388   0.22775   0.00000  Uiso   1.00
F28    F     0.11061   0.07945   0.10558   0.00000  Uiso   1.00
F29    F     0.37530   0.08023   0.10331   0.00000  Uiso   1.00
F30    F     0.12470   0.25310   0.23003   0.00000  Uiso   1.00
H31    H     0.03401   0.04454   0.07646   0.00000  Uiso   1.00
H32    H     0.46599   0.28879   0.25687   0.00000  Uiso   1.00
H33    H     0.24424   0.32015   0.09550   0.00000  Uiso   1.00
H34    H     0.25576   0.01318   0.23784   0.00000  Uiso   1.00
H35    H     0.21506   0.12597   0.31628   0.00000  Uiso   1.00
H36    H     0.28494   0.20737   0.01705   0.00000  Uiso   1.00
H37    H     0.41684   0.03658   0.02655   0.00000  Uiso   1.00
H38    H     0.08316   0.29676   0.30678   0.00000  Uiso   1.00
N39    N     0.23745   0.15214   0.01284   0.00000  Uiso   1.00
N40    N     0.26256   0.18119   0.32049   0.00000  Uiso   1.00
O41    O     0.25326   0.09538   0.20659   0.00000  Uiso   1.00
O42    O     0.03983   0.01247   0.28367   0.00000  Uiso   1.00
O43    O     0.24675   0.23796   0.12674   0.00000  Uiso   1.00
O44    O     0.24480   0.08559   0.10279   0.00000  Uiso   1.00
O45    O     0.25520   0.24774   0.23055   0.00000  Uiso   1.00
O46    O     0.18936   0.17155   0.21857   0.00000  Uiso   1.00
O47    O     0.31065   0.16179   0.11476   0.00000  Uiso   1.00
O48    O     0.18090   0.16176   0.11477   0.00000  Uiso   1.00
O49    O     0.31910   0.17157   0.21857   0.00000  Uiso   1.00
O50    O     0.46017   0.32087   0.04966   0.00000  Uiso   1.00
C51    C     0.74865   0.06660   0.15112   0.00000  Uiso   1.00
C52    C     0.59044   0.12201   0.13697   0.00000  Uiso   1.00
C53    C     0.88347   0.16733   0.16349   0.00000  Uiso   1.00
C54    C     0.61653   0.16601   0.16984   0.00000  Uiso   1.00
C55    C     0.90284   0.12306   0.13039   0.00000  Uiso   1.00
C56    C     0.59716   0.21028   0.20295   0.00000  Uiso   1.00
C57    C     0.94980   0.12217   0.12959   0.00000  Uiso   1.00
C58    C     0.55020   0.21117   0.20375   0.00000  Uiso   1.00
C59    C     0.97647   0.16668   0.16501   0.00000  Uiso   1.00
C60    C     0.52353   0.16665   0.16833   0.00000  Uiso   1.00
C61    C     0.95605   0.21131   0.19746   0.00000  Uiso   1.00
C62    C     0.75135   0.26673   0.18222   0.00000  Uiso   1.00
C63    C     0.54395   0.12203   0.13588   0.00000  Uiso   1.00
C64    C     0.97115   0.07797   0.09676   0.00000  Uiso   1.00
C65    C     0.52885   0.25536   0.23657   0.00000  Uiso   1.00
C66    C     0.94656   0.03174   0.05465   0.00000  Uiso   1.00
C67    C     0.55344   0.30159   0.27868   0.00000  Uiso   1.00
C68    C     0.51784   0.07831   0.10153   0.00000  Uiso   1.00
C69    C     0.98216   0.25502   0.23180   0.00000  Uiso   1.00
C70    C     0.74801   0.01063   0.14236   0.00000  Uiso   1.00
C71    C     0.75199   0.32270   0.19097   0.00000  Uiso   1.00
C72    C     0.66459   0.16641   0.16764   0.00000  Uiso   1.00
C73    C     0.83541   0.16692   0.16569   0.00000  Uiso   1.00
C74    C     0.90956   0.21132   0.19636   0.00000  Uiso   1.00
Cu75   Cu    0.75501   0.17246   0.22813   0.00000  Uiso   1.00
Cu76   Cu    0.74500   0.16087   0.10521   0.00000  Uiso   1.00
F77    F     0.88939   0.25388   0.22775   0.00000  Uiso   1.00
F78    F     0.61061   0.07945   0.10558   0.00000  Uiso   1.00
F79    F     0.87530   0.08023   0.10331   0.00000  Uiso   1.00
F80    F     0.62470   0.25310   0.23003   0.00000  Uiso   1.00
H81    H     0.53401   0.04454   0.07646   0.00000  Uiso   1.00
H82    H     0.96599   0.28879   0.25687   0.00000  Uiso   1.00
H83    H     0.74424   0.32015   0.09550   0.00000  Uiso   1.00
H84    H     0.75576   0.01318   0.23784   0.00000  Uiso   1.00
H85    H     0.71506   0.12597   0.31628   0.00000  Uiso   1.00
H86    H     0.78494   0.20737   0.01705   0.00000  Uiso   1.00
H87    H     0.91684   0.03658   0.02655   0.00000  Uiso   1.00
H88    H     0.58316   0.29676   0.30678   0.00000  Uiso   1.00
N89    N     0.73745   0.15214   0.01284   0.00000  Uiso   1.00
N90    N     0.76256   0.18119   0.32049   0.00000  Uiso   1.00
O91    O     0.75326   0.09538   0.20659   0.00000  Uiso   1.00
O92    O     0.53983   0.01247   0.28367   0.00000  Uiso   1.00
O93    O     0.74675   0.23796   0.12674   0.00000  Uiso   1.00
O94    O     0.74480   0.08559   0.10279   0.00000  Uiso   1.00
O95    O     0.75520   0.24774   0.23055   0.00000  Uiso   1.00
O96    O     0.68936   0.17155   0.21857   0.00000  Uiso   1.00
O97    O     0.81065   0.16179   0.11476   0.00000  Uiso   1.00
O98    O     0.68090   0.16176   0.11477   0.00000  Uiso   1.00
O99    O     0.81910   0.17157   0.21857   0.00000  Uiso   1.00
O100   O     0.96017   0.32087   0.04966   0.00000  Uiso   1.00
C101   C     0.24865   0.39993   0.15112   0.00000  Uiso   1.00
C102   C     0.09044   0.45534   0.13697   0.00000  Uiso   1.00
C103   C     0.38347   0.50066   0.16349   0.00000  Uiso   1.00
C104   C     0.11653   0.49934   0.16984   0.00000  Uiso   1.00
C105   C     0.40284   0.45639   0.13039   0.00000  Uiso   1.00
C106   C     0.09716   0.54361   0.20295   0.00000  Uiso   1.00
C107   C     0.44980   0.45550   0.12959   0.00000  Uiso   1.00
C108   C     0.05020   0.54450   0.20375   0.00000  Uiso   1.00
C109   C     0.47647   0.50001   0.16501   0.00000  Uiso   1.00
C110   C     0.02353   0.49999   0.16833   0.00000  Uiso   1.00
C111   C     0.45605   0.54464   0.19746   0.00000  Uiso   1.00
C112   C     0.25135   0.60007   0.18222   0.00000  Uiso   1.00
C113   C     0.04395   0.45536   0.13588   0.00000  Uiso   1.00
C114   C     0.47115   0.41131   0.09676   0.00000  Uiso   1.00
C115   C     0.02885   0.58869   0.23657   0.00000  Uiso   1.00
C116   C     0.44656   0.36507   0.05465   0.00000  Uiso   1.00
C117   C     0.05344   0.63493   0.27868   0.00000  Uiso   1.00
C118   C     0.01784   0.41165   0.10153   0.00000  Uiso   1.00
C119   C     0.48216   0.58835   0.23180   0.00000  Uiso   1.00
C120   C     0.24801   0.34397   0.14236   0.00000  Uiso   1.00
C121   C     0.25199   0.65603   0.19097   0.00000  Uiso   1.00
C122   C     0.16459   0.49975   0.16764   0.00000  Uiso   1.00
C123   C     0.33541   0.50025   0.16569   0.00000  Uiso   1.00
C124   C     0.40956   0.54466   0.19636   0.00000  Uiso   1.00
Cu125  Cu    0.25501   0.50579   0.22813   0.00000  Uiso   1.00
Cu126  Cu    0.24500   0.49421   0.10521   0.00000  Uiso   1.00
F127   F     0.38939   0.58722   0.22775   0.00000  Uiso   1.00
F128   F     0.11061   0.41278   0.10558   0.00000  Uiso   1.00
F129   F     0.37530   0.41357   0.10331   0.00000  Uiso   1.00
F130   F     0.12470   0.58643   0.23003   0.00000  Uiso   1.00
H131   H     0.03401   0.37788   0.07646   0.00000  Uiso   1.00
H132   H     0.46599   0.62212   0.25687   0.00000  Uiso   1.00
H133   H     0.24424   0.65349   0.09550   0.00000  Uiso   1.00
H134   H     0.25576   0.34651   0.23784   0.00000  Uiso   1.00
H135   H     0.21506   0.45930   0.31628   0.00000  Uiso   1.00
H136   H     0.28494   0.54070   0.01705   0.00000  Uiso   1.00
H137   H     0.41684   0.36991   0.02655   0.00000  Uiso   1.00
H138   H     0.08316   0.63009   0.30678   0.00000  Uiso   1.00
N139   N     0.23745   0.48547   0.01284   0.00000  Uiso   1.00
N140   N     0.26256   0.51453   0.32049   0.00000  Uiso   1.00
O141   O     0.25326   0.42871   0.20659   0.00000  Uiso   1.00
O142   O     0.03983   0.34580   0.28367   0.00000  Uiso   1.00
O143   O     0.24675   0.57129   0.12674   0.00000  Uiso   1.00
O144   O     0.24480   0.41892   0.10279   0.00000  Uiso   1.00
O145   O     0.25520   0.58108   0.23055   0.00000  Uiso   1.00
O146   O     0.18936   0.50488   0.21857   0.00000  Uiso   1.00
O147   O     0.31065   0.49512   0.11476   0.00000  Uiso   1.00
O148   O     0.18090   0.49510   0.11477   0.00000  Uiso   1.00
O149   O     0.31910   0.50490   0.21857   0.00000  Uiso   1.00
O150   O     0.46017   0.65420   0.04966   0.00000  Uiso   1.00
C151   C     0.74865   0.39993   0.15112   0.00000  Uiso   1.00
C152   C     0.59044   0.45534   0.13697   0.00000  Uiso   1.00
C153   C     0.88347   0.50066   0.16349   0.00000  Uiso   1.00
C154   C     0.61653   0.49934   0.16984   0.00000  Uiso   1.00
C155   C     0.90284   0.45639   0.13039   0.00000  Uiso   1.00
C156   C     0.59716   0.54361   0.20295   0.00000  Uiso   1.00
C157   C     0.94980   0.45550   0.12959   0.00000  Uiso   1.00
C158   C     0.55020   0.54450   0.20375   0.00000  Uiso   1.00
C159   C     0.97647   0.50001   0.16501   0.00000  Uiso   1.00
C160   C     0.52353   0.49999   0.16833   0.00000  Uiso   1.00
C161   C     0.95605   0.54464   0.19746   0.00000  Uiso   1.00
C162   C     0.75135   0.60007   0.18222   0.00000  Uiso   1.00
C163   C     0.54395   0.45536   0.13588   0.00000  Uiso   1.00
C164   C     0.97115   0.41131   0.09676   0.00000  Uiso   1.00
C165   C     0.52885   0.58869   0.23657   0.00000  Uiso   1.00
C166   C     0.94656   0.36507   0.05465   0.00000  Uiso   1.00
C167   C     0.55344   0.63493   0.27868   0.00000  Uiso   1.00
C168   C     0.51784   0.41165   0.10153   0.00000  Uiso   1.00
C169   C     0.98216   0.58835   0.23180   0.00000  Uiso   1.00
C170   C     0.74801   0.34397   0.14236   0.00000  Uiso   1.00
C171   C     0.75199   0.65603   0.19097   0.00000  Uiso   1.00
C172   C     0.66459   0.49975   0.16764   0.00000  Uiso   1.00
C173   C     0.83541   0.50025   0.16569   0.00000  Uiso   1.00
C174   C     0.90956   0.54466   0.19636   0.00000  Uiso   1.00
Cu175  Cu    0.75501   0.50579   0.22813   0.00000  Uiso   1.00
Cu176  Cu    0.74500   0.49421   0.10521   0.00000  Uiso   1.00
F177   F     0.88939   0.58722   0.22775   0.00000  Uiso   1.00
F178   F     0.61061   0.41278   0.10558   0.00000  Uiso   1.00
F179   F     0.87530   0.41357   0.10331   0.00000  Uiso   1.00
F180   F     0.62470   0.58643   0.23003   0.00000  Uiso   1.00
H181   H     0.53401   0.37788   0.07646   0.00000  Uiso   1.00
H182   H     0.96599   0.62212   0.25687   0.00000  Uiso   1.00
H183   H     0.74424   0.65349   0.09550   0.00000  Uiso   1.00
H184   H     0.75576   0.34651   0.23784   0.00000  Uiso   1.00
H185   H     0.71506   0.45930   0.31628   0.00000  Uiso   1.00
H186   H     0.78494   0.54070   0.01705   0.00000  Uiso   1.00
H187   H     0.91684   0.36991   0.02655   0.00000  Uiso   1.00
H188   H     0.58316   0.63009   0.30678   0.00000  Uiso   1.00
N189   N     0.73745   0.48547   0.01284   0.00000  Uiso   1.00
N190   N     0.76256   0.51453   0.32049   0.00000  Uiso   1.00
O191   O     0.75326   0.42871   0.20659   0.00000  Uiso   1.00
O192   O     0.53983   0.34580   0.28367   0.00000  Uiso   1.00
O193   O     0.74675   0.57129   0.12674   0.00000  Uiso   1.00
O194   O     0.74480   0.41892   0.10279   0.00000  Uiso   1.00
O195   O     0.75520   0.58108   0.23055   0.00000  Uiso   1.00
O196   O     0.68936   0.50488   0.21857   0.00000  Uiso   1.00
O197   O     0.81065   0.49512   0.11476   0.00000  Uiso   1.00
O198   O     0.68090   0.49510   0.11477   0.00000  Uiso   1.00
O199   O     0.81910   0.50490   0.21857   0.00000  Uiso   1.00
O200   O     0.96017   0.65420   0.04966   0.00000  Uiso   1.00
C201   C     0.24865   0.73327   0.15112   0.00000  Uiso   1.00
C202   C     0.09044   0.78868   0.13697   0.00000  Uiso   1.00
C203   C     0.38347   0.83399   0.16349   0.00000  Uiso   1.00
C204   C     0.11653   0.83267   0.16984   0.00000  Uiso   1.00
C205   C     0.40284   0.78972   0.13039   0.00000  Uiso   1.00
C206   C     0.09716   0.87694   0.20295   0.00000  Uiso   1.00
C207   C     0.44980   0.78883   0.12959   0.00000  Uiso   1.00
C208   C     0.05020   0.87783   0.20375   0.00000  Uiso   1.00
C209   C     0.47647   0.83335   0.16501   0.00000  Uiso   1.00
C210   C     0.02353   0.83332   0.16833   0.00000  Uiso   1.00
C211   C     0.45605   0.87797   0.19746   0.00000  Uiso   1.00
C212   C     0.25135   0.93340   0.18222   0.00000  Uiso   1.00
C213   C     0.04395   0.78869   0.13588   0.00000  Uiso   1.00
C214   C     0.47115   0.74464   0.09676   0.00000  Uiso   1.00
C215   C     0.02885   0.92203   0.23657   0.00000  Uiso   1.00
C216   C     0.44656   0.69841   0.05465   0.00000  Uiso   1.00
C217   C     0.05344   0.96826   0.27868   0.00000  Uiso   1.00
C218   C     0.01784   0.74498   0.10153   0.00000  Uiso   1.00
C219   C     0.48216   0.92169   0.23180   0.00000  Uiso   1.00
C220   C     0.24801   0.67730   0.14236   0.00000  Uiso   1.00
C221   C     0.25199   0.98936   0.19097   0.00000  Uiso   1.00
C222   C     0.16459   0.83308   0.16764   0.00000  Uiso   1.00
C223   C     0.33541   0.83359   0.16569   0.00000  Uiso   1.00
C224   C     0.40956   0.87799   0.19636   0.00000  Uiso   1.00
Cu225  Cu    0.25501   0.83913   0.22813   0.00000  Uiso   1.00
Cu226  Cu    0.24500   0.82754   0.10521   0.00000  Uiso   1.00
F227   F     0.38939   0.92055   0.22775   0.00000  Uiso   1.00
F228   F     0.11061   0.74612   0.10558   0.00000  Uiso   1.00
F229   F     0.37530   0.74690   0.10331   0.00000  Uiso   1.00
F230   F     0.12470   0.91977   0.23003   0.00000  Uiso   1.00
H231   H     0.03401   0.71121   0.07646   0.00000  Uiso   1.00
H232   H     0.46599   0.95546   0.25687   0.00000  Uiso   1.00
H233   H     0.24424   0.98682   0.09550   0.00000  Uiso   1.00
H234   H     0.25576   0.67985   0.23784   0.00000  Uiso   1.00
H235   H     0.21506   0.79263   0.31628   0.00000  Uiso   1.00
H236   H     0.28494   0.87403   0.01705   0.00000  Uiso   1.00
H237   H     0.41684   0.70324   0.02655   0.00000  Uiso   1.00
H238   H     0.08316   0.96342   0.30678   0.00000  Uiso   1.00
N239   N     0.23745   0.81881   0.01284   0.00000  Uiso   1.00
N240   N     0.26256   0.84786   0.32049   0.00000  Uiso   1.00
O241   O     0.25326   0.76204   0.20659   0.00000  Uiso   1.00
O242   O     0.03983   0.67913   0.28367   0.00000  Uiso   1.00
O243   O     0.24675   0.90462   0.12674   0.00000  Uiso   1.00
O244   O     0.24480   0.75226   0.10279   0.00000  Uiso   1.00
O245   O     0.25520   0.91441   0.23055   0.00000  Uiso   1.00
O246   O     0.18936   0.83821   0.21857   0.00000  Uiso   1.00
O247   O     0.31065   0.82845   0.11476   0.00000  Uiso   1.00
O248   O     0.18090   0.82843   0.11477   0.00000  Uiso   1.00
O249   O     0.31910   0.83824   0.21857   0.00000  Uiso   1.00
O250   O     0.46017   0.98753   0.04966   0.00000  Uiso   1.00
C251   C     0.74865   0.73327   0.15112   0.00000  Uiso   1.00
C252   C     0.59044   0.78868   0.13697   0.00000  Uiso   1.00
C253   C     0.88347   0.83399   0.16349   0.00000  Uiso   1.00
C254   C     0.61653   0.83267   0.16984   0.00000  Uiso   1.00
C255   C     0.90284   0.78972   0.13039   0.00000  Uiso   1.00
C256   C     0.59716   0.87694   0.20295   0.00000  Uiso   1.00
C257   C     0.94980   0.78883   0.12959   0.00000  Uiso   1.00
C258   C     0.55020   0.87783   0.20375   0.00000  Uiso   1.00
C259   C     0.97647   0.83335   0.16501   0.00000  Uiso   1.00
C260   C     0.52353   0.83332   0.16833   0.00000  Uiso   1.00
C261   C     0.95605   0.87797   0.19746   0.00000  Uiso   1.00
C262   C     0.75135   0.93340   0.18222   0.00000  Uiso   1.00
C263   C     0.54395   0.78869   0.13588   0.00000  Uiso   1.00
C264   C     0.97115   0.74464   0.09676   0.00000  Uiso   1.00
C265   C     0.52885   0.92203   0.23657   0.00000  Uiso   1.00
C266   C     0.94656   0.69841   0.05465   0.00000  Uiso   1.00
C267   C     0.55344   0.96826   0.27868   0.00000  Uiso   1.00
C268   C     0.51784   0.74498   0.10153   0.00000  Uiso   1.00
C269   C     0.98216   0.92169   0.23180   0.00000  Uiso   1.00
C270   C     0.74801   0.67730   0.14236   0.00000  Uiso   1.00
C271   C     0.75199   0.98936   0.19097   0.00000  Uiso   1.00
C272   C     0.66459   0.83308   0.16764   0.00000  Uiso   1.00
C273   C     0.83541   0.83359   0.16569   0.00000  Uiso   1.00
C274   C     0.90956   0.87799   0.19636   0.00000  Uiso   1.00
Cu275  Cu    0.75501   0.83913   0.22813   0.00000  Uiso   1.00
Cu276  Cu    0.74500   0.82754   0.10521   0.00000  Uiso   1.00
F277   F     0.88939   0.92055   0.22775   0.00000  Uiso   1.00
F278   F     0.61061   0.74612   0.10558   0.00000  Uiso   1.00
F279   F     0.87530   0.74690   0.10331   0.00000  Uiso   1.00
F280   F     0.62470   0.91977   0.23003   0.00000  Uiso   1.00
H281   H     0.53401   0.71121   0.07646   0.00000  Uiso   1.00
H282   H     0.96599   0.95546   0.25687   0.00000  Uiso   1.00
H283   H     0.74424   0.98682   0.09550   0.00000  Uiso   1.00
H284   H     0.75576   0.67985   0.23784   0.00000  Uiso   1.00
H285   H     0.71506   0.79263   0.31628   0.00000  Uiso   1.00
H286   H     0.78494   0.87403   0.01705   0.00000  Uiso   1.00
H287   H     0.91684   0.70324   0.02655   0.00000  Uiso   1.00
H288   H     0.58316   0.96342   0.30678   0.00000  Uiso   1.00
N289   N     0.73745   0.81881   0.01284   0.00000  Uiso   1.00
N290   N     0.76256   0.84786   0.32049   0.00000  Uiso   1.00
O291   O     0.75326   0.76204   0.20659   0.00000  Uiso   1.00
O292   O     0.53983   0.67913   0.28367   0.00000  Uiso   1.00
O293   O     0.74675   0.90462   0.12674   0.00000  Uiso   1.00
O294   O     0.74480   0.75226   0.10279   0.00000  Uiso   1.00
O295   O     0.75520   0.91441   0.23055   0.00000  Uiso   1.00
O296   O     0.68936   0.83821   0.21857   0.00000  Uiso   1.00
O297   O     0.81065   0.82845   0.11476   0.00000  Uiso   1.00
O298   O     0.68090   0.82843   0.11477   0.00000  Uiso   1.00
O299   O     0.81910   0.83824   0.21857   0.00000  Uiso   1.00
O300   O     0.96017   0.98753   0.04966   0.00000  Uiso   1.00
C301   C     0.24865   0.06660   0.48445   0.00000  Uiso   1.00
C302   C     0.09044   0.12201   0.47031   0.00000  Uiso   1.00
C303   C     0.38347   0.16733   0.49682   0.00000  Uiso   1.00
C304   C     0.11653   0.16601   0.50318   0.00000  Uiso   1.00
C305   C     0.40284   0.12306   0.46372   0.00000  Uiso   1.00
C306   C     0.09716   0.21028   0.53628   0.00000  Uiso   1.00
C307   C     0.44980   0.12217   0.46292   0.00000  Uiso   1.00
C308   C     0.05020   0.21117   0.53708   0.00000  Uiso   1.00
C309   C     0.47647   0.16668   0.49834   0.00000  Uiso   1.00
C310   C     0.02353   0.16665   0.50166   0.00000  Uiso   1.00
C311   C     0.45605   0.21131   0.53079   0.00000  Uiso   1.00
C312   C     0.25135   0.26673   0.51555   0.00000  Uiso   1.00
C313   C     0.04395   0.12203   0.46921   0.00000  Uiso   1.00
C314   C     0.47115   0.07797   0.43010   0.00000  Uiso   1.00
C315   C     0.02885   0.25536   0.56990   0.00000  Uiso   1.00
C316   C     0.44656   0.03174   0.38798   0.00000  Uiso   1.00
C317   C     0.05344   0.30159   0.61202   0.00000  Uiso   1.00
C318   C     0.01784   0.07831   0.43486   0.00000  Uiso   1.00
C319   C     0.48216   0.25502   0.56514   0.00000  Uiso   1.00
C320   C     0.24801   0.01063   0.47569   0.00000  Uiso   1.00
C321   C     0.25199   0.32270   0.52431   0.00000  Uiso   1.00
C322   C     0.16459   0.16641   0.50097   0.00000  Uiso   1.00
C323   C     0.33541   0.16692   0.49903   0.00000  Uiso   1.00
C324   C     0.40956   0.21132   0.52969   0.00000  Uiso   1.00
Cu325  Cu    0.25501   0.17246   0.56146   0.00000  Uiso   1.00
Cu326  Cu    0.24500   0.16087   0.43854   0.00000  Uiso   1.00
F327   F     0.38939   0.25388   0.56109   0.00000  Uiso   1.00
F328   F     0.11061   0.07945   0.43891   0.00000  Uiso   1.00
F329   F     0.37530   0.08023   0.43664   0.00000  Uiso   1.00
F330   F     0.12470   0.25310   0.56336   0.00000  Uiso   1.00
H331   H     0.03401   0.04454   0.40980   0.00000  Uiso   1.00
H332   H     0.46599   0.28879   0.59020   0.00000  Uiso   1.00
H333   H     0.24424   0.32015   0.42883   0.00000  Uiso   1.00
H334   H     0.25576   0.01318   0.57117   0.00000  Uiso   1.00
H335   H     0.21506   0.12597   0.64962   0.00000  Uiso   1.00
H336   H     0.28494   0.20737   0.35038   0.00000  Uiso   1.00
H337   H     0.41684   0.03658   0.35989   0.00000  Uiso   1.00
H338   H     0.08316   0.29676   0.64011   0.00000  Uiso   1.00
N339   N     0.23745   0.15214   0.34617   0.00000  Uiso   1.00
N340   N     0.26256   0.18119   0.65383   0.00000  Uiso   1.00
O341   O     0.25326   0.09538   0.53992   0.00000  Uiso   1.00
O342   O     0.03983   0.01247   0.61701   0.00000  Uiso   1.00
O343   O     0.24675   0.23796   0.46008   0.00000  Uiso   1.00
O344   O     0.24480   0.08559   0.43612   0.00000  Uiso   1.00
O345   O     0.25520   0.24774   0.56388   0.00000  Uiso   1.00
O346   O     0.18936   0.17155   0.55191   0.00000  Uiso   1.00
O347   O     0.31065   0.16179   0.44809   0.00000  Uiso   1.00
O348   O     0.18090   0.16176   0.44810   0.00000  Uiso   1.00
O349   O     0.31910   0.17157   0.55190   0.00000  Uiso   1.00
O350   O     0.46017   0.32087   0.38299   0.00000  Uiso   1.00
C351   C     0.74865   0.06660   0.48445   0.00000  Uiso   1.00
C352   C     0.59044   0.12201   0.47031   0.00000  Uiso   1.00
C353   C     0.88347   0.16733   0.49682   0.00000  Uiso   1.00
C354   C     0.61653   0.16601   0.50318   0.00000  Uiso   1.00
C355   C     0.90284   0.12306   0.46372   0.00000  Uiso   1.00
C356   C     0.59716   0.21028   0.53628   0.00000  Uiso   1.00
C357   C     0.94980   0.12217   0.46292   0.00000  Uiso   1.00
C358   C     0.55020   0.21117   0.53708   0.00000  Uiso   1.00
C359   C     0.97647   0.16668   0.49834   0.00000  Uiso   1.00
C360   C     0.52353   0.16665   0.50166   0.00000  Uiso   1.00
C361   C     0.95605   0.21131   0.53079   0.00000  Uiso   1.00
C362   C     0.75135   0.26673   0.51555   0.00000  Uiso   1.00
C363   C     0.54395   0.12203   0.46921   0.00000  Uiso   1.00
C364   C     0.97115   0.07797   0.43010   0.00000  Uiso   1.00
C365   C     0.52885   0.25536   0.56990   0.00000  Uiso   1.00
C366   C     0.94656   0.03174   0.38798   0.00000  Uiso   1.00
C367   C     0.55344   0.30159   0.61202   0.00000  Uiso   1.00
C368   C     0.51784   0.07831   0.43486   0.00000  Uiso   1.00
C369   C     0.98216   0.25502   0.56514   0.00000  Uiso   1.00
C370   C     0.74801   0.01063   0.47569   0.00000  Uiso   1.00
C371   C     0.75199   0.32270   0.52431   0.00000  Uiso   1.00
C372   C     0.66459   0.16641   0.50097   0.00000  Uiso   1.00
C373   C     0.83541   0.16692   0.49903   0.00000  Uiso   1.00
C374   C     0.90956   0.21132   0.52969   0.00000  Uiso   1.00
Cu375  Cu    0.75501   0.17246   0.56146   0.00000  Uiso   1.00
Cu376  Cu    0.74500   0.16087   0.43854   0.00000  Uiso   1.00
F377   F     0.88939   0.25388   0.56109   0.00000  Uiso   1.00
F378   F     0.61061   0.07945   0.43891   0.00000  Uiso   1.00
F379   F     0.87530   0.08023   0.43664   0.00000  Uiso   1.00
F380   F     0.62470   0.25310   0.56336   0.00000  Uiso   1.00
H381   H     0.53401   0.04454   0.40980   0.00000  Uiso   1.00
H382   H     0.96599   0.28879   0.59020   0.00000  Uiso   1.00
H383   H     0.74424   0.32015   0.42883   0.00000  Uiso   1.00
H384   H     0.75576   0.01318   0.57117   0.00000  Uiso   1.00
H385   H     0.71506   0.12597   0.64962   0.00000  Uiso   1.00
H386   H     0.78494   0.20737   0.35038   0.00000  Uiso   1.00
H387   H     0.91684   0.03658   0.35989   0.00000  Uiso   1.00
H388   H     0.58316   0.29676   0.64011   0.00000  Uiso   1.00
N389   N     0.73745   0.15214   0.34617   0.00000  Uiso   1.00
N390   N     0.76256   0.18119   0.65383   0.00000  Uiso   1.00
O391   O     0.75326   0.09538   0.53992   0.00000  Uiso   1.00
O392   O     0.53983   0.01247   0.61701   0.00000  Uiso   1.00
O393   O     0.74675   0.23796   0.46008   0.00000  Uiso   1.00
O394   O     0.74480   0.08559   0.43612   0.00000  Uiso   1.00
O395   O     0.75520   0.24774   0.56388   0.00000  Uiso   1.00
O396   O     0.68936   0.17155   0.55191   0.00000  Uiso   1.00
O397   O     0.81065   0.16179   0.44809   0.00000  Uiso   1.00
O398   O     0.68090   0.16176   0.44810   0.00000  Uiso   1.00
O399   O     0.81910   0.17157   0.55190   0.00000  Uiso   1.00
O400   O     0.96017   0.32087   0.38299   0.00000  Uiso   1.00
C401   C     0.24865   0.39993   0.48445   0.00000  Uiso   1.00
C402   C     0.09044   0.45534   0.47031   0.00000  Uiso   1.00
C403   C     0.38347   0.50066   0.49682   0.00000  Uiso   1.00
C404   C     0.11653   0.49934   0.50318   0.00000  Uiso   1.00
C405   C     0.40284   0.45639   0.46372   0.00000  Uiso   1.00
C406   C     0.09716   0.54361   0.53628   0.00000  Uiso   1.00
C407   C     0.44980   0.45550   0.46292   0.00000  Uiso   1.00
C408   C     0.05020   0.54450   0.53708   0.00000  Uiso   1.00
C409   C     0.47647   0.50001   0.49834   0.00000  Uiso   1.00
C410   C     0.02353   0.49999   0.50166   0.00000  Uiso   1.00
C411   C     0.45605   0.54464   0.53079   0.00000  Uiso   1.00
C412   C     0.25135   0.60007   0.51555   0.00000  Uiso   1.00
C413   C     0.04395   0.45536   0.46921   0.00000  Uiso   1.00
C414   C     0.47115   0.41131   0.43010   0.00000  Uiso   1.00
C415   C     0.02885   0.58869   0.56990   0.00000  Uiso   1.00
C416   C     0.44656   0.36507   0.38798   0.00000  Uiso   1.00
C417   C     0.05344   0.63493   0.61202   0.00000  Uiso   1.00
C418   C     0.01784   0.41165   0.43486   0.00000  Uiso   1.00
C419   C     0.48216   0.58835   0.56514   0.00000  Uiso   1.00
C420   C     0.24801   0.34397   0.47569   0.00000  Uiso   1.00
C421   C     0.25199   0.65603   0.52431   0.00000  Uiso   1.00
C422   C     0.16459   0.49975   0.50097   0.00000  Uiso   1.00
C423   C     0.33541   0.50025   0.49903   0.00000  Uiso   1.00
C424   C     0.40956   0.54466   0.52969   0.00000  Uiso   1.00
Cu425  Cu    0.25501   0.50579   0.56146   0.00000  Uiso   1.00
Cu426  Cu    0.24500   0.49421   0.43854   0.00000  Uiso   1.00
F427   F     0.38939   0.58722   0.56109   0.00000  Uiso   1.00
F428   F     0.11061   0.41278   0.43891   0.00000  Uiso   1.00
F429   F     0.37530   0.41357   0.43664   0.00000  Uiso   1.00
F430   F     0.12470   0.58643   0.56336   0.00000  Uiso   1.00
H431   H     0.03401   0.37788   0.40980   0.00000  Uiso   1.00
H432   H     0.46599   0.62212   0.59020   0.00000  Uiso   1.00
H433   H     0.24424   0.65349   0.42883   0.00000  Uiso   1.00
H434   H     0.25576   0.34651   0.57117   0.00000  Uiso   1.00
H435   H     0.21506   0.45930   0.64962   0.00000  Uiso   1.00
H436   H     0.28494   0.54070   0.35038   0.00000  Uiso   1.00
H437   H     0.41684   0.36991   0.35989   0.00000  Uiso   1.00
H438   H     0.08316   0.63009   0.64011   0.00000  Uiso   1.00
N439   N     0.23745   0.48547   0.34617   0.00000  Uiso   1.00
N440   N     0.26256   0.51453   0.65383   0.00000  Uiso   1.00
O441   O     0.25326   0.42871   0.53992   0.00000  Uiso   1.00
O442   O     0.03983   0.34580   0.61701   0.00000  Uiso   1.00
O443   O     0.24675   0.57129   0.46008   0.00000  Uiso   1.00
O444   O     0.24480   0.41892   0.43612   0.00000  Uiso   1.00
O445   O     0.25520   0.58108   0.56388   0.00000  Uiso   1.00
O446   O     0.18936   0.50488   0.55191   0.00000  Uiso   1.00
O447   O     0.31065   0.49512   0.44809   0.00000  Uiso   1.00
O448   O     0.18090   0.49510   0.44810   0.00000  Uiso   1.00
O449   O     0.31910   0.50490   0.55190   0.00000  Uiso   1.00
O450   O     0.46017   0.65420   0.38299   0.00000  Uiso   1.00
C451   C     0.74865   0.39993   0.48445   0.00000  Uiso   1.00
C452   C     0.59044   0.45534   0.47031   0.00000  Uiso   1.00
C453   C     0.88347   0.50066   0.49682   0.00000  Uiso   1.00
C454   C     0.61653   0.49934   0.50318   0.00000  Uiso   1.00
C455   C     0.90284   0.45639   0.46372   0.00000  Uiso   1.00
C456   C     0.59716   0.54361   0.53628   0.00000  Uiso   1.00
C457   C     0.94980   0.45550   0.46292   0.00000  Uiso   1.00
C458   C     0.55020   0.54450   0.53708   0.00000  Uiso   1.00
C459   C     0.97647   0.50001   0.49834   0.00000  Uiso   1.00
C460   C     0.52353   0.49999   0.50166   0.00000  Uiso   1.00
C461   C     0.95605   0.54464   0.53079   0.00000  Uiso   1.00
C462   C     0.75135   0.60007   0.51555   0.00000  Uiso   1.00
C463   C     0.54395   0.45536   0.46921   0.00000  Uiso   1.00
C464   C     0.97115   0.41131   0.43010   0.00000  Uiso   1.00
C465   C     0.52885   0.58869   0.56990   0.00000  Uiso   1.00
C466   C     0.94656   0.36507   0.38798   0.00000  Uiso   1.00
C467   C     0.55344   0.63493   0.61202   0.00000  Uiso   1.00
C468   C     0.51784   0.41165   0.43486   0.00000  Uiso   1.00
C469   C     0.98216   0.58835   0.56514   0.00000  Uiso   1.00
C470   C     0.74801   0.34397   0.47569   0.00000  Uiso   1.00
C471   C     0.75199   0.65603   0.52431   0.00000  Uiso   1.00
C472   C     0.66459   0.49975   0.50097   0.00000  Uiso   1.00
C473   C     0.83541   0.50025   0.49903   0.00000  Uiso   1.00
C474   C     0.90956   0.54466   0.52969   0.00000  Uiso   1.00
Cu475  Cu    0.75501   0.50579   0.56146   0.00000  Uiso   1.00
Cu476  Cu    0.74500   0.49421   0.43854   0.00000  Uiso   1.00
F477   F     0.88939   0.58722   0.56109   0.00000  Uiso   1.00
F478   F     0.61061   0.41278   0.43891   0.00000  Uiso   1.00
F479   F     0.87530   0.41357   0.43664   0.00000  Uiso   1.00
F480   F     0.62470   0.58643   0.56336   0.00000  Uiso   1.00
H481   H     0.53401   0.37788   0.40980   0.00000  Uiso   1.00
H482   H     0.96599   0.62212   0.59020   0.00000  Uiso   1.00
H483   H     0.74424   0.65349   0.42883   0.00000  Uiso   1.00
H484   H     0.75576   0.34651   0.57117   0.00000  Uiso   1.00
H485   H     0.71506   0.45930   0.64962   0.00000  Uiso   1.00
H486   H     0.78494   0.54070   0.35038   0.00000  Uiso   1.00
H487   H     0.91684   0.36991   0.35989   0.00000  Uiso   1.00
H488   H     0.58316   0.63009   0.64011   0.00000  Uiso   1.00
N489   N     0.73745   0.48547   0.34617   0.00000  Uiso   1.00
N490   N     0.76256   0.51453   0.65383   0.00000  Uiso   1.00
O491   O     0.75326   0.42871   0.53992   0.00000  Uiso   1.00
O492   O     0.53983   0.34580   0.61701   0.00000  Uiso   1.00
O493   O     0.74675   0.57129   0.46008   0.00000  Uiso   1.00
O494   O     0.74480   0.41892   0.43612   0.00000  Uiso   1.00
O495   O     0.75520   0.58108   0.56388   0.00000  Uiso   1.00
O496   O     0.68936   0.50488   0.55191   0.00000  Uiso   1.00
O497   O     0.81065   0.49512   0.44809   0.00000  Uiso   1.00
O498   O     0.68090   0.49510   0.44810   0.00000  Uiso   1.00
O499   O     0.81910   0.50490   0.55190   0.00000  Uiso   1.00
O500   O     0.96017   0.65420   0.38299   0.00000  Uiso   1.00
C501   C     0.24865   0.73327   0.48445   0.00000  Uiso   1.00
C502   C     0.09044   0.78868   0.47031   0.00000  Uiso   1.00
C503   C     0.38347   0.83399   0.49682   0.00000  Uiso   1.00
C504   C     0.11653   0.83267   0.50318   0.00000  Uiso   1.00
C505   C     0.40284   0.78972   0.46372   0.00000  Uiso   1.00
C506   C     0.09716   0.87694   0.53628   0.00000  Uiso   1.00
C507   C     0.44980   0.78883   0.46292   0.00000  Uiso   1.00
C508   C     0.05020   0.87783   0.53708   0.00000  Uiso   1.00
C509   C     0.47647   0.83335   0.49834   0.00000  Uiso   1.00
C510   C     0.02353   0.83332   0.50166   0.00000  Uiso   1.00
C511   C     0.45605   0.87797   0.53079   0.00000  Uiso   1.00
C512   C     0.25135   0.93340   0.51555   0.00000  Uiso   1.00
C513   C     0.04395   0.78869   0.46921   0.00000  Uiso   1.00
C514   C     0.47115   0.74464   0.43010   0.00000  Uiso   1.00
C515   C     0.02885   0.92203   0.56990   0.00000  Uiso   1.00
C516   C     0.44656   0.69841   0.38798   0.00000  Uiso   1.00
C517   C     0.05344   0.96826   0.61202   0.00000  Uiso   1.00
C518   C     0.01784   0.74498   0.43486   0.00000  Uiso   1.00
C519   C     0.48216   0.92169   0.56514   0.00000  Uiso   1.00
C520   C     0.24801   0.67730   0.47569   0.00000  Uiso   1.00
C521   C     0.25199   0.98936   0.52431   0.00000  Uiso   1.00
C522   C     0.16459   0.83308   0.50097   0.00000  Uiso   1.00
C523   C     0.33541   0.83359   0.49903   0.00000  Uiso   1.00
C524   C     0.40956   0.87799   0.52969   0.00000  Uiso   1.00
Cu525  Cu    0.25501   0.83913   0.56146   0.00000  Uiso   1.00
Cu526  Cu    0.24500   0.82754   0.43854   0.00000  Uiso   1.00
F527   F     0.38939   0.92055   0.56109   0.00000  Uiso   1.00
F528   F     0.11061   0.74612   0.43891   0.00000  Uiso   1.00
F529   F     0.37530   0.74690   0.43664   0.00000  Uiso   1.00
F530   F     0.12470   0.91977   0.56336   0.00000  Uiso   1.00
H531   H     0.03401   0.71121   0.40980   0.00000  Uiso   1.00
H532   H     0.46599   0.95546   0.59020   0.00000  Uiso   1.00
H533   H     0.24424   0.98682   0.42883   0.00000  Uiso   1.00
H534   H     0.25576   0.67985   0.57117   0.00000  Uiso   1.00
H535   H     0.21506   0.79263   0.64962   0.00000  Uiso   1.00
H536   H     0.28494   0.87403   0.35038   0.00000  Uiso   1.00
H537   H     0.41684   0.70324   0.35989   0.00000  Uiso   1.00
H538   H     0.08316   0.96342   0.64011   0.00000  Uiso   1.00
N539   N     0.23745   0.81881   0.34617   0.00000  Uiso   1.00
N540   N     0.26256   0.84786   0.65383   0.00000  Uiso   1.00
O541   O     0.25326   0.76204   0.53992   0.00000  Uiso   1.00
O542   O     0.03983   0.67913   0.61701   0.00000  Uiso   1.00
O543   O     0.24675   0.90462   0.46008   0.00000  Uiso   1.00
O544   O     0.24480   0.75226   0.43612   0.00000  Uiso   1.00
O545   O     0.25520   0.91441   0.56388   0.00000  Uiso   1.00
O546   O     0.18936   0.83821   0.55191   0.00000  Uiso   1.00
O547   O     0.31065   0.82845   0.44809   0.00000  Uiso   1.00
O548   O     0.18090   0.82843   0.44810   0.00000  Uiso   1.00
O549   O     0.31910   0.83824   0.55190   0.00000  Uiso   1.00
O550   O     0.46017   0.98753   0.38299   0.00000  Uiso   1.00
C551   C     0.74865   0.73327   0.48445   0.00000  Uiso   1.00
C552   C     0.59044   0.78868   0.47031   0.00000  Uiso   1.00
C553   C     0.88347   0.83399   0.49682   0.00000  Uiso   1.00
C554   C     0.61653   0.83267   0.50318   0.00000  Uiso   1.00
C555   C     0.90284   0.78972   0.46372   0.00000  Uiso   1.00
C556   C     0.59716   0.87694   0.53628   0.00000  Uiso   1.00
C557   C     0.94980   0.78883   0.46292   0.00000  Uiso   1.00
C558   C     0.55020   0.87783   0.53708   0.00000  Uiso   1.00
C559   C     0.97647   0.83335   0.49834   0.00000  Uiso   1.00
C560   C     0.52353   0.83332   0.50166   0.00000  Uiso   1.00
C561   C     0.95605   0.87797   0.53079   0.00000  Uiso   1.00
C562   C     0.75135   0.93340   0.51555   0.00000  Uiso   1.00
C563   C     0.54395   0.78869   0.46921   0.00000  Uiso   1.00
C564   C     0.97115   0.74464   0.43010   0.00000  Uiso   1.00
C565   C     0.52885   0.92203   0.56990   0.00000  Uiso   1.00
C566   C     0.94656   0.69841   0.38798   0.00000  Uiso   1.00
C567   C     0.55344   0.96826   0.61202   0.00000  Uiso   1.00
C568   C     0.51784   0.74498   0.43486   0.00000  Uiso   1.00
C569   C     0.98216   0.92169   0.56514   0.00000  Uiso   1.00
C570   C     0.74801   0.67730   0.47569   0.00000  Uiso   1.00
C571   C     0.75199   0.98936   0.52431   0.00000  Uiso   1.00
C572   C     0.66459   0.83308   0.50097   0.00000  Uiso   1.00
C573   C     0.83541   0.83359   0.49903   0.00000  Uiso   1.00
C574   C     0.90956   0.87799   0.52969   0.00000  Uiso   1.00
Cu575  Cu    0.75501   0.83913   0.56146   0.00000  Uiso   1.00
Cu576  Cu    0.74500   0.82754   0.43854   0.00000  Uiso   1.00
F577   F     0.88939   0.92055   0.56109   0.00000  Uiso   1.00
F578   F     0.61061   0.74612   0.43891   0.00000  Uiso   1.00
F579   F     0.87530   0.74690   0.43664   0.00000  Uiso   1.00
F580   F     0.62470   0.91977   0.56336   0.00000  Uiso   1.00
H581   H     0.53401   0.71121   0.40980   0.00000  Uiso   1.00
H582   H     0.96599   0.95546   0.59020   0.00000  Uiso   1.00
H583   H     0.74424   0.98682   0.42883   0.00000  Uiso   1.00
H584   H     0.75576   0.67985   0.57117   0.00000  Uiso   1.00
H585   H     0.71506   0.79263   0.64962   0.00000  Uiso   1.00
H586   H     0.78494   0.87403   0.35038   0.00000  Uiso   1.00
H587   H     0.91684   0.70324   0.35989   0.00000  Uiso   1.00
H588   H     0.58316   0.96342   0.64011   0.00000  Uiso   1.00
N589   N     0.73745   0.81881   0.34617   0.00000  Uiso   1.00
N590   N     0.76256   0.84786   0.65383   0.00000  Uiso   1.00
O591   O     0.75326   0.76204   0.53992   0.00000  Uiso   1.00
O592   O     0.53983   0.67913   0.61701   0.00000  Uiso   1.00
O593   O     0.74675   0.90462   0.46008   0.00000  Uiso   1.00
O594   O     0.74480   0.75226   0.43612   0.00000  Uiso   1.00
O595   O     0.75520   0.91441   0.56388   0.00000  Uiso   1.00
O596   O     0.68936   0.83821   0.55191   0.00000  Uiso   1.00
O597   O     0.81065   0.82845   0.44809   0.00000  Uiso   1.00
O598   O     0.68090   0.82843   0.44810   0.00000  Uiso   1.00
O599   O     0.81910   0.83824   0.55190   0.00000  Uiso   1.00
O600   O     0.96017   0.98753   0.38299   0.00000  Uiso   1.00
C601   C     0.24865   0.06660   0.81778   0.00000  Uiso   1.00
C602   C     0.09044   0.12201   0.80364   0.00000  Uiso   1.00
C603   C     0.38347   0.16733   0.83016   0.00000  Uiso   1.00
C604   C     0.11653   0.16601   0.83651   0.00000  Uiso   1.00
C605   C     0.40284   0.12306   0.79705   0.00000  Uiso   1.00
C606   C     0.09716   0.21028   0.86961   0.00000  Uiso   1.00
C607   C     0.44980   0.12217   0.79625   0.00000  Uiso   1.00
C608   C     0.05020   0.21117   0.87041   0.00000  Uiso   1.00
C609   C     0.47647   0.16668   0.83167   0.00000  Uiso   1.00
C610   C     0.02353   0.16665   0.83499   0.00000  Uiso   1.00
C611   C     0.45605   0.21131   0.86412   0.00000  Uiso   1.00
C612   C     0.25135   0.26673   0.84888   0.00000  Uiso   1.00
C613   C     0.04395   0.12203   0.80254   0.00000  Uiso   1.00
C614   C     0.47115   0.07797   0.76343   0.00000  Uiso   1.00
C615   C     0.02885   0.25536   0.90324   0.00000  Uiso   1.00
C616   C     0.44656   0.03174   0.72132   0.00000  Uiso   1.00
C617   C     0.05344   0.30159   0.94535   0.00000  Uiso   1.00
C618   C     0.01784   0.07831   0.76819   0.00000  Uiso   1.00
C619   C     0.48216   0.25502   0.89847   0.00000  Uiso   1.00
C620   C     0.24801   0.01063   0.80903   0.00000  Uiso   1.00
C621   C     0.25199   0.32270   0.85764   0.00000  Uiso   1.00
C622   C     0.16459   0.16641   0.83431   0.00000  Uiso   1.00
C623   C     0.33541   0.16692   0.83236   0.00000  Uiso   1.00
C624   C     0.40956   0.21132   0.86303   0.00000  Uiso   1.00
Cu625  Cu    0.25501   0.17246   0.89479   0.00000  Uiso   1.00
Cu626  Cu    0.24500   0.16087   0.77187   0.00000  Uiso   1.00
F627   F     0.38939   0.25388   0.89442   0.00000  Uiso   1.00
F628   F     0.11061   0.07945   0.77225   0.00000  Uiso   1.00
F629   F     0.37530   0.08023   0.76997   0.00000  Uiso   1.00
F630   F     0.12470   0.25310   0.89669   0.00000  Uiso   1.00
H631   H     0.03401   0.04454   0.74313   0.00000  Uiso   1.00
H632   H     0.46599   0.28879   0.92354   0.00000  Uiso   1.00
H633   H     0.24424   0.32015   0.76216   0.00000  Uiso   1.00
H634   H     0.25576   0.01318   0.90450   0.00000  Uiso   1.00
H635   H     0.21506   0.12597   0.98295   0.00000  Uiso   1.00
H636   H     0.28494   0.20737   0.68372   0.00000  Uiso   1.00
H637   H     0.41684   0.03658   0.69322   0.00000  Uiso   1.00
H638   H     0.08316   0.29676   0.97344   0.00000  Uiso   1.00
N639   N     0.23745   0.15214   0.67951   0.00000  Uiso   1.00
N640   N     0.26256   0.18119   0.98716   0.00000  Uiso   1.00
O641   O     0.25326   0.09538   0.87326   0.00000  Uiso   1.00
O642   O     0.03983   0.01247   0.95034   0.00000  Uiso   1.00
O643   O     0.24675   0.23796   0.79341   0.00000  Uiso   1.00
O644   O     0.24480   0.08559   0.76945   0.00000  Uiso   1.00
O645   O     0.25520   0.24774   0.89721   0.00000  Uiso   1.00
O646   O     0.18936   0.17155   0.88524   0.00000  Uiso   1.00
O647   O     0.31065   0.16179   0.78143   0.00000  Uiso   1.00
O648   O     0.18090   0.16176   0.78143   0.00000  Uiso   1.00
O649   O     0.31910   0.17157   0.88523   0.00000  Uiso   1.00
O650   O     0.46017   0.32087   0.71632   0.00000  Uiso   1.00
C651   C     0.74865   0.06660   0.81778   0.00000  Uiso   1.00
C652   C     0.59044   0.12201   0.80364   0.00000  Uiso   1.00
C653   C     0.88347   0.16733   0.83016   0.00000  Uiso   1.00
C654   C     0.61653   0.16601   0.83651   0.00000  Uiso   1.00
C655   C     0.90284   0.12306   0.79705   0.00000  Uiso   1.00
C656   C     0.59716   0.21028   0.86961   0.00000  Uiso   1.00
C657   C     0.94980   0.12217   0.79625   0.00000  Uiso   1.00
C658   C     0.55020   0.21117   0.87041   0.00000  Uiso   1.00
C659   C     0.97647   0.16668   0.83167   0.00000  Uiso   1.00
C660   C     0.52353   0.16665   0.83499   0.00000  Uiso   1.00
C661   C     0.95605   0.21131   0.86412   0.00000  Uiso   1.00
C662   C     0.75135   0.26673   0.84888   0.00000  Uiso   1.00
C663   C     0.54395   0.12203   0.80254   0.00000  Uiso   1.00
C664   C     0.97115   0.07797   0.76343   0.00000  Uiso   1.00
C665   C     0.52885   0.25536   0.90324   0.00000  Uiso   1.00
C666   C     0.94656   0.03174   0.72132   0.00000  Uiso   1.00
C667   C     0.55344   0.30159   0.94535   0.00000  Uiso   1.00
C668   C     0.51784   0.07831   0.76819   0.00000  Uiso   1.00
C669   C     0.98216   0.25502   0.89847   0.00000  Uiso   1.00
C670   C     0.74801   0.01063   0.80903   0.00000  Uiso   1.00
C671   C     0.75199   0.32270   0.85764   0.00000  Uiso   1.00
C672   C     0.66459   0.16641   0.83431   0.00000  Uiso   1.00
C673   C     0.83541   0.16692   0.83236   0.00000  Uiso   1.00
C674   C     0.90956   0.21132   0.86303   0.00000  Uiso   1.00
Cu675  Cu    0.75501   0.17246   0.89479   0.00000  Uiso   1.00
Cu676  Cu    0.74500   0.16087   0.77187   0.00000  Uiso   1.00
F677   F     0.88939   0.25388   0.89442   0.00000  Uiso   1.00
F678   F     0.61061   0.07945   0.77225   0.00000  Uiso   1.00
F679   F     0.87530   0.08023   0.76997   0.00000  Uiso   1.00
F680   F     0.62470   0.25310   0.89669   0.00000  Uiso   1.00
H681   H     0.53401   0.04454   0.74313   0.00000  Uiso   1.00
H682   H     0.96599   0.28879   0.92354   0.00000  Uiso   1.00
H683   H     0.74424   0.32015   0.76216   0.00000  Uiso   1.00
H684   H     0.75576   0.01318   0.90450   0.00000  Uiso   1.00
H685   H     0.71506   0.12597   0.98295   0.00000  Uiso   1.00
H686   H     0.78494   0.20737   0.68372   0.00000  Uiso   1.00
H687   H     0.91684   0.03658   0.69322   0.00000  Uiso   1.00
H688   H     0.58316   0.29676   0.97344   0.00000  Uiso   1.00
N689   N     0.73745   0.15214   0.67951   0.00000  Uiso   1.00
N690   N     0.76256   0.18119   0.98716   0.00000  Uiso   1.00
O691   O     0.75326   0.09538   0.87326   0.00000  Uiso   1.00
O692   O     0.53983   0.01247   0.95034   0.00000  Uiso   1.00
O693   O     0.74675   0.23796   0.79341   0.00000  Uiso   1.00
O694   O     0.74480   0.08559   0.76945   0.00000  Uiso   1.00
O695   O     0.75520   0.24774   0.89721   0.00000  Uiso   1.00
O696   O     0.68936   0.17155   0.88524   0.00000  Uiso   1.00
O697   O     0.81065   0.16179   0.78143   0.00000  Uiso   1.00
O698   O     0.68090   0.16176   0.78143   0.00000  Uiso   1.00
O699   O     0.81910   0.17157   0.88523   0.00000  Uiso   1.00
O700   O     0.96017   0.32087   0.71632   0.00000  Uiso   1.00
C701   C     0.24865   0.39993   0.81778   0.00000  Uiso   1.00
C702   C     0.09044   0.45534   0.80364   0.00000  Uiso   1.00
C703   C     0.38347   0.50066   0.83016   0.00000  Uiso   1.00
C704   C     0.11653   0.49934   0.83651   0.00000  Uiso   1.00
C705   C     0.40284   0.45639   0.79705   0.00000  Uiso   1.00
C706   C     0.09716   0.54361   0.86961   0.00000  Uiso   1.00
C707   C     0.44980   0.45550   0.79625   0.00000  Uiso   1.00
C708   C     0.05020   0.54450   0.87041   0.00000  Uiso   1.00
C709   C     0.47647   0.50001   0.83167   0.00000  Uiso   1.00
C710   C     0.02353   0.49999   0.83499   0.00000  Uiso   1.00
C711   C     0.45605   0.54464   0.86412   0.00000  Uiso   1.00
C712   C     0.25135   0.60007   0.84888   0.00000  Uiso   1.00
C713   C     0.04395   0.45536   0.80254   0.00000  Uiso   1.00
C714   C     0.47115   0.41131   0.76343   0.00000  Uiso   1.00
C715   C     0.02885   0.58869   0.90324   0.00000  Uiso   1.00
C716   C     0.44656   0.36507   0.72132   0.00000  Uiso   1.00
C717   C     0.05344   0.63493   0.94535   0.00000  Uiso   1.00
C718   C     0.01784   0.41165   0.76819   0.00000  Uiso   1.00
C719   C     0.48216   0.58835   0.89847   0.00000  Uiso   1.00
C720   C     0.24801   0.34397   0.80903   0.00000  Uiso   1.00
C721   C     0.25199   0.65603   0.85764   0.00000  Uiso   1.00
C722   C     0.16459   0.49975   0.83431   0.00000  Uiso   1.00
C723   C     0.33541   0.50025   0.83236   0.00000  Uiso   1.00
C724   C     0.40956   0.54466   0.86303   0.00000  Uiso   1.00
Cu725  Cu    0.25501   0.50579   0.89479   0.00000  Uiso   1.00
Cu726  Cu    0.24500   0.49421   0.77187   0.00000  Uiso   1.00
F727   F     0.38939   0.58722   0.89442   0.00000  Uiso   1.00
F728   F     0.11061   0.41278   0.77225   0.00000  Uiso   1.00
F729   F     0.37530   0.41357   0.76997   0.00000  Uiso   1.00
F730   F     0.12470   0.58643   0.89669   0.00000  Uiso   1.00
H731   H     0.03401   0.37788   0.74313   0.00000  Uiso   1.00
H732   H     0.46599   0.62212   0.92354   0.00000  Uiso   1.00
H733   H     0.24424   0.65349   0.76216   0.00000  Uiso   1.00
H734   H     0.25576   0.34651   0.90450   0.00000  Uiso   1.00
H735   H     0.21506   0.45930   0.98295   0.00000  Uiso   1.00
H736   H     0.28494   0.54070   0.68372   0.00000  Uiso   1.00
H737   H     0.41684   0.36991   0.69322   0.00000  Uiso   1.00
H738   H     0.08316   0.63009   0.97344   0.00000  Uiso   1.00
N739   N     0.23745   0.48547   0.67951   0.00000  Uiso   1.00
N740   N     0.26256   0.51453   0.98716   0.00000  Uiso   1.00
O741   O     0.25326   0.42871   0.87326   0.00000  Uiso   1.00
O742   O     0.03983   0.34580   0.95034   0.00000  Uiso   1.00
O743   O     0.24675   0.57129   0.79341   0.00000  Uiso   1.00
O744   O     0.24480   0.41892   0.76945   0.00000  Uiso   1.00
O745   O     0.25520   0.58108   0.89721   0.00000  Uiso   1.00
O746   O     0.18936   0.50488   0.88524   0.00000  Uiso   1.00
O747   O     0.31065   0.49512   0.78143   0.00000  Uiso   1.00
O748   O     0.18090   0.49510   0.78143   0.00000  Uiso   1.00
O749   O     0.31910   0.50490   0.88523   0.00000  Uiso   1.00
O750   O     0.46017   0.65420   0.71632   0.00000  Uiso   1.00
C751   C     0.74865   0.39993   0.81778   0.00000  Uiso   1.00
C752   C     0.59044   0.45534   0.80364   0.00000  Uiso   1.00
C753   C     0.88347   0.50066   0.83016   0.00000  Uiso   1.00
C754   C     0.61653   0.49934   0.83651   0.00000  Uiso   1.00
C755   C     0.90284   0.45639   0.79705   0.00000  Uiso   1.00
C756   C     0.59716   0.54361   0.86961   0.00000  Uiso   1.00
C757   C     0.94980   0.45550   0.79625   0.00000  Uiso   1.00
C758   C     0.55020   0.54450   0.87041   0.00000  Uiso   1.00
C759   C     0.97647   0.50001   0.83167   0.00000  Uiso   1.00
C760   C     0.52353   0.49999   0.83499   0.00000  Uiso   1.00
C761   C     0.95605   0.54464   0.86412   0.00000  Uiso   1.00
C762   C     0.75135   0.60007   0.84888   0.00000  Uiso   1.00
C763   C     0.54395   0.45536   0.80254   0.00000  Uiso   1.00
C764   C     0.97115   0.41131   0.76343   0.00000  Uiso   1.00
C765   C     0.52885   0.58869   0.90324   0.00000  Uiso   1.00
C766   C     0.94656   0.36507   0.72132   0.00000  Uiso   1.00
C767   C     0.55344   0.63493   0.94535   0.00000  Uiso   1.00
C768   C     0.51784   0.41165   0.76819   0.00000  Uiso   1.00
C769   C     0.98216   0.58835   0.89847   0.00000  Uiso   1.00
C770   C     0.74801   0.34397   0.80903   0.00000  Uiso   1.00
C771   C     0.75199   0.65603   0.85764   0.00000  Uiso   1.00
C772   C     0.66459   0.49975   0.83431   0.00000  Uiso   1.00
C773   C     0.83541   0.50025   0.83236   0.00000  Uiso   1.00
C774   C     0.90956   0.54466   0.86303   0.00000  Uiso   1.00
Cu775  Cu    0.75501   0.50579   0.89479   0.00000  Uiso   1.00
Cu776  Cu    0.74500   0.49421   0.77187   0.00000  Uiso   1.00
F777   F     0.88939   0.58722   0.89442   0.00000  Uiso   1.00
F778   F     0.61061   0.41278   0.77225   0.00000  Uiso   1.00
F779   F     0.87530   0.41357   0.76997   0.00000  Uiso   1.00
F780   F     0.62470   0.58643   0.89669   0.00000  Uiso   1.00
H781   H     0.53401   0.37788   0.74313   0.00000  Uiso   1.00
H782   H     0.96599   0.62212   0.92354   0.00000  Uiso   1.00
H783   H     0.74424   0.65349   0.76216   0.00000  Uiso   1.00
H784   H     0.75576   0.34651   0.90450   0.00000  Uiso   1.00
H785   H     0.71506   0.45930   0.98295   0.00000  Uiso   1.00
H786   H     0.78494   0.54070   0.68372   0.00000  Uiso   1.00
H787   H     0.91684   0.36991   0.69322   0.00000  Uiso   1.00
H788   H     0.58316   0.63009   0.97344   0.00000  Uiso   1.00
N789   N     0.73745   0.48547   0.67951   0.00000  Uiso   1.00
N790   N     0.76256   0.51453   0.98716   0.00000  Uiso   1.00
O791   O     0.75326   0.42871   0.87326   0.00000  Uiso   1.00
O792   O     0.53983   0.34580   0.95034   0.00000  Uiso   1.00
O793   O     0.74675   0.57129   0.79341   0.00000  Uiso   1.00
O794   O     0.74480   0.41892   0.76945   0.00000  Uiso   1.00
O795   O     0.75520   0.58108   0.89721   0.00000  Uiso   1.00
O796   O     0.68936   0.50488   0.88524   0.00000  Uiso   1.00
O797   O     0.81065   0.49512   0.78143   0.00000  Uiso   1.00
O798   O     0.68090   0.49510   0.78143   0.00000  Uiso   1.00
O799   O     0.81910   0.50490   0.88523   0.00000  Uiso   1.00
O800   O     0.96017   0.65420   0.71632   0.00000  Uiso   1.00
C801   C     0.24865   0.73327   0.81778   0.00000  Uiso   1.00
C802   C     0.09044   0.78868   0.80364   0.00000  Uiso   1.00
C803   C     0.38347   0.83399   0.83016   0.00000  Uiso   1.00
C804   C     0.11653   0.83267   0.83651   0.00000  Uiso   1.00
C805   C     0.40284   0.78972   0.79705   0.00000  Uiso   1.00
C806   C     0.09716   0.87694   0.86961   0.00000  Uiso   1.00
C807   C     0.44980   0.78883   0.79625   0.00000  Uiso   1.00
C808   C     0.05020   0.87783   0.87041   0.00000  Uiso   1.00
C809   C     0.47647   0.83335   0.83167   0.00000  Uiso   1.00
C810   C     0.02353   0.83332   0.83499   0.00000  Uiso   1.00
C811   C     0.45605   0.87797   0.86412   0.00000  Uiso   1.00
C812   C     0.25135   0.93340   0.84888   0.00000  Uiso   1.00
C813   C     0.04395   0.78869   0.80254   0.00000  Uiso   1.00
C814   C     0.47115   0.74464   0.76343   0.00000  Uiso   1.00
C815   C     0.02885   0.92203   0.90324   0.00000  Uiso   1.00
C816   C     0.44656   0.69841   0.72132   0.00000  Uiso   1.00
C817   C     0.05344   0.96826   0.94535   0.00000  Uiso   1.00
C818   C     0.01784   0.74498   0.76819   0.00000  Uiso   1.00
C819   C     0.48216   0.92169   0.89847   0.00000  Uiso   1.00
C820   C     0.24801   0.67730   0.80903   0.00000  Uiso   1.00
C821   C     0.25199   0.98936   0.85764   0.00000  Uiso   1.00
C822   C     0.16459   0.83308   0.83431   0.00000  Uiso   1.00
C823   C     0.33541   0.83359   0.83236   0.00000  Uiso   1.00
C824   C     0.40956   0.87799   0.86303   0.00000  Uiso   1.00
Cu825  Cu    0.25501   0.83913   0.89479   0.00000  Uiso   1.00
Cu826  Cu    0.24500   0.82754   0.77187   0.00000  Uiso   1.00
F827   F     0.38939   0.92055   0.89442   0.00000  Uiso   1.00
F828   F     0.11061   0.74612   0.77225   0.00000  Uiso   1.00
F829   F     0.37530   0.74690   0.76997   0.00000  Uiso   1.00
F830   F     0.12470   0.91977   0.89669   0.00000  Uiso   1.00
H831   H     0.03401   0.71121   0.74313   0.00000  Uiso   1.00
H832   H     0.46599   0.95546   0.92354   0.00000  Uiso   1.00
H833   H     0.24424   0.98682   0.76216   0.00000  Uiso   1.00
H834   H     0.25576   0.67985   0.90450   0.00000  Uiso   1.00
H835   H     0.21506   0.79263   0.98295   0.00000  Uiso   1.00
H836   H     0.28494   0.87403   0.68372   0.00000  Uiso   1.00
H837   H     0.41684   0.70324   0.69322   0.00000  Uiso   1.00
H838   H     0.08316   0.96342   0.97344   0.00000  Uiso   1.00
N839   N     0.23745   0.81881   0.67951   0.00000  Uiso   1.00
N840   N     0.26256   0.84786   0.98716   0.00000  Uiso   1.00
O841   O     0.25326   0.76204   0.87326   0.00000  Uiso   1.00
O842   O     0.03983   0.67913   0.95034   0.00000  Uiso   1.00
O843   O     0.24675   0.90462   0.79341   0.00000  Uiso   1.00
O844   O     0.24480   0.75226   0.76945   0.00000  Uiso   1.00
O845   O     0.25520   0.91441   0.89721   0.00000  Uiso   1.00
O846   O     0.18936   0.83821   0.88524   0.00000  Uiso   1.00
O847   O     0.31065   0.82845   0.78143   0.00000  Uiso   1.00
O848   O     0.18090   0.82843   0.78143   0.00000  Uiso   1.00
O849   O     0.31910   0.83824   0.88523   0.00000  Uiso   1.00
O850   O     0.46017   0.98753   0.71632   0.00000  Uiso   1.00
C851   C     0.74865   0.73327   0.81778   0.00000  Uiso   1.00
C852   C     0.59044   0.78868   0.80364   0.00000  Uiso   1.00
C853   C     0.88347   0.83399   0.83016   0.00000  Uiso   1.00
C854   C     0.61653   0.83267   0.83651   0.00000  Uiso   1.00
C855   C     0.90284   0.78972   0.79705   0.00000  Uiso   1.00
C856   C     0.59716   0.87694   0.86961   0.00000  Uiso   1.00
C857   C     0.94980   0.78883   0.79625   0.00000  Uiso   1.00
C858   C     0.55020   0.87783   0.87041   0.00000  Uiso   1.00
C859   C     0.97647   0.83335   0.83167   0.00000  Uiso   1.00
C860   C     0.52353   0.83332   0.83499   0.00000  Uiso   1.00
C861   C     0.95605   0.87797   0.86412   0.00000  Uiso   1.00
C862   C     0.75135   0.93340   0.84888   0.00000  Uiso   1.00
C863   C     0.54395   0.78869   0.80254   0.00000  Uiso   1.00
C864   C     0.97115   0.74464   0.76343   0.00000  Uiso   1.00
C865   C     0.52885   0.92203   0.90324   0.00000  Uiso   1.00
C866   C     0.94656   0.69841   0.72132   0.00000  Uiso   1.00
C867   C     0.55344   0.96826   0.94535   0.00000  Uiso   1.00
C868   C     0.51784   0.74498   0.76819   0.00000  Uiso   1.00
C869   C     0.98216   0.92169   0.89847   0.00000  Uiso   1.00
C870   C     0.74801   0.67730   0.80903   0.00000  Uiso   1.00
C871   C     0.75199   0.98936   0.85764   0.00000  Uiso   1.00
C872   C     0.66459   0.83308   0.83431   0.00000  Uiso   1.00
C873   C     0.83541   0.83359   0.83236   0.00000  Uiso   1.00
C874   C     0.90956   0.87799   0.86303   0.00000  Uiso   1.00
Cu875  Cu    0.75501   0.83913   0.89479   0.00000  Uiso   1.00
Cu876  Cu    0.74500   0.82754   0.77187   0.00000  Uiso   1.00
F877   F     0.88939   0.92055   0.89442   0.00000  Uiso   1.00
F878   F     0.61061   0.74612   0.77225   0.00000  Uiso   1.00
F879   F     0.87530   0.74690   0.76997   0.00000  Uiso   1.00
F880   F     0.62470   0.91977   0.89669   0.00000  Uiso   1.00
H881   H     0.53401   0.71121   0.74313   0.00000  Uiso   1.00
H882   H     0.96599   0.95546   0.92354   0.00000  Uiso   1.00
H883   H     0.74424   0.98682   0.76216   0.00000  Uiso   1.00
H884   H     0.75576   0.67985   0.90450   0.00000  Uiso   1.00
H885   H     0.71506   0.79263   0.98295   0.00000  Uiso   1.00
H886   H     0.78494   0.87403   0.68372   0.00000  Uiso   1.00
H887   H     0.91684   0.70324   0.69322   0.00000  Uiso   1.00
H888   H     0.58316   0.96342   0.97344   0.00000  Uiso   1.00
N889   N     0.73745   0.81881   0.67951   0.00000  Uiso   1.00
N890   N     0.76256   0.84786   0.98716   0.00000  Uiso   1.00
O891   O     0.75326   0.76204   0.87326   0.00000  Uiso   1.00
O892   O     0.53983   0.67913   0.95034   0.00000  Uiso   1.00
O893   O     0.74675   0.90462   0.79341   0.00000  Uiso   1.00
O894   O     0.74480   0.75226   0.76945   0.00000  Uiso   1.00
O895   O     0.75520   0.91441   0.89721   0.00000  Uiso   1.00
O896   O     0.68936   0.83821   0.88524   0.00000  Uiso   1.00
O897   O     0.81065   0.82845   0.78143   0.00000  Uiso   1.00
O898   O     0.68090   0.82843   0.78143   0.00000  Uiso   1.00
O899   O     0.81910   0.83824   0.88523   0.00000  Uiso   1.00
O900   O     0.96017   0.98753   0.71632   0.00000  Uiso   1.00
loop_
_geom_bond_atom_site_label_1
_geom_bond_atom_site_label_2
_geom_bond_distance
_geom_bond_site_symmetry_2
_ccdc_geom_bond_type
C1     O44     1.285   .     A
C1     C20     1.425   .     S
C1     O41     1.293   .     A
C2     C4      1.391   .     A
C2     C13     1.393   .     A
C2     F28     1.361   .     S
C3     C24     1.391   .     A
C3     C23     1.445   .     S
C3     C5      1.396   .     A
C4     C22     1.445   .     S
C4     C6      1.396   .     A
C5     C7      1.410   .     A
C5     F29     1.358   .     S
C6     C8      1.410   .     A
C6     F30     1.358   .     S
C7     C9      1.427   .     A
C7     C14     1.422   .     A
C8     C15     1.422   .     A
C8     C10     1.427   .     A
C9     C11     1.413   .     A
C9     C60     1.408   .     S
C10    C13     1.413   .     A
C10    C59     1.408   1_455 S
C11    C19     1.397   .     A
C11    C24     1.393   .     A
C12    O43     1.293   .     A
C12    C21     1.425   .     S
C12    O45     1.285   .     A
C13    C18     1.397   .     A
C14    C16     1.485   .     S
C14    C68     1.396   .     S
C15    C17     1.485   .     S
C15    C69     1.396   1_455 S
C16    H37     1.083   .     S
C16    O250    1.221   1_545 S
C17    H38     1.083   .     S
C17    O142    1.221   .     S
C18    H31     1.084   .     S
C18    C64     1.396   1_455 S
C19    H32     1.084   .     S
C19    C65     1.396   .     S
C20    C221    1.326   1_545 S
C20    H233    1.088   1_545 S
C21    C120    1.326   .     S
C21    H134    1.088   .     S
C22    O48     1.292   .     A
C22    O46     1.294   .     A
C23    O49     1.292   .     A
C23    O47     1.294   .     A
C24    F27     1.361   .     S
Cu25   N40     2.022   .     S
Cu25   O45     1.948   .     S
Cu25   O41     1.954   .     S
Cu25   Cu26    2.691   .     S
Cu25   O46     1.964   .     S
Cu25   O49     1.948   .     S
Cu26   O48     1.948   .     S
Cu26   O44     1.948   .     S
Cu26   O47     1.964   .     S
Cu26   O43     1.954   .     S
Cu26   N39     2.022   .     S
H33    C120    1.088   .     S
H34    C221    1.088   1_545 S
H35    N339    1.029   .     S
H36    N640    1.029   1_554 S
N39    H635    1.029   1_554 S
N39    N640    1.293   1_554 S
N40    N339    1.293   .     S
N40    H336    1.029   .     S
O42    C217    1.221   1_545 S
O50    C116    1.221   .     S
C51    O94     1.285   .     A
C51    C70     1.425   .     S
C51    O91     1.293   .     A
C52    C54     1.391   .     A
C52    C63     1.393   .     A
C52    F78     1.361   .     S
C53    C74     1.391   .     A
C53    C73     1.445   .     S
C53    C55     1.396   .     A
C54    C72     1.445   .     S
C54    C56     1.396   .     A
C55    C57     1.410   .     A
C55    F79     1.358   .     S
C56    C58     1.410   .     A
C56    F80     1.358   .     S
C57    C59     1.427   .     A
C57    C64     1.422   .     A
C58    C65     1.422   .     A
C58    C60     1.427   .     A
C59    C61     1.413   .     A
C59    C10     1.408   1_655 S
C60    C63     1.413   .     A
C61    C69     1.397   .     A
C61    C74     1.393   .     A
C62    O93     1.293   .     A
C62    C71     1.425   .     S
C62    O95     1.285   .     A
C63    C68     1.397   .     A
C64    C66     1.485   .     S
C64    C18     1.396   1_655 S
C65    C67     1.485   .     S
C66    H87     1.083   .     S
C66    O300    1.221   1_545 S
C67    H88     1.083   .     S
C67    O192    1.221   .     S
C68    H81     1.084   .     S
C69    H82     1.084   .     S
C69    C15     1.396   1_655 S
C70    C271    1.326   1_545 S
C70    H283    1.088   1_545 S
C71    C170    1.326   .     S
C71    H184    1.088   .     S
C72    O98     1.292   .     A
C72    O96     1.294   .     A
C73    O99     1.292   .     A
C73    O97     1.294   .     A
C74    F77     1.361   .     S
Cu75   N90     2.022   .     S
Cu75   O95     1.948   .     S
Cu75   O91     1.954   .     S
Cu75   Cu76    2.691   .     S
Cu75   O96     1.964   .     S
Cu75   O99     1.948   .     S
Cu76   O98     1.948   .     S
Cu76   O94     1.948   .     S
Cu76   O97     1.964   .     S
Cu76   O93     1.954   .     S
Cu76   N89     2.022   .     S
H83    C170    1.088   .     S
H84    C271    1.088   1_545 S
H85    N389    1.029   .     S
H86    N690    1.029   1_554 S
N89    H685    1.029   1_554 S
N89    N690    1.293   1_554 S
N90    N389    1.293   .     S
N90    H386    1.029   .     S
O92    C267    1.221   1_545 S
O100   C166    1.221   .     S
C101   O144    1.285   .     A
C101   C120    1.425   .     S
C101   O141    1.293   .     A
C102   C104    1.391   .     A
C102   C113    1.393   .     A
C102   F128    1.361   .     S
C103   C124    1.391   .     A
C103   C123    1.445   .     S
C103   C105    1.396   .     A
C104   C122    1.445   .     S
C104   C106    1.396   .     A
C105   C107    1.410   .     A
C105   F129    1.358   .     S
C106   C108    1.410   .     A
C106   F130    1.358   .     S
C107   C109    1.427   .     A
C107   C114    1.422   .     A
C108   C115    1.422   .     A
C108   C110    1.427   .     A
C109   C111    1.413   .     A
C109   C160    1.408   .     S
C110   C113    1.413   .     A
C110   C159    1.408   1_455 S
C111   C119    1.397   .     A
C111   C124    1.393   .     A
C112   O143    1.293   .     A
C112   C121    1.425   .     S
C112   O145    1.285   .     A
C113   C118    1.397   .     A
C114   C116    1.485   .     S
C114   C168    1.396   .     S
C115   C117    1.485   .     S
C115   C169    1.396   1_455 S
C116   H137    1.083   .     S
C117   H138    1.083   .     S
C117   O242    1.221   .     S
C118   H131    1.084   .     S
C118   C164    1.396   1_455 S
C119   H132    1.084   .     S
C119   C165    1.396   .     S
C121   C220    1.326   .     S
C121   H234    1.088   .     S
C122   O148    1.292   .     A
C122   O146    1.294   .     A
C123   O149    1.292   .     A
C123   O147    1.294   .     A
C124   F127    1.361   .     S
Cu125  N140    2.022   .     S
Cu125  O145    1.948   .     S
Cu125  O141    1.954   .     S
Cu125  Cu126   2.691   .     S
Cu125  O146    1.964   .     S
Cu125  O149    1.948   .     S
Cu126  O148    1.948   .     S
Cu126  O144    1.948   .     S
Cu126  O147    1.964   .     S
Cu126  O143    1.954   .     S
Cu126  N139    2.022   .     S
H133   C220    1.088   .     S
H135   N439    1.029   .     S
H136   N740    1.029   1_554 S
N139   H735    1.029   1_554 S
N139   N740    1.293   1_554 S
N140   N439    1.293   .     S
N140   H436    1.029   .     S
O150   C216    1.221   .     S
C151   O194    1.285   .     A
C151   C170    1.425   .     S
C151   O191    1.293   .     A
C152   C154    1.391   .     A
C152   C163    1.393   .     A
C152   F178    1.361   .     S
C153   C174    1.391   .     A
C153   C173    1.445   .     S
C153   C155    1.396   .     A
C154   C172    1.445   .     S
C154   C156    1.396   .     A
C155   C157    1.410   .     A
C155   F179    1.358   .     S
C156   C158    1.410   .     A
C156   F180    1.358   .     S
C157   C159    1.427   .     A
C157   C164    1.422   .     A
C158   C165    1.422   .     A
C158   C160    1.427   .     A
C159   C161    1.413   .     A
C159   C110    1.408   1_655 S
C160   C163    1.413   .     A
C161   C169    1.397   .     A
C161   C174    1.393   .     A
C162   O193    1.293   .     A
C162   C171    1.425   .     S
C162   O195    1.285   .     A
C163   C168    1.397   .     A
C164   C166    1.485   .     S
C164   C118    1.396   1_655 S
C165   C167    1.485   .     S
C166   H187    1.083   .     S
C167   H188    1.083   .     S
C167   O292    1.221   .     S
C168   H181    1.084   .     S
C169   H182    1.084   .     S
C169   C115    1.396   1_655 S
C171   C270    1.326   .     S
C171   H284    1.088   .     S
C172   O198    1.292   .     A
C172   O196    1.294   .     A
C173   O199    1.292   .     A
C173   O197    1.294   .     A
C174   F177    1.361   .     S
Cu175  N190    2.022   .     S
Cu175  O195    1.948   .     S
Cu175  O191    1.954   .     S
Cu175  Cu176   2.691   .     S
Cu175  O196    1.964   .     S
Cu175  O199    1.948   .     S
Cu176  O198    1.948   .     S
Cu176  O194    1.948   .     S
Cu176  O197    1.964   .     S
Cu176  O193    1.954   .     S
Cu176  N189    2.022   .     S
H183   C270    1.088   .     S
H185   N489    1.029   .     S
H186   N790    1.029   1_554 S
N189   H785    1.029   1_554 S
N189   N790    1.293   1_554 S
N190   N489    1.293   .     S
N190   H486    1.029   .     S
O200   C266    1.221   .     S
C201   O244    1.285   .     A
C201   C220    1.425   .     S
C201   O241    1.293   .     A
C202   C204    1.391   .     A
C202   C213    1.393   .     A
C202   F228    1.361   .     S
C203   C224    1.391   .     A
C203   C223    1.445   .     S
C203   C205    1.396   .     A
C204   C222    1.445   .     S
C204   C206    1.396   .     A
C205   C207    1.410   .     A
C205   F229    1.358   .     S
C206   C208    1.410   .     A
C206   F230    1.358   .     S
C207   C209    1.427   .     A
C207   C214    1.422   .     A
C208   C215    1.422   .     A
C208   C210    1.427   .     A
C209   C211    1.413   .     A
C209   C260    1.408   .     S
C210   C213    1.413   .     A
C210   C259    1.408   1_455 S
C211   C219    1.397   .     A
C211   C224    1.393   .     A
C212   O243    1.293   .     A
C212   C221    1.425   .     S
C212   O245    1.285   .     A
C213   C218    1.397   .     A
C214   C216    1.485   .     S
C214   C268    1.396   .     S
C215   C217    1.485   .     S
C215   C269    1.396   1_455 S
C216   H237    1.083   .     S
C217   H238    1.083   .     S
C217   O42     1.221   1_565 S
C218   H231    1.084   .     S
C218   C264    1.396   1_455 S
C219   H232    1.084   .     S
C219   C265    1.396   .     S
C221   C20     1.326   1_565 S
C221   H34     1.088   1_565 S
C222   O248    1.292   .     A
C222   O246    1.294   .     A
C223   O249    1.292   .     A
C223   O247    1.294   .     A
C224   F227    1.361   .     S
Cu225  N240    2.022   .     S
Cu225  O245    1.948   .     S
Cu225  O241    1.954   .     S
Cu225  Cu226   2.691   .     S
Cu225  O246    1.964   .     S
Cu225  O249    1.948   .     S
Cu226  O248    1.948   .     S
Cu226  O244    1.948   .     S
Cu226  O247    1.964   .     S
Cu226  O243    1.954   .     S
Cu226  N239    2.022   .     S
H233   C20     1.088   1_565 S
H235   N539    1.029   .     S
H236   N840    1.029   1_554 S
N239   H835    1.029   1_554 S
N239   N840    1.293   1_554 S
N240   N539    1.293   .     S
N240   H536    1.029   .     S
O250   C16     1.221   1_565 S
C251   O294    1.285   .     A
C251   C270    1.425   .     S
C251   O291    1.293   .     A
C252   C254    1.391   .     A
C252   C263    1.393   .     A
C252   F278    1.361   .     S
C253   C274    1.391   .     A
C253   C273    1.445   .     S
C253   C255    1.396   .     A
C254   C272    1.445   .     S
C254   C256    1.396   .     A
C255   C257    1.410   .     A
C255   F279    1.358   .     S
C256   C258    1.410   .     A
C256   F280    1.358   .     S
C257   C259    1.427   .     A
C257   C264    1.422   .     A
C258   C265    1.422   .     A
C258   C260    1.427   .     A
C259   C261    1.413   .     A
C259   C210    1.408   1_655 S
C260   C263    1.413   .     A
C261   C269    1.397   .     A
C261   C274    1.393   .     A
C262   O293    1.293   .     A
C262   C271    1.425   .     S
C262   O295    1.285   .     A
C263   C268    1.397   .     A
C264   C266    1.485   .     S
C264   C218    1.396   1_655 S
C265   C267    1.485   .     S
C266   H287    1.083   .     S
C267   H288    1.083   .     S
C267   O92     1.221   1_565 S
C268   H281    1.084   .     S
C269   H282    1.084   .     S
C269   C215    1.396   1_655 S
C271   C70     1.326   1_565 S
C271   H84     1.088   1_565 S
C272   O298    1.292   .     A
C272   O296    1.294   .     A
C273   O299    1.292   .     A
C273   O297    1.294   .     A
C274   F277    1.361   .     S
Cu275  N290    2.022   .     S
Cu275  O295    1.948   .     S
Cu275  O291    1.954   .     S
Cu275  Cu276   2.691   .     S
Cu275  O296    1.964   .     S
Cu275  O299    1.948   .     S
Cu276  O298    1.948   .     S
Cu276  O294    1.948   .     S
Cu276  O297    1.964   .     S
Cu276  O293    1.954   .     S
Cu276  N289    2.022   .     S
H283   C70     1.088   1_565 S
H285   N589    1.029   .     S
H286   N890    1.029   1_554 S
N289   H885    1.029   1_554 S
N289   N890    1.293   1_554 S
N290   N589    1.293   .     S
N290   H586    1.029   .     S
O300   C66     1.221   1_565 S
C301   O344    1.285   .     A
C301   C320    1.425   .     S
C301   O341    1.293   .     A
C302   C304    1.391   .     A
C302   C313    1.393   .     A
C302   F328    1.361   .     S
C303   C324    1.391   .     A
C303   C323    1.445   .     S
C303   C305    1.396   .     A
C304   C322    1.445   .     S
C304   C306    1.396   .     A
C305   C307    1.410   .     A
C305   F329    1.358   .     S
C306   C308    1.410   .     A
C306   F330    1.358   .     S
C307   C309    1.427   .     A
C307   C314    1.422   .     A
C308   C315    1.422   .     A
C308   C310    1.427   .     A
C309   C311    1.413   .     A
C309   C360    1.408   .     S
C310   C313    1.413   .     A
C310   C359    1.408   1_455 S
C311   C319    1.397   .     A
C311   C324    1.393   .     A
C312   O343    1.293   .     A
C312   C321    1.425   .     S
C312   O345    1.285   .     A
C313   C318    1.397   .     A
C314   C316    1.485   .     S
C314   C368    1.396   .     S
C315   C317    1.485   .     S
C315   C369    1.396   1_455 S
C316   H337    1.083   .     S
C316   O550    1.221   1_545 S
C317   H338    1.083   .     S
C317   O442    1.221   .     S
C318   H331    1.084   .     S
C318   C364    1.396   1_455 S
C319   H332    1.084   .     S
C319   C365    1.396   .     S
C320   C521    1.326   1_545 S
C320   H533    1.088   1_545 S
C321   C420    1.326   .     S
C321   H434    1.088   .     S
C322   O348    1.292   .     A
C322   O346    1.294   .     A
C323   O349    1.292   .     A
C323   O347    1.294   .     A
C324   F327    1.361   .     S
Cu325  N340    2.022   .     S
Cu325  O345    1.948   .     S
Cu325  O341    1.954   .     S
Cu325  Cu326   2.691   .     S
Cu325  O346    1.964   .     S
Cu325  O349    1.948   .     S
Cu326  O348    1.948   .     S
Cu326  O344    1.948   .     S
Cu326  O347    1.964   .     S
Cu326  O343    1.954   .     S
Cu326  N339    2.022   .     S
H333   C420    1.088   .     S
H334   C521    1.088   1_545 S
H335   N639    1.029   .     S
N340   N639    1.293   .     S
N340   H636    1.029   .     S
O342   C517    1.221   1_545 S
O350   C416    1.221   .     S
C351   O394    1.285   .     A
C351   C370    1.425   .     S
C351   O391    1.293   .     A
C352   C354    1.391   .     A
C352   C363    1.393   .     A
C352   F378    1.361   .     S
C353   C374    1.391   .     A
C353   C373    1.445   .     S
C353   C355    1.396   .     A
C354   C372    1.445   .     S
C354   C356    1.396   .     A
C355   C357    1.410   .     A
C355   F379    1.358   .     S
C356   C358    1.410   .     A
C356   F380    1.358   .     S
C357   C359    1.427   .     A
C357   C364    1.422   .     A
C358   C365    1.422   .     A
C358   C360    1.427   .     A
C359   C361    1.413   .     A
C359   C310    1.408   1_655 S
C360   C363    1.413   .     A
C361   C369    1.397   .     A
C361   C374    1.393   .     A
C362   O393    1.293   .     A
C362   C371    1.425   .     S
C362   O395    1.285   .     A
C363   C368    1.397   .     A
C364   C366    1.485   .     S
C364   C318    1.396   1_655 S
C365   C367    1.485   .     S
C366   H387    1.083   .     S
C366   O600    1.221   1_545 S
C367   H388    1.083   .     S
C367   O492    1.221   .     S
C368   H381    1.084   .     S
C369   H382    1.084   .     S
C369   C315    1.396   1_655 S
C370   C571    1.326   1_545 S
C370   H583    1.088   1_545 S
C371   C470    1.326   .     S
C371   H484    1.088   .     S
C372   O398    1.292   .     A
C372   O396    1.294   .     A
C373   O399    1.292   .     A
C373   O397    1.294   .     A
C374   F377    1.361   .     S
Cu375  N390    2.022   .     S
Cu375  O395    1.948   .     S
Cu375  O391    1.954   .     S
Cu375  Cu376   2.691   .     S
Cu375  O396    1.964   .     S
Cu375  O399    1.948   .     S
Cu376  O398    1.948   .     S
Cu376  O394    1.948   .     S
Cu376  O397    1.964   .     S
Cu376  O393    1.954   .     S
Cu376  N389    2.022   .     S
H383   C470    1.088   .     S
H384   C571    1.088   1_545 S
H385   N689    1.029   .     S
N390   N689    1.293   .     S
N390   H686    1.029   .     S
O392   C567    1.221   1_545 S
O400   C466    1.221   .     S
C401   O444    1.285   .     A
C401   C420    1.425   .     S
C401   O441    1.293   .     A
C402   C404    1.391   .     A
C402   C413    1.393   .     A
C402   F428    1.361   .     S
C403   C424    1.391   .     A
C403   C423    1.445   .     S
C403   C405    1.396   .     A
C404   C422    1.445   .     S
C404   C406    1.396   .     A
C405   C407    1.410   .     A
C405   F429    1.358   .     S
C406   C408    1.410   .     A
C406   F430    1.358   .     S
C407   C409    1.427   .     A
C407   C414    1.422   .     A
C408   C415    1.422   .     A
C408   C410    1.427   .     A
C409   C411    1.413   .     A
C409   C460    1.408   .     S
C410   C413    1.413   .     A
C410   C459    1.408   1_455 S
C411   C419    1.397   .     A
C411   C424    1.393   .     A
C412   O443    1.293   .     A
C412   C421    1.425   .     S
C412   O445    1.285   .     A
C413   C418    1.397   .     A
C414   C416    1.485   .     S
C414   C468    1.396   .     S
C415   C417    1.485   .     S
C415   C469    1.396   1_455 S
C416   H437    1.083   .     S
C417   H438    1.083   .     S
C417   O542    1.221   .     S
C418   H431    1.084   .     S
C418   C464    1.396   1_455 S
C419   H432    1.084   .     S
C419   C465    1.396   .     S
C421   C520    1.326   .     S
C421   H534    1.088   .     S
C422   O448    1.292   .     A
C422   O446    1.294   .     A
C423   O449    1.292   .     A
C423   O447    1.294   .     A
C424   F427    1.361   .     S
Cu425  N440    2.022   .     S
Cu425  O445    1.948   .     S
Cu425  O441    1.954   .     S
Cu425  Cu426   2.691   .     S
Cu425  O446    1.964   .     S
Cu425  O449    1.948   .     S
Cu426  O448    1.948   .     S
Cu426  O444    1.948   .     S
Cu426  O447    1.964   .     S
Cu426  O443    1.954   .     S
Cu426  N439    2.022   .     S
H433   C520    1.088   .     S
H435   N739    1.029   .     S
N440   N739    1.293   .     S
N440   H736    1.029   .     S
O450   C516    1.221   .     S
C451   O494    1.285   .     A
C451   C470    1.425   .     S
C451   O491    1.293   .     A
C452   C454    1.391   .     A
C452   C463    1.393   .     A
C452   F478    1.361   .     S
C453   C474    1.391   .     A
C453   C473    1.445   .     S
C453   C455    1.396   .     A
C454   C472    1.445   .     S
C454   C456    1.396   .     A
C455   C457    1.410   .     A
C455   F479    1.358   .     S
C456   C458    1.410   .     A
C456   F480    1.358   .     S
C457   C459    1.427   .     A
C457   C464    1.422   .     A
C458   C465    1.422   .     A
C458   C460    1.427   .     A
C459   C461    1.413   .     A
C459   C410    1.408   1_655 S
C460   C463    1.413   .     A
C461   C469    1.397   .     A
C461   C474    1.393   .     A
C462   O493    1.293   .     A
C462   C471    1.425   .     S
C462   O495    1.285   .     A
C463   C468    1.397   .     A
C464   C466    1.485   .     S
C464   C418    1.396   1_655 S
C465   C467    1.485   .     S
C466   H487    1.083   .     S
C467   H488    1.083   .     S
C467   O592    1.221   .     S
C468   H481    1.084   .     S
C469   H482    1.084   .     S
C469   C415    1.396   1_655 S
C471   C570    1.326   .     S
C471   H584    1.088   .     S
C472   O498    1.292   .     A
C472   O496    1.294   .     A
C473   O499    1.292   .     A
C473   O497    1.294   .     A
C474   F477    1.361   .     S
Cu475  N490    2.022   .     S
Cu475  O495    1.948   .     S
Cu475  O491    1.954   .     S
Cu475  Cu476   2.691   .     S
Cu475  O496    1.964   .     S
Cu475  O499    1.948   .     S
Cu476  O498    1.948   .     S
Cu476  O494    1.948   .     S
Cu476  O497    1.964   .     S
Cu476  O493    1.954   .     S
Cu476  N489    2.022   .     S
H483   C570    1.088   .     S
H485   N789    1.029   .     S
N490   N789    1.293   .     S
N490   H786    1.029   .     S
O500   C566    1.221   .     S
C501   O544    1.285   .     A
C501   C520    1.425   .     S
C501   O541    1.293   .     A
C502   C504    1.391   .     A
C502   C513    1.393   .     A
C502   F528    1.361   .     S
C503   C524    1.391   .     A
C503   C523    1.445   .     S
C503   C505    1.396   .     A
C504   C522    1.445   .     S
C504   C506    1.396   .     A
C505   C507    1.410   .     A
C505   F529    1.358   .     S
C506   C508    1.410   .     A
C506   F530    1.358   .     S
C507   C509    1.427   .     A
C507   C514    1.422   .     A
C508   C515    1.422   .     A
C508   C510    1.427   .     A
C509   C511    1.413   .     A
C509   C560    1.408   .     S
C510   C513    1.413   .     A
C510   C559    1.408   1_455 S
C511   C519    1.397   .     A
C511   C524    1.393   .     A
C512   O543    1.293   .     A
C512   C521    1.425   .     S
C512   O545    1.285   .     A
C513   C518    1.397   .     A
C514   C516    1.485   .     S
C514   C568    1.396   .     S
C515   C517    1.485   .     S
C515   C569    1.396   1_455 S
C516   H537    1.083   .     S
C517   H538    1.083   .     S
C517   O342    1.221   1_565 S
C518   H531    1.084   .     S
C518   C564    1.396   1_455 S
C519   H532    1.084   .     S
C519   C565    1.396   .     S
C521   C320    1.326   1_565 S
C521   H334    1.088   1_565 S
C522   O548    1.292   .     A
C522   O546    1.294   .     A
C523   O549    1.292   .     A
C523   O547    1.294   .     A
C524   F527    1.361   .     S
Cu525  N540    2.022   .     S
Cu525  O545    1.948   .     S
Cu525  O541    1.954   .     S
Cu525  Cu526   2.691   .     S
Cu525  O546    1.964   .     S
Cu525  O549    1.948   .     S
Cu526  O548    1.948   .     S
Cu526  O544    1.948   .     S
Cu526  O547    1.964   .     S
Cu526  O543    1.954   .     S
Cu526  N539    2.022   .     S
H533   C320    1.088   1_565 S
H535   N839    1.029   .     S
N540   N839    1.293   .     S
N540   H836    1.029   .     S
O550   C316    1.221   1_565 S
C551   O594    1.285   .     A
C551   C570    1.425   .     S
C551   O591    1.293   .     A
C552   C554    1.391   .     A
C552   C563    1.393   .     A
C552   F578    1.361   .     S
C553   C574    1.391   .     A
C553   C573    1.445   .     S
C553   C555    1.396   .     A
C554   C572    1.445   .     S
C554   C556    1.396   .     A
C555   C557    1.410   .     A
C555   F579    1.358   .     S
C556   C558    1.410   .     A
C556   F580    1.358   .     S
C557   C559    1.427   .     A
C557   C564    1.422   .     A
C558   C565    1.422   .     A
C558   C560    1.427   .     A
C559   C561    1.413   .     A
C559   C510    1.408   1_655 S
C560   C563    1.413   .     A
C561   C569    1.397   .     A
C561   C574    1.393   .     A
C562   O593    1.293   .     A
C562   C571    1.425   .     S
C562   O595    1.285   .     A
C563   C568    1.397   .     A
C564   C566    1.485   .     S
C564   C518    1.396   1_655 S
C565   C567    1.485   .     S
C566   H587    1.083   .     S
C567   H588    1.083   .     S
C567   O392    1.221   1_565 S
C568   H581    1.084   .     S
C569   H582    1.084   .     S
C569   C515    1.396   1_655 S
C571   C370    1.326   1_565 S
C571   H384    1.088   1_565 S
C572   O598    1.292   .     A
C572   O596    1.294   .     A
C573   O599    1.292   .     A
C573   O597    1.294   .     A
C574   F577    1.361   .     S
Cu575  N590    2.022   .     S
Cu575  O595    1.948   .     S
Cu575  O591    1.954   .     S
Cu575  Cu576   2.691   .     S
Cu575  O596    1.964   .     S
Cu575  O599    1.948   .     S
Cu576  O598    1.948   .     S
Cu576  O594    1.948   .     S
Cu576  O597    1.964   .     S
Cu576  O593    1.954   .     S
Cu576  N589    2.022   .     S
H583   C370    1.088   1_565 S
H585   N889    1.029   .     S
N590   N889    1.293   .     S
N590   H886    1.029   .     S
O600   C366    1.221   1_565 S
C601   O644    1.285   .     A
C601   C620    1.425   .     S
C601   O641    1.293   .     A
C602   C604    1.391   .     A
C602   C613    1.393   .     A
C602   F628    1.361   .     S
C603   C624    1.391   .     A
C603   C623    1.445   .     S
C603   C605    1.396   .     A
C604   C622    1.445   .     S
C604   C606    1.396   .     A
C605   C607    1.410   .     A
C605   F629    1.358   .     S
C606   C608    1.410   .     A
C606   F630    1.358   .     S
C607   C609    1.427   .     A
C607   C614    1.422   .     A
C608   C615    1.422   .     A
C608   C610    1.427   .     A
C609   C611    1.413   .     A
C609   C660    1.408   .     S
C610   C613    1.413   .     A
C610   C659    1.408   1_455 S
C611   C619    1.397   .     A
C611   C624    1.393   .     A
C612   O643    1.293   .     A
C612   C621    1.425   .     S
C612   O645    1.285   .     A
C613   C618    1.397   .     A
C614   C616    1.485   .     S
C614   C668    1.396   .     S
C615   C617    1.485   .     S
C615   C669    1.396   1_455 S
C616   H637    1.083   .     S
C616   O850    1.221   1_545 S
C617   H638    1.083   .     S
C617   O742    1.221   .     S
C618   H631    1.084   .     S
C618   C664    1.396   1_455 S
C619   H632    1.084   .     S
C619   C665    1.396   .     S
C620   C821    1.326   1_545 S
C620   H833    1.088   1_545 S
C621   C720    1.326   .     S
C621   H734    1.088   .     S
C622   O648    1.292   .     A
C622   O646    1.294   .     A
C623   O649    1.292   .     A
C623   O647    1.294   .     A
C624   F627    1.361   .     S
Cu625  N640    2.022   .     S
Cu625  O645    1.948   .     S
Cu625  O641    1.954   .     S
Cu625  Cu626   2.691   .     S
Cu625  O646    1.964   .     S
Cu625  O649    1.948   .     S
Cu626  O648    1.948   .     S
Cu626  O644    1.948   .     S
Cu626  O647    1.964   .     S
Cu626  O643    1.954   .     S
Cu626  N639    2.022   .     S
H633   C720    1.088   .     S
H634   C821    1.088   1_545 S
H635   N39     1.029   1_556 S
N640   N39     1.293   1_556 S
N640   H36     1.029   1_556 S
O642   C817    1.221   1_545 S
O650   C716    1.221   .     S
C651   O694    1.285   .     A
C651   C670    1.425   .     S
C651   O691    1.293   .     A
C652   C654    1.391   .     A
C652   C663    1.393   .     A
C652   F678    1.361   .     S
C653   C674    1.391   .     A
C653   C673    1.445   .     S
C653   C655    1.396   .     A
C654   C672    1.445   .     S
C654   C656    1.396   .     A
C655   C657    1.410   .     A
C655   F679    1.358   .     S
C656   C658    1.410   .     A
C656   F680    1.358   .     S
C657   C659    1.427   .     A
C657   C664    1.422   .     A
C658   C665    1.422   .     A
C658   C660    1.427   .     A
C659   C661    1.413   .     A
C659   C610    1.408   1_655 S
C660   C663    1.413   .     A
C661   C669    1.397   .     A
C661   C674    1.393   .     A
C662   O693    1.293   .     A
C662   C671    1.425   .     S
C662   O695    1.285   .     A
C663   C668    1.397   .     A
C664   C666    1.485   .     S
C664   C618    1.396   1_655 S
C665   C667    1.485   .     S
C666   H687    1.083   .     S
C666   O900    1.221   1_545 S
C667   H688    1.083   .     S
C667   O792    1.221   .     S
C668   H681    1.084   .     S
C669   H682    1.084   .     S
C669   C615    1.396   1_655 S
C670   C871    1.326   1_545 S
C670   H883    1.088   1_545 S
C671   C770    1.326   .     S
C671   H784    1.088   .     S
C672   O698    1.292   .     A
C672   O696    1.294   .     A
C673   O699    1.292   .     A
C673   O697    1.294   .     A
C674   F677    1.361   .     S
Cu675  N690    2.022   .     S
Cu675  O695    1.948   .     S
Cu675  O691    1.954   .     S
Cu675  Cu676   2.691   .     S
Cu675  O696    1.964   .     S
Cu675  O699    1.948   .     S
Cu676  O698    1.948   .     S
Cu676  O694    1.948   .     S
Cu676  O697    1.964   .     S
Cu676  O693    1.954   .     S
Cu676  N689    2.022   .     S
H683   C770    1.088   .     S
H684   C871    1.088   1_545 S
H685   N89     1.029   1_556 S
N690   N89     1.293   1_556 S
N690   H86     1.029   1_556 S
O692   C867    1.221   1_545 S
O700   C766    1.221   .     S
C701   O744    1.285   .     A
C701   C720    1.425   .     S
C701   O741    1.293   .     A
C702   C704    1.391   .     A
C702   C713    1.393   .     A
C702   F728    1.361   .     S
C703   C724    1.391   .     A
C703   C723    1.445   .     S
C703   C705    1.396   .     A
C704   C722    1.445   .     S
C704   C706    1.396   .     A
C705   C707    1.410   .     A
C705   F729    1.358   .     S
C706   C708    1.410   .     A
C706   F730    1.358   .     S
C707   C709    1.427   .     A
C707   C714    1.422   .     A
C708   C715    1.422   .     A
C708   C710    1.427   .     A
C709   C711    1.413   .     A
C709   C760    1.408   .     S
C710   C713    1.413   .     A
C710   C759    1.408   1_455 S
C711   C719    1.397   .     A
C711   C724    1.393   .     A
C712   O743    1.293   .     A
C712   C721    1.425   .     S
C712   O745    1.285   .     A
C713   C718    1.397   .     A
C714   C716    1.485   .     S
C714   C768    1.396   .     S
C715   C717    1.485   .     S
C715   C769    1.396   1_455 S
C716   H737    1.083   .     S
C717   H738    1.083   .     S
C717   O842    1.221   .     S
C718   H731    1.084   .     S
C718   C764    1.396   1_455 S
C719   H732    1.084   .     S
C719   C765    1.396   .     S
C721   C820    1.326   .     S
C721   H834    1.088   .     S
C722   O748    1.292   .     A
C722   O746    1.294   .     A
C723   O749    1.292   .     A
C723   O747    1.294   .     A
C724   F727    1.361   .     S
Cu725  N740    2.022   .     S
Cu725  O745    1.948   .     S
Cu725  O741    1.954   .     S
Cu725  Cu726   2.691   .     S
Cu725  O746    1.964   .     S
Cu725  O749    1.948   .     S
Cu726  O748    1.948   .     S
Cu726  O744    1.948   .     S
Cu726  O747    1.964   .     S
Cu726  O743    1.954   .     S
Cu726  N739    2.022   .     S
H733   C820    1.088   .     S
H735   N139    1.029   1_556 S
N740   N139    1.293   1_556 S
N740   H136    1.029   1_556 S
O750   C816    1.221   .     S
C751   O794    1.285   .     A
C751   C770    1.425   .     S
C751   O791    1.293   .     A
C752   C754    1.391   .     A
C752   C763    1.393   .     A
C752   F778    1.361   .     S
C753   C774    1.391   .     A
C753   C773    1.445   .     S
C753   C755    1.396   .     A
C754   C772    1.445   .     S
C754   C756    1.396   .     A
C755   C757    1.410   .     A
C755   F779    1.358   .     S
C756   C758    1.410   .     A
C756   F780    1.358   .     S
C757   C759    1.427   .     A
C757   C764    1.422   .     A
C758   C765    1.422   .     A
C758   C760    1.427   .     A
C759   C761    1.413   .     A
C759   C710    1.408   1_655 S
C760   C763    1.413   .     A
C761   C769    1.397   .     A
C761   C774    1.393   .     A
C762   O793    1.293   .     A
C762   C771    1.425   .     S
C762   O795    1.285   .     A
C763   C768    1.397   .     A
C764   C766    1.485   .     S
C764   C718    1.396   1_655 S
C765   C767    1.485   .     S
C766   H787    1.083   .     S
C767   H788    1.083   .     S
C767   O892    1.221   .     S
C768   H781    1.084   .     S
C769   H782    1.084   .     S
C769   C715    1.396   1_655 S
C771   C870    1.326   .     S
C771   H884    1.088   .     S
C772   O798    1.292   .     A
C772   O796    1.294   .     A
C773   O799    1.292   .     A
C773   O797    1.294   .     A
C774   F777    1.361   .     S
Cu775  N790    2.022   .     S
Cu775  O795    1.948   .     S
Cu775  O791    1.954   .     S
Cu775  Cu776   2.691   .     S
Cu775  O796    1.964   .     S
Cu775  O799    1.948   .     S
Cu776  O798    1.948   .     S
Cu776  O794    1.948   .     S
Cu776  O797    1.964   .     S
Cu776  O793    1.954   .     S
Cu776  N789    2.022   .     S
H783   C870    1.088   .     S
H785   N189    1.029   1_556 S
N790   N189    1.293   1_556 S
N790   H186    1.029   1_556 S
O800   C866    1.221   .     S
C801   O844    1.285   .     A
C801   C820    1.425   .     S
C801   O841    1.293   .     A
C802   C804    1.391   .     A
C802   C813    1.393   .     A
C802   F828    1.361   .     S
C803   C824    1.391   .     A
C803   C823    1.445   .     S
C803   C805    1.396   .     A
C804   C822    1.445   .     S
C804   C806    1.396   .     A
C805   C807    1.410   .     A
C805   F829    1.358   .     S
C806   C808    1.410   .     A
C806   F830    1.358   .     S
C807   C809    1.427   .     A
C807   C814    1.422   .     A
C808   C815    1.422   .     A
C808   C810    1.427   .     A
C809   C811    1.413   .     A
C809   C860    1.408   .     S
C810   C813    1.413   .     A
C810   C859    1.408   1_455 S
C811   C819    1.397   .     A
C811   C824    1.393   .     A
C812   O843    1.293   .     A
C812   C821    1.425   .     S
C812   O845    1.285   .     A
C813   C818    1.397   .     A
C814   C816    1.485   .     S
C814   C868    1.396   .     S
C815   C817    1.485   .     S
C815   C869    1.396   1_455 S
C816   H837    1.083   .     S
C817   H838    1.083   .     S
C817   O642    1.221   1_565 S
C818   H831    1.084   .     S
C818   C864    1.396   1_455 S
C819   H832    1.084   .     S
C819   C865    1.396   .     S
C821   C620    1.326   1_565 S
C821   H634    1.088   1_565 S
C822   O848    1.292   .     A
C822   O846    1.294   .     A
C823   O849    1.292   .     A
C823   O847    1.294   .     A
C824   F827    1.361   .     S
Cu825  N840    2.022   .     S
Cu825  O845    1.948   .     S
Cu825  O841    1.954   .     S
Cu825  Cu826   2.691   .     S
Cu825  O846    1.964   .     S
Cu825  O849    1.948   .     S
Cu826  O848    1.948   .     S
Cu826  O844    1.948   .     S
Cu826  O847    1.964   .     S
Cu826  O843    1.954   .     S
Cu826  N839    2.022   .     S
H833   C620    1.088   1_565 S
H835   N239    1.029   1_556 S
N840   N239    1.293   1_556 S
N840   H236    1.029   1_556 S
O850   C616    1.221   1_565 S
C851   O894    1.285   .     A
C851   C870    1.425   .     S
C851   O891    1.293   .     A
C852   C854    1.391   .     A
C852   C863    1.393   .     A
C852   F878    1.361   .     S
C853   C874    1.391   .     A
C853   C873    1.445   .     S
C853   C855    1.396   .     A
C854   C872    1.445   .     S
C854   C856    1.396   .     A
C855   C857    1.410   .     A
C855   F879    1.358   .     S
C856   C858    1.410   .     A
C856   F880    1.358   .     S
C857   C859    1.427   .     A
C857   C864    1.422   .     A
C858   C865    1.422   .     A
C858   C860    1.427   .     A
C859   C861    1.413   .     A
C859   C810    1.408   1_655 S
C860   C863    1.413   .     A
C861   C869    1.397   .     A
C861   C874    1.393   .     A
C862   O893    1.293   .     A
C862   C871    1.425   .     S
C862   O895    1.285   .     A
C863   C868    1.397   .     A
C864   C866    1.485   .     S
C864   C818    1.396   1_655 S
C865   C867    1.485   .     S
C866   H887    1.083   .     S
C867   H888    1.083   .     S
C867   O692    1.221   1_565 S
C868   H881    1.084   .     S
C869   H882    1.084   .     S
C869   C815    1.396   1_655 S
C871   C670    1.326   1_565 S
C871   H684    1.088   1_565 S
C872   O898    1.292   .     A
C872   O896    1.294   .     A
C873   O899    1.292   .     A
C873   O897    1.294   .     A
C874   F877    1.361   .     S
Cu875  N890    2.022   .     S
Cu875  O895    1.948   .     S
Cu875  O891    1.954   .     S
Cu875  Cu876   2.691   .     S
Cu875  O896    1.964   .     S
Cu875  O899    1.948   .     S
Cu876  O898    1.948   .     S
Cu876  O894    1.948   .     S
Cu876  O897    1.964   .     S
Cu876  O893    1.954   .     S
Cu876  N889    2.022   .     S
H883   C670    1.088   1_565 S
H885   N289    1.029   1_556 S
N890   N289    1.293   1_556 S
N890   H286    1.029   1_556 S
O900   C666    1.221   1_565 S
