data_str_m2_o1_o18_pcu_sym.49
_audit_creation_date              2020-01-03
_audit_creation_method            'Materials Studio'
_symmetry_space_group_name_H-M    'P1'
_symmetry_Int_Tables_number       1
_symmetry_cell_setting            triclinic
loop_
_symmetry_equiv_pos_as_xyz
  x,y,z
_cell_length_a                    28.6582
_cell_length_b                    32.4925
_cell_length_c                    31.0887
_cell_angle_alpha                 89.3821
_cell_angle_beta                  74.1709
_cell_angle_gamma                 90.3220
loop_
_atom_site_label
_atom_site_type_symbol
_atom_site_fract_x
_atom_site_fract_y
_atom_site_fract_z
_atom_site_U_iso_or_equiv
_atom_site_adp_type
_atom_site_occupancy
C1     C     0.33323   0.08739   0.25005   0.00000  Uiso   1.00
C2     C     0.04181   0.02150   0.25171   0.00000  Uiso   1.00
C3     C     0.00012   0.29058   0.24994   0.00000  Uiso   1.00
C4     C     0.33322   0.04276   0.25005   0.00000  Uiso   1.00
C5     C     0.18270   0.14034   0.27743   0.00000  Uiso   1.00
C6     C     0.15063   0.19301   0.22259   0.00000  Uiso   1.00
C7     C     0.13328   0.14052   0.27733   0.00000  Uiso   1.00
C8     C     0.20006   0.19282   0.22267   0.00000  Uiso   1.00
C9     C     0.30602   0.16682   0.33599   0.00000  Uiso   1.00
C10    C     0.02731   0.16606   0.16404   0.00000  Uiso   1.00
C11    C     0.29099   0.16754   0.38503   0.00000  Uiso   1.00
C12    C     0.00010   0.24594   0.24995   0.00000  Uiso   1.00
C13    C     0.04254   0.16171   0.11532   0.00000  Uiso   1.00
C14    C     0.30848   0.17874   0.45577   0.00000  Uiso   1.00
C15    C     0.02731   0.13929   0.04654   0.00000  Uiso   1.00
C16    C     0.32435   0.17566   0.40946   0.00000  Uiso   1.00
C17    C     0.01036   0.14760   0.09195   0.00000  Uiso   1.00
C18    C     0.24203   0.16128   0.40742   0.00000  Uiso   1.00
C19    C     0.09133   0.16832   0.09275   0.00000  Uiso   1.00
C20    C     0.22531   0.16268   0.45426   0.00000  Uiso   1.00
C21    C     0.10977   0.15878   0.04734   0.00000  Uiso   1.00
C22    C     0.25932   0.17269   0.47826   0.00000  Uiso   1.00
C23    C     0.19536   0.17238   0.04718   0.00000  Uiso   1.00
C24    C     0.07658   0.14479   0.02409   0.00000  Uiso   1.00
C25    C     0.17566   0.15577   0.47765   0.00000  Uiso   1.00
C26    C     0.16005   0.16270   0.02454   0.00000  Uiso   1.00
C27    C     0.19709   0.11166   0.30689   0.00000  Uiso   1.00
C28    C     0.13623   0.22179   0.19324   0.00000  Uiso   1.00
C29    C     0.14132   0.14143   0.45590   0.00000  Uiso   1.00
C30    C     0.24396   0.17699   0.02440   0.00000  Uiso   1.00
C31    C     0.09287   0.13593   0.47883   0.00000  Uiso   1.00
C32    C     0.29141   0.02108   0.24833   0.00000  Uiso   1.00
C33    C     0.04192   0.31226   0.25166   0.00000  Uiso   1.00
C34    C     0.29152   0.31183   0.24828   0.00000  Uiso   1.00
Cu35   Cu    0.04689   0.16667   0.25000   0.00000  Uiso   1.00
Cu36   Cu    0.28645   0.16666   0.25000   0.00000  Uiso   1.00
H37    H     0.26964   0.18454   0.04311   0.00000  Uiso   1.00
H38    H     0.15082   0.13284   0.42127   0.00000  Uiso   1.00
H39    H     0.25868   0.03691   0.24694   0.00000  Uiso   1.00
H40    H     0.07465   0.29643   0.25305   0.00000  Uiso   1.00
H41    H     0.25883   0.29566   0.24687   0.00000  Uiso   1.00
H42    H     0.07451   0.03768   0.25312   0.00000  Uiso   1.00
H43    H     0.10758   0.11965   0.29911   0.00000  Uiso   1.00
H44    H     0.22575   0.21370   0.20090   0.00000  Uiso   1.00
H45    H     0.06792   0.12467   0.46088   0.00000  Uiso   1.00
H46    H     0.11412   0.18106   0.11163   0.00000  Uiso   1.00
H47    H     0.21735   0.15666   0.38733   0.00000  Uiso   1.00
H48    H     0.30582   0.14199   0.10894   0.00000  Uiso   1.00
H49    H     0.02906   0.18077   0.39275   0.00000  Uiso   1.00
H50    H     0.00125   0.18644   0.47395   0.00000  Uiso   1.00
H51    H     0.00203   0.12778   0.02910   0.00000  Uiso   1.00
H52    H     0.18708   0.17567   0.08287   0.00000  Uiso   1.00
N53    N     0.11736   0.16668   0.24999   0.00000  Uiso   1.00
N54    N     0.21597   0.16666   0.25001   0.00000  Uiso   1.00
N55    N     0.20828   0.08843   0.33069   0.00000  Uiso   1.00
N56    N     0.12503   0.24511   0.16954   0.00000  Uiso   1.00
O57    O     0.03958   0.10655   0.25000   0.00000  Uiso   1.00
O58    O     0.29375   0.22678   0.25000   0.00000  Uiso   1.00
O59    O     0.29372   0.10654   0.25000   0.00000  Uiso   1.00
O60    O     0.03961   0.22679   0.24999   0.00000  Uiso   1.00
O61    O     0.01852   0.16668   0.31491   0.00000  Uiso   1.00
O62    O     0.31481   0.16666   0.18508   0.00000  Uiso   1.00
O63    O     0.27267   0.16667   0.31492   0.00000  Uiso   1.00
O64    O     0.06067   0.16667   0.18508   0.00000  Uiso   1.00
C65    C     0.66656   0.08739   0.25005   0.00000  Uiso   1.00
C66    C     0.37515   0.02150   0.25171   0.00000  Uiso   1.00
C67    C     0.33345   0.29058   0.24994   0.00000  Uiso   1.00
C68    C     0.66655   0.04276   0.25005   0.00000  Uiso   1.00
C69    C     0.51603   0.14034   0.27743   0.00000  Uiso   1.00
C70    C     0.48396   0.19301   0.22259   0.00000  Uiso   1.00
C71    C     0.46661   0.14052   0.27733   0.00000  Uiso   1.00
C72    C     0.53339   0.19282   0.22267   0.00000  Uiso   1.00
C73    C     0.63936   0.16682   0.33599   0.00000  Uiso   1.00
C74    C     0.36064   0.16606   0.16404   0.00000  Uiso   1.00
C75    C     0.62432   0.16754   0.38503   0.00000  Uiso   1.00
C76    C     0.33344   0.24594   0.24995   0.00000  Uiso   1.00
C77    C     0.37588   0.16171   0.11532   0.00000  Uiso   1.00
C78    C     0.64181   0.17874   0.45577   0.00000  Uiso   1.00
C79    C     0.36064   0.13929   0.04654   0.00000  Uiso   1.00
C80    C     0.65768   0.17566   0.40946   0.00000  Uiso   1.00
C81    C     0.34370   0.14760   0.09195   0.00000  Uiso   1.00
C82    C     0.57536   0.16128   0.40742   0.00000  Uiso   1.00
C83    C     0.42467   0.16832   0.09275   0.00000  Uiso   1.00
C84    C     0.55865   0.16268   0.45426   0.00000  Uiso   1.00
C85    C     0.44311   0.15878   0.04734   0.00000  Uiso   1.00
C86    C     0.59265   0.17269   0.47826   0.00000  Uiso   1.00
C87    C     0.52869   0.17238   0.04718   0.00000  Uiso   1.00
C88    C     0.40992   0.14479   0.02409   0.00000  Uiso   1.00
C89    C     0.50899   0.15577   0.47765   0.00000  Uiso   1.00
C90    C     0.49338   0.16270   0.02454   0.00000  Uiso   1.00
C91    C     0.53042   0.11166   0.30689   0.00000  Uiso   1.00
C92    C     0.46956   0.22179   0.19324   0.00000  Uiso   1.00
C93    C     0.47465   0.14143   0.45590   0.00000  Uiso   1.00
C94    C     0.57729   0.17699   0.02440   0.00000  Uiso   1.00
C95    C     0.42621   0.13593   0.47883   0.00000  Uiso   1.00
C96    C     0.62475   0.02108   0.24833   0.00000  Uiso   1.00
C97    C     0.37526   0.31226   0.25166   0.00000  Uiso   1.00
C98    C     0.62486   0.31183   0.24828   0.00000  Uiso   1.00
Cu99   Cu    0.38022   0.16667   0.25000   0.00000  Uiso   1.00
Cu100  Cu    0.61978   0.16666   0.25000   0.00000  Uiso   1.00
H101   H     0.60297   0.18454   0.04311   0.00000  Uiso   1.00
H102   H     0.48415   0.13284   0.42127   0.00000  Uiso   1.00
H103   H     0.59202   0.03691   0.24694   0.00000  Uiso   1.00
H104   H     0.40798   0.29643   0.25305   0.00000  Uiso   1.00
H105   H     0.59216   0.29566   0.24687   0.00000  Uiso   1.00
H106   H     0.40784   0.03768   0.25312   0.00000  Uiso   1.00
H107   H     0.44092   0.11965   0.29911   0.00000  Uiso   1.00
H108   H     0.55908   0.21370   0.20090   0.00000  Uiso   1.00
H109   H     0.40125   0.12467   0.46088   0.00000  Uiso   1.00
H110   H     0.44746   0.18106   0.11163   0.00000  Uiso   1.00
H111   H     0.55068   0.15666   0.38733   0.00000  Uiso   1.00
H112   H     0.63915   0.14199   0.10894   0.00000  Uiso   1.00
H113   H     0.36239   0.18077   0.39275   0.00000  Uiso   1.00
H114   H     0.33458   0.18644   0.47395   0.00000  Uiso   1.00
H115   H     0.33536   0.12778   0.02910   0.00000  Uiso   1.00
H116   H     0.52042   0.17567   0.08287   0.00000  Uiso   1.00
N117   N     0.45069   0.16668   0.24999   0.00000  Uiso   1.00
N118   N     0.54931   0.16666   0.25001   0.00000  Uiso   1.00
N119   N     0.54162   0.08843   0.33069   0.00000  Uiso   1.00
N120   N     0.45836   0.24511   0.16954   0.00000  Uiso   1.00
O121   O     0.37291   0.10655   0.25000   0.00000  Uiso   1.00
O122   O     0.62709   0.22678   0.25000   0.00000  Uiso   1.00
O123   O     0.62706   0.10654   0.25000   0.00000  Uiso   1.00
O124   O     0.37294   0.22679   0.24999   0.00000  Uiso   1.00
O125   O     0.35186   0.16668   0.31491   0.00000  Uiso   1.00
O126   O     0.64814   0.16666   0.18508   0.00000  Uiso   1.00
O127   O     0.60600   0.16667   0.31492   0.00000  Uiso   1.00
O128   O     0.39400   0.16667   0.18508   0.00000  Uiso   1.00
C129   C     0.99990   0.08739   0.25005   0.00000  Uiso   1.00
C130   C     0.70848   0.02150   0.25171   0.00000  Uiso   1.00
C131   C     0.66678   0.29058   0.24994   0.00000  Uiso   1.00
C132   C     0.99988   0.04276   0.25005   0.00000  Uiso   1.00
C133   C     0.84937   0.14034   0.27743   0.00000  Uiso   1.00
C134   C     0.81730   0.19301   0.22259   0.00000  Uiso   1.00
C135   C     0.79994   0.14052   0.27733   0.00000  Uiso   1.00
C136   C     0.86673   0.19282   0.22267   0.00000  Uiso   1.00
C137   C     0.97269   0.16682   0.33599   0.00000  Uiso   1.00
C138   C     0.69397   0.16606   0.16404   0.00000  Uiso   1.00
C139   C     0.95765   0.16754   0.38503   0.00000  Uiso   1.00
C140   C     0.66677   0.24594   0.24995   0.00000  Uiso   1.00
C141   C     0.70921   0.16171   0.11532   0.00000  Uiso   1.00
C142   C     0.97515   0.17874   0.45577   0.00000  Uiso   1.00
C143   C     0.69397   0.13929   0.04654   0.00000  Uiso   1.00
C144   C     0.99102   0.17566   0.40946   0.00000  Uiso   1.00
C145   C     0.67703   0.14760   0.09195   0.00000  Uiso   1.00
C146   C     0.90870   0.16128   0.40742   0.00000  Uiso   1.00
C147   C     0.75800   0.16832   0.09275   0.00000  Uiso   1.00
C148   C     0.89198   0.16268   0.45426   0.00000  Uiso   1.00
C149   C     0.77644   0.15878   0.04734   0.00000  Uiso   1.00
C150   C     0.92598   0.17269   0.47826   0.00000  Uiso   1.00
C151   C     0.86202   0.17238   0.04718   0.00000  Uiso   1.00
C152   C     0.74325   0.14479   0.02409   0.00000  Uiso   1.00
C153   C     0.84233   0.15577   0.47765   0.00000  Uiso   1.00
C154   C     0.82671   0.16270   0.02454   0.00000  Uiso   1.00
C155   C     0.86375   0.11166   0.30689   0.00000  Uiso   1.00
C156   C     0.80290   0.22179   0.19324   0.00000  Uiso   1.00
C157   C     0.80799   0.14143   0.45590   0.00000  Uiso   1.00
C158   C     0.91062   0.17699   0.02440   0.00000  Uiso   1.00
C159   C     0.75954   0.13593   0.47883   0.00000  Uiso   1.00
C160   C     0.95808   0.02108   0.24833   0.00000  Uiso   1.00
C161   C     0.70859   0.31226   0.25166   0.00000  Uiso   1.00
C162   C     0.95819   0.31183   0.24828   0.00000  Uiso   1.00
Cu163  Cu    0.71355   0.16667   0.25000   0.00000  Uiso   1.00
Cu164  Cu    0.95311   0.16666   0.25000   0.00000  Uiso   1.00
H165   H     0.93630   0.18454   0.04311   0.00000  Uiso   1.00
H166   H     0.81748   0.13284   0.42127   0.00000  Uiso   1.00
H167   H     0.92535   0.03691   0.24694   0.00000  Uiso   1.00
H168   H     0.74132   0.29643   0.25305   0.00000  Uiso   1.00
H169   H     0.92549   0.29566   0.24687   0.00000  Uiso   1.00
H170   H     0.74118   0.03768   0.25312   0.00000  Uiso   1.00
H171   H     0.77425   0.11965   0.29911   0.00000  Uiso   1.00
H172   H     0.89241   0.21370   0.20090   0.00000  Uiso   1.00
H173   H     0.73458   0.12467   0.46088   0.00000  Uiso   1.00
H174   H     0.78079   0.18106   0.11163   0.00000  Uiso   1.00
H175   H     0.88401   0.15666   0.38733   0.00000  Uiso   1.00
H176   H     0.97249   0.14199   0.10894   0.00000  Uiso   1.00
H177   H     0.69573   0.18077   0.39275   0.00000  Uiso   1.00
H178   H     0.66791   0.18644   0.47395   0.00000  Uiso   1.00
H179   H     0.66870   0.12778   0.02910   0.00000  Uiso   1.00
H180   H     0.85375   0.17567   0.08287   0.00000  Uiso   1.00
N181   N     0.78403   0.16668   0.24999   0.00000  Uiso   1.00
N182   N     0.88264   0.16666   0.25001   0.00000  Uiso   1.00
N183   N     0.87495   0.08843   0.33069   0.00000  Uiso   1.00
N184   N     0.79169   0.24511   0.16954   0.00000  Uiso   1.00
O185   O     0.70625   0.10655   0.25000   0.00000  Uiso   1.00
O186   O     0.96042   0.22678   0.25000   0.00000  Uiso   1.00
O187   O     0.96039   0.10654   0.25000   0.00000  Uiso   1.00
O188   O     0.70628   0.22679   0.24999   0.00000  Uiso   1.00
O189   O     0.68519   0.16668   0.31491   0.00000  Uiso   1.00
O190   O     0.98148   0.16666   0.18508   0.00000  Uiso   1.00
O191   O     0.93933   0.16667   0.31492   0.00000  Uiso   1.00
O192   O     0.72733   0.16667   0.18508   0.00000  Uiso   1.00
C193   C     0.33323   0.42072   0.25005   0.00000  Uiso   1.00
C194   C     0.04181   0.35484   0.25171   0.00000  Uiso   1.00
C195   C     0.00012   0.62391   0.24994   0.00000  Uiso   1.00
C196   C     0.33322   0.37609   0.25005   0.00000  Uiso   1.00
C197   C     0.18270   0.47367   0.27743   0.00000  Uiso   1.00
C198   C     0.15063   0.52634   0.22259   0.00000  Uiso   1.00
C199   C     0.13328   0.47385   0.27733   0.00000  Uiso   1.00
C200   C     0.20006   0.52615   0.22267   0.00000  Uiso   1.00
C201   C     0.30602   0.50015   0.33599   0.00000  Uiso   1.00
C202   C     0.02731   0.49940   0.16404   0.00000  Uiso   1.00
C203   C     0.29099   0.50088   0.38503   0.00000  Uiso   1.00
C204   C     0.00010   0.57928   0.24995   0.00000  Uiso   1.00
C205   C     0.04254   0.49504   0.11532   0.00000  Uiso   1.00
C206   C     0.30848   0.51207   0.45577   0.00000  Uiso   1.00
C207   C     0.02731   0.47262   0.04654   0.00000  Uiso   1.00
C208   C     0.32435   0.50899   0.40946   0.00000  Uiso   1.00
C209   C     0.01036   0.48093   0.09195   0.00000  Uiso   1.00
C210   C     0.24203   0.49461   0.40742   0.00000  Uiso   1.00
C211   C     0.09133   0.50166   0.09275   0.00000  Uiso   1.00
C212   C     0.22531   0.49601   0.45426   0.00000  Uiso   1.00
C213   C     0.10977   0.49212   0.04734   0.00000  Uiso   1.00
C214   C     0.25932   0.50603   0.47826   0.00000  Uiso   1.00
C215   C     0.19536   0.50572   0.04718   0.00000  Uiso   1.00
C216   C     0.07658   0.47812   0.02409   0.00000  Uiso   1.00
C217   C     0.17566   0.48910   0.47765   0.00000  Uiso   1.00
C218   C     0.16005   0.49603   0.02454   0.00000  Uiso   1.00
C219   C     0.19709   0.44499   0.30689   0.00000  Uiso   1.00
C220   C     0.13623   0.55512   0.19324   0.00000  Uiso   1.00
C221   C     0.14132   0.47476   0.45590   0.00000  Uiso   1.00
C222   C     0.24396   0.51033   0.02440   0.00000  Uiso   1.00
C223   C     0.09287   0.46926   0.47883   0.00000  Uiso   1.00
C224   C     0.29141   0.35441   0.24833   0.00000  Uiso   1.00
C225   C     0.04192   0.64559   0.25166   0.00000  Uiso   1.00
C226   C     0.29152   0.64516   0.24828   0.00000  Uiso   1.00
Cu227  Cu    0.04689   0.50001   0.25000   0.00000  Uiso   1.00
Cu228  Cu    0.28645   0.49999   0.25000   0.00000  Uiso   1.00
H229   H     0.26964   0.51788   0.04311   0.00000  Uiso   1.00
H230   H     0.15082   0.46617   0.42127   0.00000  Uiso   1.00
H231   H     0.25868   0.37024   0.24694   0.00000  Uiso   1.00
H232   H     0.07465   0.62976   0.25305   0.00000  Uiso   1.00
H233   H     0.25883   0.62899   0.24687   0.00000  Uiso   1.00
H234   H     0.07451   0.37101   0.25312   0.00000  Uiso   1.00
H235   H     0.10758   0.45298   0.29911   0.00000  Uiso   1.00
H236   H     0.22575   0.54703   0.20090   0.00000  Uiso   1.00
H237   H     0.06792   0.45800   0.46088   0.00000  Uiso   1.00
H238   H     0.11412   0.51440   0.11163   0.00000  Uiso   1.00
H239   H     0.21735   0.48999   0.38733   0.00000  Uiso   1.00
H240   H     0.30582   0.47533   0.10894   0.00000  Uiso   1.00
H241   H     0.02906   0.51410   0.39275   0.00000  Uiso   1.00
H242   H     0.00125   0.51977   0.47395   0.00000  Uiso   1.00
H243   H     0.00203   0.46112   0.02910   0.00000  Uiso   1.00
H244   H     0.18708   0.50901   0.08287   0.00000  Uiso   1.00
N245   N     0.11736   0.50001   0.24999   0.00000  Uiso   1.00
N246   N     0.21597   0.49999   0.25001   0.00000  Uiso   1.00
N247   N     0.20828   0.42177   0.33069   0.00000  Uiso   1.00
N248   N     0.12503   0.57845   0.16954   0.00000  Uiso   1.00
O249   O     0.03958   0.43989   0.25000   0.00000  Uiso   1.00
O250   O     0.29375   0.56011   0.25000   0.00000  Uiso   1.00
O251   O     0.29372   0.43988   0.25000   0.00000  Uiso   1.00
O252   O     0.03961   0.56012   0.24999   0.00000  Uiso   1.00
O253   O     0.01852   0.50001   0.31491   0.00000  Uiso   1.00
O254   O     0.31481   0.49999   0.18508   0.00000  Uiso   1.00
O255   O     0.27267   0.50000   0.31492   0.00000  Uiso   1.00
O256   O     0.06067   0.50000   0.18508   0.00000  Uiso   1.00
C257   C     0.66656   0.42072   0.25005   0.00000  Uiso   1.00
C258   C     0.37515   0.35484   0.25171   0.00000  Uiso   1.00
C259   C     0.33345   0.62391   0.24994   0.00000  Uiso   1.00
C260   C     0.66655   0.37609   0.25005   0.00000  Uiso   1.00
C261   C     0.51603   0.47367   0.27743   0.00000  Uiso   1.00
C262   C     0.48396   0.52634   0.22259   0.00000  Uiso   1.00
C263   C     0.46661   0.47385   0.27733   0.00000  Uiso   1.00
C264   C     0.53339   0.52615   0.22267   0.00000  Uiso   1.00
C265   C     0.63936   0.50015   0.33599   0.00000  Uiso   1.00
C266   C     0.36064   0.49940   0.16404   0.00000  Uiso   1.00
C267   C     0.62432   0.50088   0.38503   0.00000  Uiso   1.00
C268   C     0.33344   0.57928   0.24995   0.00000  Uiso   1.00
C269   C     0.37588   0.49504   0.11532   0.00000  Uiso   1.00
C270   C     0.64181   0.51207   0.45577   0.00000  Uiso   1.00
C271   C     0.36064   0.47262   0.04654   0.00000  Uiso   1.00
C272   C     0.65768   0.50899   0.40946   0.00000  Uiso   1.00
C273   C     0.34370   0.48093   0.09195   0.00000  Uiso   1.00
C274   C     0.57536   0.49461   0.40742   0.00000  Uiso   1.00
C275   C     0.42467   0.50166   0.09275   0.00000  Uiso   1.00
C276   C     0.55865   0.49601   0.45426   0.00000  Uiso   1.00
C277   C     0.44311   0.49212   0.04734   0.00000  Uiso   1.00
C278   C     0.59265   0.50603   0.47826   0.00000  Uiso   1.00
C279   C     0.52869   0.50572   0.04718   0.00000  Uiso   1.00
C280   C     0.40992   0.47812   0.02409   0.00000  Uiso   1.00
C281   C     0.50899   0.48910   0.47765   0.00000  Uiso   1.00
C282   C     0.49338   0.49603   0.02454   0.00000  Uiso   1.00
C283   C     0.53042   0.44499   0.30689   0.00000  Uiso   1.00
C284   C     0.46956   0.55512   0.19324   0.00000  Uiso   1.00
C285   C     0.47465   0.47476   0.45590   0.00000  Uiso   1.00
C286   C     0.57729   0.51033   0.02440   0.00000  Uiso   1.00
C287   C     0.42621   0.46926   0.47883   0.00000  Uiso   1.00
C288   C     0.62475   0.35441   0.24833   0.00000  Uiso   1.00
C289   C     0.37526   0.64559   0.25166   0.00000  Uiso   1.00
C290   C     0.62486   0.64516   0.24828   0.00000  Uiso   1.00
Cu291  Cu    0.38022   0.50001   0.25000   0.00000  Uiso   1.00
Cu292  Cu    0.61978   0.49999   0.25000   0.00000  Uiso   1.00
H293   H     0.60297   0.51788   0.04311   0.00000  Uiso   1.00
H294   H     0.48415   0.46617   0.42127   0.00000  Uiso   1.00
H295   H     0.59202   0.37024   0.24694   0.00000  Uiso   1.00
H296   H     0.40798   0.62976   0.25305   0.00000  Uiso   1.00
H297   H     0.59216   0.62899   0.24687   0.00000  Uiso   1.00
H298   H     0.40784   0.37101   0.25312   0.00000  Uiso   1.00
H299   H     0.44092   0.45298   0.29911   0.00000  Uiso   1.00
H300   H     0.55908   0.54703   0.20090   0.00000  Uiso   1.00
H301   H     0.40125   0.45800   0.46088   0.00000  Uiso   1.00
H302   H     0.44746   0.51440   0.11163   0.00000  Uiso   1.00
H303   H     0.55068   0.48999   0.38733   0.00000  Uiso   1.00
H304   H     0.63915   0.47533   0.10894   0.00000  Uiso   1.00
H305   H     0.36239   0.51410   0.39275   0.00000  Uiso   1.00
H306   H     0.33458   0.51977   0.47395   0.00000  Uiso   1.00
H307   H     0.33536   0.46112   0.02910   0.00000  Uiso   1.00
H308   H     0.52042   0.50901   0.08287   0.00000  Uiso   1.00
N309   N     0.45069   0.50001   0.24999   0.00000  Uiso   1.00
N310   N     0.54931   0.49999   0.25001   0.00000  Uiso   1.00
N311   N     0.54162   0.42177   0.33069   0.00000  Uiso   1.00
N312   N     0.45836   0.57845   0.16954   0.00000  Uiso   1.00
O313   O     0.37291   0.43989   0.25000   0.00000  Uiso   1.00
O314   O     0.62709   0.56011   0.25000   0.00000  Uiso   1.00
O315   O     0.62706   0.43988   0.25000   0.00000  Uiso   1.00
O316   O     0.37294   0.56012   0.24999   0.00000  Uiso   1.00
O317   O     0.35186   0.50001   0.31491   0.00000  Uiso   1.00
O318   O     0.64814   0.49999   0.18508   0.00000  Uiso   1.00
O319   O     0.60600   0.50000   0.31492   0.00000  Uiso   1.00
O320   O     0.39400   0.50000   0.18508   0.00000  Uiso   1.00
C321   C     0.99990   0.42072   0.25005   0.00000  Uiso   1.00
C322   C     0.70848   0.35484   0.25171   0.00000  Uiso   1.00
C323   C     0.66678   0.62391   0.24994   0.00000  Uiso   1.00
C324   C     0.99988   0.37609   0.25005   0.00000  Uiso   1.00
C325   C     0.84937   0.47367   0.27743   0.00000  Uiso   1.00
C326   C     0.81730   0.52634   0.22259   0.00000  Uiso   1.00
C327   C     0.79994   0.47385   0.27733   0.00000  Uiso   1.00
C328   C     0.86673   0.52615   0.22267   0.00000  Uiso   1.00
C329   C     0.97269   0.50015   0.33599   0.00000  Uiso   1.00
C330   C     0.69397   0.49940   0.16404   0.00000  Uiso   1.00
C331   C     0.95765   0.50088   0.38503   0.00000  Uiso   1.00
C332   C     0.66677   0.57928   0.24995   0.00000  Uiso   1.00
C333   C     0.70921   0.49504   0.11532   0.00000  Uiso   1.00
C334   C     0.97515   0.51207   0.45577   0.00000  Uiso   1.00
C335   C     0.69397   0.47262   0.04654   0.00000  Uiso   1.00
C336   C     0.99102   0.50899   0.40946   0.00000  Uiso   1.00
C337   C     0.67703   0.48093   0.09195   0.00000  Uiso   1.00
C338   C     0.90870   0.49461   0.40742   0.00000  Uiso   1.00
C339   C     0.75800   0.50166   0.09275   0.00000  Uiso   1.00
C340   C     0.89198   0.49601   0.45426   0.00000  Uiso   1.00
C341   C     0.77644   0.49212   0.04734   0.00000  Uiso   1.00
C342   C     0.92598   0.50603   0.47826   0.00000  Uiso   1.00
C343   C     0.86202   0.50572   0.04718   0.00000  Uiso   1.00
C344   C     0.74325   0.47812   0.02409   0.00000  Uiso   1.00
C345   C     0.84233   0.48910   0.47765   0.00000  Uiso   1.00
C346   C     0.82671   0.49603   0.02454   0.00000  Uiso   1.00
C347   C     0.86375   0.44499   0.30689   0.00000  Uiso   1.00
C348   C     0.80290   0.55512   0.19324   0.00000  Uiso   1.00
C349   C     0.80799   0.47476   0.45590   0.00000  Uiso   1.00
C350   C     0.91062   0.51033   0.02440   0.00000  Uiso   1.00
C351   C     0.75954   0.46926   0.47883   0.00000  Uiso   1.00
C352   C     0.95808   0.35441   0.24833   0.00000  Uiso   1.00
C353   C     0.70859   0.64559   0.25166   0.00000  Uiso   1.00
C354   C     0.95819   0.64516   0.24828   0.00000  Uiso   1.00
Cu355  Cu    0.71355   0.50001   0.25000   0.00000  Uiso   1.00
Cu356  Cu    0.95311   0.49999   0.25000   0.00000  Uiso   1.00
H357   H     0.93630   0.51788   0.04311   0.00000  Uiso   1.00
H358   H     0.81748   0.46617   0.42127   0.00000  Uiso   1.00
H359   H     0.92535   0.37024   0.24694   0.00000  Uiso   1.00
H360   H     0.74132   0.62976   0.25305   0.00000  Uiso   1.00
H361   H     0.92549   0.62899   0.24687   0.00000  Uiso   1.00
H362   H     0.74118   0.37101   0.25312   0.00000  Uiso   1.00
H363   H     0.77425   0.45298   0.29911   0.00000  Uiso   1.00
H364   H     0.89241   0.54703   0.20090   0.00000  Uiso   1.00
H365   H     0.73458   0.45800   0.46088   0.00000  Uiso   1.00
H366   H     0.78079   0.51440   0.11163   0.00000  Uiso   1.00
H367   H     0.88401   0.48999   0.38733   0.00000  Uiso   1.00
H368   H     0.97249   0.47533   0.10894   0.00000  Uiso   1.00
H369   H     0.69573   0.51410   0.39275   0.00000  Uiso   1.00
H370   H     0.66791   0.51977   0.47395   0.00000  Uiso   1.00
H371   H     0.66870   0.46112   0.02910   0.00000  Uiso   1.00
H372   H     0.85375   0.50901   0.08287   0.00000  Uiso   1.00
N373   N     0.78403   0.50001   0.24999   0.00000  Uiso   1.00
N374   N     0.88264   0.49999   0.25001   0.00000  Uiso   1.00
N375   N     0.87495   0.42177   0.33069   0.00000  Uiso   1.00
N376   N     0.79169   0.57845   0.16954   0.00000  Uiso   1.00
O377   O     0.70625   0.43989   0.25000   0.00000  Uiso   1.00
O378   O     0.96042   0.56011   0.25000   0.00000  Uiso   1.00
O379   O     0.96039   0.43988   0.25000   0.00000  Uiso   1.00
O380   O     0.70628   0.56012   0.24999   0.00000  Uiso   1.00
O381   O     0.68519   0.50001   0.31491   0.00000  Uiso   1.00
O382   O     0.98148   0.49999   0.18508   0.00000  Uiso   1.00
O383   O     0.93933   0.50000   0.31492   0.00000  Uiso   1.00
O384   O     0.72733   0.50000   0.18508   0.00000  Uiso   1.00
C385   C     0.33323   0.75406   0.25005   0.00000  Uiso   1.00
C386   C     0.04181   0.68817   0.25171   0.00000  Uiso   1.00
C387   C     0.00012   0.95725   0.24994   0.00000  Uiso   1.00
C388   C     0.33322   0.70942   0.25005   0.00000  Uiso   1.00
C389   C     0.18270   0.80701   0.27743   0.00000  Uiso   1.00
C390   C     0.15063   0.85968   0.22259   0.00000  Uiso   1.00
C391   C     0.13328   0.80718   0.27733   0.00000  Uiso   1.00
C392   C     0.20006   0.85948   0.22267   0.00000  Uiso   1.00
C393   C     0.30602   0.83349   0.33599   0.00000  Uiso   1.00
C394   C     0.02731   0.83273   0.16404   0.00000  Uiso   1.00
C395   C     0.29099   0.83421   0.38503   0.00000  Uiso   1.00
C396   C     0.00010   0.91261   0.24995   0.00000  Uiso   1.00
C397   C     0.04254   0.82838   0.11532   0.00000  Uiso   1.00
C398   C     0.30848   0.84541   0.45577   0.00000  Uiso   1.00
C399   C     0.02731   0.80596   0.04654   0.00000  Uiso   1.00
C400   C     0.32435   0.84232   0.40946   0.00000  Uiso   1.00
C401   C     0.01036   0.81426   0.09195   0.00000  Uiso   1.00
C402   C     0.24203   0.82794   0.40742   0.00000  Uiso   1.00
C403   C     0.09133   0.83499   0.09275   0.00000  Uiso   1.00
C404   C     0.22531   0.82935   0.45426   0.00000  Uiso   1.00
C405   C     0.10977   0.82545   0.04734   0.00000  Uiso   1.00
C406   C     0.25932   0.83936   0.47826   0.00000  Uiso   1.00
C407   C     0.19536   0.83905   0.04718   0.00000  Uiso   1.00
C408   C     0.07658   0.81146   0.02409   0.00000  Uiso   1.00
C409   C     0.17566   0.82243   0.47765   0.00000  Uiso   1.00
C410   C     0.16005   0.82937   0.02454   0.00000  Uiso   1.00
C411   C     0.19709   0.77832   0.30689   0.00000  Uiso   1.00
C412   C     0.13623   0.88846   0.19324   0.00000  Uiso   1.00
C413   C     0.14132   0.80810   0.45590   0.00000  Uiso   1.00
C414   C     0.24396   0.84366   0.02440   0.00000  Uiso   1.00
C415   C     0.09287   0.80260   0.47883   0.00000  Uiso   1.00
C416   C     0.29141   0.68774   0.24833   0.00000  Uiso   1.00
C417   C     0.04192   0.97893   0.25166   0.00000  Uiso   1.00
C418   C     0.29152   0.97850   0.24828   0.00000  Uiso   1.00
Cu419  Cu    0.04689   0.83334   0.25000   0.00000  Uiso   1.00
Cu420  Cu    0.28645   0.83333   0.25000   0.00000  Uiso   1.00
H421   H     0.26964   0.85121   0.04311   0.00000  Uiso   1.00
H422   H     0.15082   0.79950   0.42127   0.00000  Uiso   1.00
H423   H     0.25868   0.70357   0.24694   0.00000  Uiso   1.00
H424   H     0.07465   0.96310   0.25305   0.00000  Uiso   1.00
H425   H     0.25883   0.96233   0.24687   0.00000  Uiso   1.00
H426   H     0.07451   0.70434   0.25312   0.00000  Uiso   1.00
H427   H     0.10758   0.78631   0.29911   0.00000  Uiso   1.00
H428   H     0.22575   0.88036   0.20090   0.00000  Uiso   1.00
H429   H     0.06792   0.79133   0.46088   0.00000  Uiso   1.00
H430   H     0.11412   0.84773   0.11163   0.00000  Uiso   1.00
H431   H     0.21735   0.82333   0.38733   0.00000  Uiso   1.00
H432   H     0.30582   0.80866   0.10894   0.00000  Uiso   1.00
H433   H     0.02906   0.84744   0.39275   0.00000  Uiso   1.00
H434   H     0.00125   0.85310   0.47395   0.00000  Uiso   1.00
H435   H     0.00203   0.79445   0.02910   0.00000  Uiso   1.00
H436   H     0.18708   0.84234   0.08287   0.00000  Uiso   1.00
N437   N     0.11736   0.83334   0.24999   0.00000  Uiso   1.00
N438   N     0.21597   0.83332   0.25001   0.00000  Uiso   1.00
N439   N     0.20828   0.75510   0.33069   0.00000  Uiso   1.00
N440   N     0.12503   0.91178   0.16954   0.00000  Uiso   1.00
O441   O     0.03958   0.77322   0.25000   0.00000  Uiso   1.00
O442   O     0.29375   0.89345   0.25000   0.00000  Uiso   1.00
O443   O     0.29372   0.77321   0.25000   0.00000  Uiso   1.00
O444   O     0.03961   0.89346   0.24999   0.00000  Uiso   1.00
O445   O     0.01852   0.83334   0.31491   0.00000  Uiso   1.00
O446   O     0.31481   0.83332   0.18508   0.00000  Uiso   1.00
O447   O     0.27267   0.83333   0.31492   0.00000  Uiso   1.00
O448   O     0.06067   0.83333   0.18508   0.00000  Uiso   1.00
C449   C     0.66656   0.75406   0.25005   0.00000  Uiso   1.00
C450   C     0.37515   0.68817   0.25171   0.00000  Uiso   1.00
C451   C     0.33345   0.95725   0.24994   0.00000  Uiso   1.00
C452   C     0.66655   0.70942   0.25005   0.00000  Uiso   1.00
C453   C     0.51603   0.80701   0.27743   0.00000  Uiso   1.00
C454   C     0.48396   0.85968   0.22259   0.00000  Uiso   1.00
C455   C     0.46661   0.80718   0.27733   0.00000  Uiso   1.00
C456   C     0.53339   0.85948   0.22267   0.00000  Uiso   1.00
C457   C     0.63936   0.83349   0.33599   0.00000  Uiso   1.00
C458   C     0.36064   0.83273   0.16404   0.00000  Uiso   1.00
C459   C     0.62432   0.83421   0.38503   0.00000  Uiso   1.00
C460   C     0.33344   0.91261   0.24995   0.00000  Uiso   1.00
C461   C     0.37588   0.82838   0.11532   0.00000  Uiso   1.00
C462   C     0.64181   0.84541   0.45577   0.00000  Uiso   1.00
C463   C     0.36064   0.80596   0.04654   0.00000  Uiso   1.00
C464   C     0.65768   0.84232   0.40946   0.00000  Uiso   1.00
C465   C     0.34370   0.81426   0.09195   0.00000  Uiso   1.00
C466   C     0.57536   0.82794   0.40742   0.00000  Uiso   1.00
C467   C     0.42467   0.83499   0.09275   0.00000  Uiso   1.00
C468   C     0.55865   0.82935   0.45426   0.00000  Uiso   1.00
C469   C     0.44311   0.82545   0.04734   0.00000  Uiso   1.00
C470   C     0.59265   0.83936   0.47826   0.00000  Uiso   1.00
C471   C     0.52869   0.83905   0.04718   0.00000  Uiso   1.00
C472   C     0.40992   0.81146   0.02409   0.00000  Uiso   1.00
C473   C     0.50899   0.82243   0.47765   0.00000  Uiso   1.00
C474   C     0.49338   0.82937   0.02454   0.00000  Uiso   1.00
C475   C     0.53042   0.77832   0.30689   0.00000  Uiso   1.00
C476   C     0.46956   0.88846   0.19324   0.00000  Uiso   1.00
C477   C     0.47465   0.80810   0.45590   0.00000  Uiso   1.00
C478   C     0.57729   0.84366   0.02440   0.00000  Uiso   1.00
C479   C     0.42621   0.80260   0.47883   0.00000  Uiso   1.00
C480   C     0.62475   0.68774   0.24833   0.00000  Uiso   1.00
C481   C     0.37526   0.97893   0.25166   0.00000  Uiso   1.00
C482   C     0.62486   0.97850   0.24828   0.00000  Uiso   1.00
Cu483  Cu    0.38022   0.83334   0.25000   0.00000  Uiso   1.00
Cu484  Cu    0.61978   0.83333   0.25000   0.00000  Uiso   1.00
H485   H     0.60297   0.85121   0.04311   0.00000  Uiso   1.00
H486   H     0.48415   0.79950   0.42127   0.00000  Uiso   1.00
H487   H     0.59202   0.70357   0.24694   0.00000  Uiso   1.00
H488   H     0.40798   0.96310   0.25305   0.00000  Uiso   1.00
H489   H     0.59216   0.96233   0.24687   0.00000  Uiso   1.00
H490   H     0.40784   0.70434   0.25312   0.00000  Uiso   1.00
H491   H     0.44092   0.78631   0.29911   0.00000  Uiso   1.00
H492   H     0.55908   0.88036   0.20090   0.00000  Uiso   1.00
H493   H     0.40125   0.79133   0.46088   0.00000  Uiso   1.00
H494   H     0.44746   0.84773   0.11163   0.00000  Uiso   1.00
H495   H     0.55068   0.82333   0.38733   0.00000  Uiso   1.00
H496   H     0.63915   0.80866   0.10894   0.00000  Uiso   1.00
H497   H     0.36239   0.84744   0.39275   0.00000  Uiso   1.00
H498   H     0.33458   0.85310   0.47395   0.00000  Uiso   1.00
H499   H     0.33536   0.79445   0.02910   0.00000  Uiso   1.00
H500   H     0.52042   0.84234   0.08287   0.00000  Uiso   1.00
N501   N     0.45069   0.83334   0.24999   0.00000  Uiso   1.00
N502   N     0.54931   0.83332   0.25001   0.00000  Uiso   1.00
N503   N     0.54162   0.75510   0.33069   0.00000  Uiso   1.00
N504   N     0.45836   0.91178   0.16954   0.00000  Uiso   1.00
O505   O     0.37291   0.77322   0.25000   0.00000  Uiso   1.00
O506   O     0.62709   0.89345   0.25000   0.00000  Uiso   1.00
O507   O     0.62706   0.77321   0.25000   0.00000  Uiso   1.00
O508   O     0.37294   0.89346   0.24999   0.00000  Uiso   1.00
O509   O     0.35186   0.83334   0.31491   0.00000  Uiso   1.00
O510   O     0.64814   0.83332   0.18508   0.00000  Uiso   1.00
O511   O     0.60600   0.83333   0.31492   0.00000  Uiso   1.00
O512   O     0.39400   0.83333   0.18508   0.00000  Uiso   1.00
C513   C     0.99990   0.75406   0.25005   0.00000  Uiso   1.00
C514   C     0.70848   0.68817   0.25171   0.00000  Uiso   1.00
C515   C     0.66678   0.95725   0.24994   0.00000  Uiso   1.00
C516   C     0.99988   0.70942   0.25005   0.00000  Uiso   1.00
C517   C     0.84937   0.80701   0.27743   0.00000  Uiso   1.00
C518   C     0.81730   0.85968   0.22259   0.00000  Uiso   1.00
C519   C     0.79994   0.80718   0.27733   0.00000  Uiso   1.00
C520   C     0.86673   0.85948   0.22267   0.00000  Uiso   1.00
C521   C     0.97269   0.83349   0.33599   0.00000  Uiso   1.00
C522   C     0.69397   0.83273   0.16404   0.00000  Uiso   1.00
C523   C     0.95765   0.83421   0.38503   0.00000  Uiso   1.00
C524   C     0.66677   0.91261   0.24995   0.00000  Uiso   1.00
C525   C     0.70921   0.82838   0.11532   0.00000  Uiso   1.00
C526   C     0.97515   0.84541   0.45577   0.00000  Uiso   1.00
C527   C     0.69397   0.80596   0.04654   0.00000  Uiso   1.00
C528   C     0.99102   0.84232   0.40946   0.00000  Uiso   1.00
C529   C     0.67703   0.81426   0.09195   0.00000  Uiso   1.00
C530   C     0.90870   0.82794   0.40742   0.00000  Uiso   1.00
C531   C     0.75800   0.83499   0.09275   0.00000  Uiso   1.00
C532   C     0.89198   0.82935   0.45426   0.00000  Uiso   1.00
C533   C     0.77644   0.82545   0.04734   0.00000  Uiso   1.00
C534   C     0.92598   0.83936   0.47826   0.00000  Uiso   1.00
C535   C     0.86202   0.83905   0.04718   0.00000  Uiso   1.00
C536   C     0.74325   0.81146   0.02409   0.00000  Uiso   1.00
C537   C     0.84233   0.82243   0.47765   0.00000  Uiso   1.00
C538   C     0.82671   0.82937   0.02454   0.00000  Uiso   1.00
C539   C     0.86375   0.77832   0.30689   0.00000  Uiso   1.00
C540   C     0.80290   0.88846   0.19324   0.00000  Uiso   1.00
C541   C     0.80799   0.80810   0.45590   0.00000  Uiso   1.00
C542   C     0.91062   0.84366   0.02440   0.00000  Uiso   1.00
C543   C     0.75954   0.80260   0.47883   0.00000  Uiso   1.00
C544   C     0.95808   0.68774   0.24833   0.00000  Uiso   1.00
C545   C     0.70859   0.97893   0.25166   0.00000  Uiso   1.00
C546   C     0.95819   0.97850   0.24828   0.00000  Uiso   1.00
Cu547  Cu    0.71355   0.83334   0.25000   0.00000  Uiso   1.00
Cu548  Cu    0.95311   0.83333   0.25000   0.00000  Uiso   1.00
H549   H     0.93630   0.85121   0.04311   0.00000  Uiso   1.00
H550   H     0.81748   0.79950   0.42127   0.00000  Uiso   1.00
H551   H     0.92535   0.70357   0.24694   0.00000  Uiso   1.00
H552   H     0.74132   0.96310   0.25305   0.00000  Uiso   1.00
H553   H     0.92549   0.96233   0.24687   0.00000  Uiso   1.00
H554   H     0.74118   0.70434   0.25312   0.00000  Uiso   1.00
H555   H     0.77425   0.78631   0.29911   0.00000  Uiso   1.00
H556   H     0.89241   0.88036   0.20090   0.00000  Uiso   1.00
H557   H     0.73458   0.79133   0.46088   0.00000  Uiso   1.00
H558   H     0.78079   0.84773   0.11163   0.00000  Uiso   1.00
H559   H     0.88401   0.82333   0.38733   0.00000  Uiso   1.00
H560   H     0.97249   0.80866   0.10894   0.00000  Uiso   1.00
H561   H     0.69573   0.84744   0.39275   0.00000  Uiso   1.00
H562   H     0.66791   0.85310   0.47395   0.00000  Uiso   1.00
H563   H     0.66870   0.79445   0.02910   0.00000  Uiso   1.00
H564   H     0.85375   0.84234   0.08287   0.00000  Uiso   1.00
N565   N     0.78403   0.83334   0.24999   0.00000  Uiso   1.00
N566   N     0.88264   0.83332   0.25001   0.00000  Uiso   1.00
N567   N     0.87495   0.75510   0.33069   0.00000  Uiso   1.00
N568   N     0.79169   0.91178   0.16954   0.00000  Uiso   1.00
O569   O     0.70625   0.77322   0.25000   0.00000  Uiso   1.00
O570   O     0.96042   0.89345   0.25000   0.00000  Uiso   1.00
O571   O     0.96039   0.77321   0.25000   0.00000  Uiso   1.00
O572   O     0.70628   0.89346   0.24999   0.00000  Uiso   1.00
O573   O     0.68519   0.83334   0.31491   0.00000  Uiso   1.00
O574   O     0.98148   0.83332   0.18508   0.00000  Uiso   1.00
O575   O     0.93933   0.83333   0.31492   0.00000  Uiso   1.00
O576   O     0.72733   0.83333   0.18508   0.00000  Uiso   1.00
C577   C     0.33323   0.08739   0.75005   0.00000  Uiso   1.00
C578   C     0.04181   0.02150   0.75171   0.00000  Uiso   1.00
C579   C     0.00012   0.29058   0.74994   0.00000  Uiso   1.00
C580   C     0.33322   0.04276   0.75005   0.00000  Uiso   1.00
C581   C     0.18270   0.14034   0.77743   0.00000  Uiso   1.00
C582   C     0.15063   0.19301   0.72259   0.00000  Uiso   1.00
C583   C     0.13328   0.14052   0.77733   0.00000  Uiso   1.00
C584   C     0.20006   0.19282   0.72267   0.00000  Uiso   1.00
C585   C     0.30602   0.16682   0.83599   0.00000  Uiso   1.00
C586   C     0.02731   0.16606   0.66404   0.00000  Uiso   1.00
C587   C     0.29099   0.16754   0.88503   0.00000  Uiso   1.00
C588   C     0.00010   0.24594   0.74995   0.00000  Uiso   1.00
C589   C     0.04254   0.16171   0.61532   0.00000  Uiso   1.00
C590   C     0.30848   0.17874   0.95577   0.00000  Uiso   1.00
C591   C     0.02731   0.13929   0.54654   0.00000  Uiso   1.00
C592   C     0.32435   0.17566   0.90946   0.00000  Uiso   1.00
C593   C     0.01036   0.14760   0.59195   0.00000  Uiso   1.00
C594   C     0.24203   0.16128   0.90742   0.00000  Uiso   1.00
C595   C     0.09133   0.16832   0.59275   0.00000  Uiso   1.00
C596   C     0.22531   0.16268   0.95426   0.00000  Uiso   1.00
C597   C     0.10977   0.15878   0.54734   0.00000  Uiso   1.00
C598   C     0.25932   0.17269   0.97826   0.00000  Uiso   1.00
C599   C     0.19536   0.17238   0.54718   0.00000  Uiso   1.00
C600   C     0.07658   0.14479   0.52409   0.00000  Uiso   1.00
C601   C     0.17566   0.15577   0.97765   0.00000  Uiso   1.00
C602   C     0.16005   0.16270   0.52454   0.00000  Uiso   1.00
C603   C     0.19709   0.11166   0.80689   0.00000  Uiso   1.00
C604   C     0.13623   0.22179   0.69324   0.00000  Uiso   1.00
C605   C     0.14132   0.14143   0.95590   0.00000  Uiso   1.00
C606   C     0.24396   0.17699   0.52440   0.00000  Uiso   1.00
C607   C     0.09287   0.13593   0.97883   0.00000  Uiso   1.00
C608   C     0.29141   0.02108   0.74833   0.00000  Uiso   1.00
C609   C     0.04192   0.31226   0.75166   0.00000  Uiso   1.00
C610   C     0.29152   0.31183   0.74828   0.00000  Uiso   1.00
Cu611  Cu    0.04689   0.16667   0.75000   0.00000  Uiso   1.00
Cu612  Cu    0.28645   0.16666   0.75000   0.00000  Uiso   1.00
H613   H     0.26964   0.18454   0.54311   0.00000  Uiso   1.00
H614   H     0.15082   0.13284   0.92127   0.00000  Uiso   1.00
H615   H     0.25868   0.03691   0.74694   0.00000  Uiso   1.00
H616   H     0.07465   0.29643   0.75305   0.00000  Uiso   1.00
H617   H     0.25883   0.29566   0.74687   0.00000  Uiso   1.00
H618   H     0.07451   0.03768   0.75312   0.00000  Uiso   1.00
H619   H     0.10758   0.11965   0.79911   0.00000  Uiso   1.00
H620   H     0.22575   0.21370   0.70090   0.00000  Uiso   1.00
H621   H     0.06792   0.12467   0.96088   0.00000  Uiso   1.00
H622   H     0.11412   0.18106   0.61163   0.00000  Uiso   1.00
H623   H     0.21735   0.15666   0.88733   0.00000  Uiso   1.00
H624   H     0.30582   0.14199   0.60894   0.00000  Uiso   1.00
H625   H     0.02906   0.18077   0.89275   0.00000  Uiso   1.00
H626   H     0.00125   0.18644   0.97395   0.00000  Uiso   1.00
H627   H     0.00203   0.12778   0.52910   0.00000  Uiso   1.00
H628   H     0.18708   0.17567   0.58287   0.00000  Uiso   1.00
N629   N     0.11736   0.16668   0.74999   0.00000  Uiso   1.00
N630   N     0.21597   0.16666   0.75001   0.00000  Uiso   1.00
N631   N     0.20828   0.08843   0.83069   0.00000  Uiso   1.00
N632   N     0.12503   0.24511   0.66954   0.00000  Uiso   1.00
O633   O     0.03958   0.10655   0.75000   0.00000  Uiso   1.00
O634   O     0.29375   0.22678   0.75000   0.00000  Uiso   1.00
O635   O     0.29372   0.10654   0.75000   0.00000  Uiso   1.00
O636   O     0.03961   0.22679   0.74999   0.00000  Uiso   1.00
O637   O     0.01852   0.16668   0.81491   0.00000  Uiso   1.00
O638   O     0.31481   0.16666   0.68508   0.00000  Uiso   1.00
O639   O     0.27267   0.16667   0.81492   0.00000  Uiso   1.00
O640   O     0.06067   0.16667   0.68508   0.00000  Uiso   1.00
C641   C     0.66656   0.08739   0.75005   0.00000  Uiso   1.00
C642   C     0.37515   0.02150   0.75171   0.00000  Uiso   1.00
C643   C     0.33345   0.29058   0.74994   0.00000  Uiso   1.00
C644   C     0.66655   0.04276   0.75005   0.00000  Uiso   1.00
C645   C     0.51603   0.14034   0.77743   0.00000  Uiso   1.00
C646   C     0.48396   0.19301   0.72259   0.00000  Uiso   1.00
C647   C     0.46661   0.14052   0.77733   0.00000  Uiso   1.00
C648   C     0.53339   0.19282   0.72267   0.00000  Uiso   1.00
C649   C     0.63936   0.16682   0.83599   0.00000  Uiso   1.00
C650   C     0.36064   0.16606   0.66404   0.00000  Uiso   1.00
C651   C     0.62432   0.16754   0.88503   0.00000  Uiso   1.00
C652   C     0.33344   0.24594   0.74995   0.00000  Uiso   1.00
C653   C     0.37588   0.16171   0.61532   0.00000  Uiso   1.00
C654   C     0.64181   0.17874   0.95577   0.00000  Uiso   1.00
C655   C     0.36064   0.13929   0.54654   0.00000  Uiso   1.00
C656   C     0.65768   0.17566   0.90946   0.00000  Uiso   1.00
C657   C     0.34370   0.14760   0.59195   0.00000  Uiso   1.00
C658   C     0.57536   0.16128   0.90742   0.00000  Uiso   1.00
C659   C     0.42467   0.16832   0.59275   0.00000  Uiso   1.00
C660   C     0.55865   0.16268   0.95426   0.00000  Uiso   1.00
C661   C     0.44311   0.15878   0.54734   0.00000  Uiso   1.00
C662   C     0.59265   0.17269   0.97826   0.00000  Uiso   1.00
C663   C     0.52869   0.17238   0.54718   0.00000  Uiso   1.00
C664   C     0.40992   0.14479   0.52409   0.00000  Uiso   1.00
C665   C     0.50899   0.15577   0.97765   0.00000  Uiso   1.00
C666   C     0.49338   0.16270   0.52454   0.00000  Uiso   1.00
C667   C     0.53042   0.11166   0.80689   0.00000  Uiso   1.00
C668   C     0.46956   0.22179   0.69324   0.00000  Uiso   1.00
C669   C     0.47465   0.14143   0.95590   0.00000  Uiso   1.00
C670   C     0.57729   0.17699   0.52440   0.00000  Uiso   1.00
C671   C     0.42621   0.13593   0.97883   0.00000  Uiso   1.00
C672   C     0.62475   0.02108   0.74833   0.00000  Uiso   1.00
C673   C     0.37526   0.31226   0.75166   0.00000  Uiso   1.00
C674   C     0.62486   0.31183   0.74828   0.00000  Uiso   1.00
Cu675  Cu    0.38022   0.16667   0.75000   0.00000  Uiso   1.00
Cu676  Cu    0.61978   0.16666   0.75000   0.00000  Uiso   1.00
H677   H     0.60297   0.18454   0.54311   0.00000  Uiso   1.00
H678   H     0.48415   0.13284   0.92127   0.00000  Uiso   1.00
H679   H     0.59202   0.03691   0.74694   0.00000  Uiso   1.00
H680   H     0.40798   0.29643   0.75305   0.00000  Uiso   1.00
H681   H     0.59216   0.29566   0.74687   0.00000  Uiso   1.00
H682   H     0.40784   0.03768   0.75312   0.00000  Uiso   1.00
H683   H     0.44092   0.11965   0.79911   0.00000  Uiso   1.00
H684   H     0.55908   0.21370   0.70090   0.00000  Uiso   1.00
H685   H     0.40125   0.12467   0.96088   0.00000  Uiso   1.00
H686   H     0.44746   0.18106   0.61163   0.00000  Uiso   1.00
H687   H     0.55068   0.15666   0.88733   0.00000  Uiso   1.00
H688   H     0.63915   0.14199   0.60894   0.00000  Uiso   1.00
H689   H     0.36239   0.18077   0.89275   0.00000  Uiso   1.00
H690   H     0.33458   0.18644   0.97395   0.00000  Uiso   1.00
H691   H     0.33536   0.12778   0.52910   0.00000  Uiso   1.00
H692   H     0.52042   0.17567   0.58287   0.00000  Uiso   1.00
N693   N     0.45069   0.16668   0.74999   0.00000  Uiso   1.00
N694   N     0.54931   0.16666   0.75001   0.00000  Uiso   1.00
N695   N     0.54162   0.08843   0.83069   0.00000  Uiso   1.00
N696   N     0.45836   0.24511   0.66954   0.00000  Uiso   1.00
O697   O     0.37291   0.10655   0.75000   0.00000  Uiso   1.00
O698   O     0.62709   0.22678   0.75000   0.00000  Uiso   1.00
O699   O     0.62706   0.10654   0.75000   0.00000  Uiso   1.00
O700   O     0.37294   0.22679   0.74999   0.00000  Uiso   1.00
O701   O     0.35186   0.16668   0.81491   0.00000  Uiso   1.00
O702   O     0.64814   0.16666   0.68508   0.00000  Uiso   1.00
O703   O     0.60600   0.16667   0.81492   0.00000  Uiso   1.00
O704   O     0.39400   0.16667   0.68508   0.00000  Uiso   1.00
C705   C     0.99990   0.08739   0.75005   0.00000  Uiso   1.00
C706   C     0.70848   0.02150   0.75171   0.00000  Uiso   1.00
C707   C     0.66678   0.29058   0.74994   0.00000  Uiso   1.00
C708   C     0.99988   0.04276   0.75005   0.00000  Uiso   1.00
C709   C     0.84937   0.14034   0.77743   0.00000  Uiso   1.00
C710   C     0.81730   0.19301   0.72259   0.00000  Uiso   1.00
C711   C     0.79994   0.14052   0.77733   0.00000  Uiso   1.00
C712   C     0.86673   0.19282   0.72267   0.00000  Uiso   1.00
C713   C     0.97269   0.16682   0.83599   0.00000  Uiso   1.00
C714   C     0.69397   0.16606   0.66404   0.00000  Uiso   1.00
C715   C     0.95765   0.16754   0.88503   0.00000  Uiso   1.00
C716   C     0.66677   0.24594   0.74995   0.00000  Uiso   1.00
C717   C     0.70921   0.16171   0.61532   0.00000  Uiso   1.00
C718   C     0.97515   0.17874   0.95577   0.00000  Uiso   1.00
C719   C     0.69397   0.13929   0.54654   0.00000  Uiso   1.00
C720   C     0.99102   0.17566   0.90946   0.00000  Uiso   1.00
C721   C     0.67703   0.14760   0.59195   0.00000  Uiso   1.00
C722   C     0.90870   0.16128   0.90742   0.00000  Uiso   1.00
C723   C     0.75800   0.16832   0.59275   0.00000  Uiso   1.00
C724   C     0.89198   0.16268   0.95426   0.00000  Uiso   1.00
C725   C     0.77644   0.15878   0.54734   0.00000  Uiso   1.00
C726   C     0.92598   0.17269   0.97826   0.00000  Uiso   1.00
C727   C     0.86202   0.17238   0.54718   0.00000  Uiso   1.00
C728   C     0.74325   0.14479   0.52409   0.00000  Uiso   1.00
C729   C     0.84233   0.15577   0.97765   0.00000  Uiso   1.00
C730   C     0.82671   0.16270   0.52454   0.00000  Uiso   1.00
C731   C     0.86375   0.11166   0.80689   0.00000  Uiso   1.00
C732   C     0.80290   0.22179   0.69324   0.00000  Uiso   1.00
C733   C     0.80799   0.14143   0.95590   0.00000  Uiso   1.00
C734   C     0.91062   0.17699   0.52440   0.00000  Uiso   1.00
C735   C     0.75954   0.13593   0.97883   0.00000  Uiso   1.00
C736   C     0.95808   0.02108   0.74833   0.00000  Uiso   1.00
C737   C     0.70859   0.31226   0.75166   0.00000  Uiso   1.00
C738   C     0.95819   0.31183   0.74828   0.00000  Uiso   1.00
Cu739  Cu    0.71355   0.16667   0.75000   0.00000  Uiso   1.00
Cu740  Cu    0.95311   0.16666   0.75000   0.00000  Uiso   1.00
H741   H     0.93630   0.18454   0.54311   0.00000  Uiso   1.00
H742   H     0.81748   0.13284   0.92127   0.00000  Uiso   1.00
H743   H     0.92535   0.03691   0.74694   0.00000  Uiso   1.00
H744   H     0.74132   0.29643   0.75305   0.00000  Uiso   1.00
H745   H     0.92549   0.29566   0.74687   0.00000  Uiso   1.00
H746   H     0.74118   0.03768   0.75312   0.00000  Uiso   1.00
H747   H     0.77425   0.11965   0.79911   0.00000  Uiso   1.00
H748   H     0.89241   0.21370   0.70090   0.00000  Uiso   1.00
H749   H     0.73458   0.12467   0.96088   0.00000  Uiso   1.00
H750   H     0.78079   0.18106   0.61163   0.00000  Uiso   1.00
H751   H     0.88401   0.15666   0.88733   0.00000  Uiso   1.00
H752   H     0.97249   0.14199   0.60894   0.00000  Uiso   1.00
H753   H     0.69573   0.18077   0.89275   0.00000  Uiso   1.00
H754   H     0.66791   0.18644   0.97395   0.00000  Uiso   1.00
H755   H     0.66870   0.12778   0.52910   0.00000  Uiso   1.00
H756   H     0.85375   0.17567   0.58287   0.00000  Uiso   1.00
N757   N     0.78403   0.16668   0.74999   0.00000  Uiso   1.00
N758   N     0.88264   0.16666   0.75001   0.00000  Uiso   1.00
N759   N     0.87495   0.08843   0.83069   0.00000  Uiso   1.00
N760   N     0.79169   0.24511   0.66954   0.00000  Uiso   1.00
O761   O     0.70625   0.10655   0.75000   0.00000  Uiso   1.00
O762   O     0.96042   0.22678   0.75000   0.00000  Uiso   1.00
O763   O     0.96039   0.10654   0.75000   0.00000  Uiso   1.00
O764   O     0.70628   0.22679   0.74999   0.00000  Uiso   1.00
O765   O     0.68519   0.16668   0.81491   0.00000  Uiso   1.00
O766   O     0.98148   0.16666   0.68508   0.00000  Uiso   1.00
O767   O     0.93933   0.16667   0.81492   0.00000  Uiso   1.00
O768   O     0.72733   0.16667   0.68508   0.00000  Uiso   1.00
C769   C     0.33323   0.42072   0.75005   0.00000  Uiso   1.00
C770   C     0.04181   0.35484   0.75171   0.00000  Uiso   1.00
C771   C     0.00012   0.62391   0.74994   0.00000  Uiso   1.00
C772   C     0.33322   0.37609   0.75005   0.00000  Uiso   1.00
C773   C     0.18270   0.47367   0.77743   0.00000  Uiso   1.00
C774   C     0.15063   0.52634   0.72259   0.00000  Uiso   1.00
C775   C     0.13328   0.47385   0.77733   0.00000  Uiso   1.00
C776   C     0.20006   0.52615   0.72267   0.00000  Uiso   1.00
C777   C     0.30602   0.50015   0.83599   0.00000  Uiso   1.00
C778   C     0.02731   0.49940   0.66404   0.00000  Uiso   1.00
C779   C     0.29099   0.50088   0.88503   0.00000  Uiso   1.00
C780   C     0.00010   0.57928   0.74995   0.00000  Uiso   1.00
C781   C     0.04254   0.49504   0.61532   0.00000  Uiso   1.00
C782   C     0.30848   0.51207   0.95577   0.00000  Uiso   1.00
C783   C     0.02731   0.47262   0.54654   0.00000  Uiso   1.00
C784   C     0.32435   0.50899   0.90946   0.00000  Uiso   1.00
C785   C     0.01036   0.48093   0.59195   0.00000  Uiso   1.00
C786   C     0.24203   0.49461   0.90742   0.00000  Uiso   1.00
C787   C     0.09133   0.50166   0.59275   0.00000  Uiso   1.00
C788   C     0.22531   0.49601   0.95426   0.00000  Uiso   1.00
C789   C     0.10977   0.49212   0.54734   0.00000  Uiso   1.00
C790   C     0.25932   0.50603   0.97826   0.00000  Uiso   1.00
C791   C     0.19536   0.50572   0.54718   0.00000  Uiso   1.00
C792   C     0.07658   0.47812   0.52409   0.00000  Uiso   1.00
C793   C     0.17566   0.48910   0.97765   0.00000  Uiso   1.00
C794   C     0.16005   0.49603   0.52454   0.00000  Uiso   1.00
C795   C     0.19709   0.44499   0.80689   0.00000  Uiso   1.00
C796   C     0.13623   0.55512   0.69324   0.00000  Uiso   1.00
C797   C     0.14132   0.47476   0.95590   0.00000  Uiso   1.00
C798   C     0.24396   0.51033   0.52440   0.00000  Uiso   1.00
C799   C     0.09287   0.46926   0.97883   0.00000  Uiso   1.00
C800   C     0.29141   0.35441   0.74833   0.00000  Uiso   1.00
C801   C     0.04192   0.64559   0.75166   0.00000  Uiso   1.00
C802   C     0.29152   0.64516   0.74828   0.00000  Uiso   1.00
Cu803  Cu    0.04689   0.50001   0.75000   0.00000  Uiso   1.00
Cu804  Cu    0.28645   0.49999   0.75000   0.00000  Uiso   1.00
H805   H     0.26964   0.51788   0.54311   0.00000  Uiso   1.00
H806   H     0.15082   0.46617   0.92127   0.00000  Uiso   1.00
H807   H     0.25868   0.37024   0.74694   0.00000  Uiso   1.00
H808   H     0.07465   0.62976   0.75305   0.00000  Uiso   1.00
H809   H     0.25883   0.62899   0.74687   0.00000  Uiso   1.00
H810   H     0.07451   0.37101   0.75312   0.00000  Uiso   1.00
H811   H     0.10758   0.45298   0.79911   0.00000  Uiso   1.00
H812   H     0.22575   0.54703   0.70090   0.00000  Uiso   1.00
H813   H     0.06792   0.45800   0.96088   0.00000  Uiso   1.00
H814   H     0.11412   0.51440   0.61163   0.00000  Uiso   1.00
H815   H     0.21735   0.48999   0.88733   0.00000  Uiso   1.00
H816   H     0.30582   0.47533   0.60894   0.00000  Uiso   1.00
H817   H     0.02906   0.51410   0.89275   0.00000  Uiso   1.00
H818   H     0.00125   0.51977   0.97395   0.00000  Uiso   1.00
H819   H     0.00203   0.46112   0.52910   0.00000  Uiso   1.00
H820   H     0.18708   0.50901   0.58287   0.00000  Uiso   1.00
N821   N     0.11736   0.50001   0.74999   0.00000  Uiso   1.00
N822   N     0.21597   0.49999   0.75001   0.00000  Uiso   1.00
N823   N     0.20828   0.42177   0.83069   0.00000  Uiso   1.00
N824   N     0.12503   0.57845   0.66954   0.00000  Uiso   1.00
O825   O     0.03958   0.43989   0.75000   0.00000  Uiso   1.00
O826   O     0.29375   0.56011   0.75000   0.00000  Uiso   1.00
O827   O     0.29372   0.43988   0.75000   0.00000  Uiso   1.00
O828   O     0.03961   0.56012   0.74999   0.00000  Uiso   1.00
O829   O     0.01852   0.50001   0.81491   0.00000  Uiso   1.00
O830   O     0.31481   0.49999   0.68508   0.00000  Uiso   1.00
O831   O     0.27267   0.50000   0.81492   0.00000  Uiso   1.00
O832   O     0.06067   0.50000   0.68508   0.00000  Uiso   1.00
C833   C     0.66656   0.42072   0.75005   0.00000  Uiso   1.00
C834   C     0.37515   0.35484   0.75171   0.00000  Uiso   1.00
C835   C     0.33345   0.62391   0.74994   0.00000  Uiso   1.00
C836   C     0.66655   0.37609   0.75005   0.00000  Uiso   1.00
C837   C     0.51603   0.47367   0.77743   0.00000  Uiso   1.00
C838   C     0.48396   0.52634   0.72259   0.00000  Uiso   1.00
C839   C     0.46661   0.47385   0.77733   0.00000  Uiso   1.00
C840   C     0.53339   0.52615   0.72267   0.00000  Uiso   1.00
C841   C     0.63936   0.50015   0.83599   0.00000  Uiso   1.00
C842   C     0.36064   0.49940   0.66404   0.00000  Uiso   1.00
C843   C     0.62432   0.50088   0.88503   0.00000  Uiso   1.00
C844   C     0.33344   0.57928   0.74995   0.00000  Uiso   1.00
C845   C     0.37588   0.49504   0.61532   0.00000  Uiso   1.00
C846   C     0.64181   0.51207   0.95577   0.00000  Uiso   1.00
C847   C     0.36064   0.47262   0.54654   0.00000  Uiso   1.00
C848   C     0.65768   0.50899   0.90946   0.00000  Uiso   1.00
C849   C     0.34370   0.48093   0.59195   0.00000  Uiso   1.00
C850   C     0.57536   0.49461   0.90742   0.00000  Uiso   1.00
C851   C     0.42467   0.50166   0.59275   0.00000  Uiso   1.00
C852   C     0.55865   0.49601   0.95426   0.00000  Uiso   1.00
C853   C     0.44311   0.49212   0.54734   0.00000  Uiso   1.00
C854   C     0.59265   0.50603   0.97826   0.00000  Uiso   1.00
C855   C     0.52869   0.50572   0.54718   0.00000  Uiso   1.00
C856   C     0.40992   0.47812   0.52409   0.00000  Uiso   1.00
C857   C     0.50899   0.48910   0.97765   0.00000  Uiso   1.00
C858   C     0.49338   0.49603   0.52454   0.00000  Uiso   1.00
C859   C     0.53042   0.44499   0.80689   0.00000  Uiso   1.00
C860   C     0.46956   0.55512   0.69324   0.00000  Uiso   1.00
C861   C     0.47465   0.47476   0.95590   0.00000  Uiso   1.00
C862   C     0.57729   0.51033   0.52440   0.00000  Uiso   1.00
C863   C     0.42621   0.46926   0.97883   0.00000  Uiso   1.00
C864   C     0.62475   0.35441   0.74833   0.00000  Uiso   1.00
C865   C     0.37526   0.64559   0.75166   0.00000  Uiso   1.00
C866   C     0.62486   0.64516   0.74828   0.00000  Uiso   1.00
Cu867  Cu    0.38022   0.50001   0.75000   0.00000  Uiso   1.00
Cu868  Cu    0.61978   0.49999   0.75000   0.00000  Uiso   1.00
H869   H     0.60297   0.51788   0.54311   0.00000  Uiso   1.00
H870   H     0.48415   0.46617   0.92127   0.00000  Uiso   1.00
H871   H     0.59202   0.37024   0.74694   0.00000  Uiso   1.00
H872   H     0.40798   0.62976   0.75305   0.00000  Uiso   1.00
H873   H     0.59216   0.62899   0.74687   0.00000  Uiso   1.00
H874   H     0.40784   0.37101   0.75312   0.00000  Uiso   1.00
H875   H     0.44092   0.45298   0.79911   0.00000  Uiso   1.00
H876   H     0.55908   0.54703   0.70090   0.00000  Uiso   1.00
H877   H     0.40125   0.45800   0.96088   0.00000  Uiso   1.00
H878   H     0.44746   0.51440   0.61163   0.00000  Uiso   1.00
H879   H     0.55068   0.48999   0.88733   0.00000  Uiso   1.00
H880   H     0.63915   0.47533   0.60894   0.00000  Uiso   1.00
H881   H     0.36239   0.51410   0.89275   0.00000  Uiso   1.00
H882   H     0.33458   0.51977   0.97395   0.00000  Uiso   1.00
H883   H     0.33536   0.46112   0.52910   0.00000  Uiso   1.00
H884   H     0.52042   0.50901   0.58287   0.00000  Uiso   1.00
N885   N     0.45069   0.50001   0.74999   0.00000  Uiso   1.00
N886   N     0.54931   0.49999   0.75001   0.00000  Uiso   1.00
N887   N     0.54162   0.42177   0.83069   0.00000  Uiso   1.00
N888   N     0.45836   0.57845   0.66954   0.00000  Uiso   1.00
O889   O     0.37291   0.43989   0.75000   0.00000  Uiso   1.00
O890   O     0.62709   0.56011   0.75000   0.00000  Uiso   1.00
O891   O     0.62706   0.43988   0.75000   0.00000  Uiso   1.00
O892   O     0.37294   0.56012   0.74999   0.00000  Uiso   1.00
O893   O     0.35186   0.50001   0.81491   0.00000  Uiso   1.00
O894   O     0.64814   0.49999   0.68508   0.00000  Uiso   1.00
O895   O     0.60600   0.50000   0.81492   0.00000  Uiso   1.00
O896   O     0.39400   0.50000   0.68508   0.00000  Uiso   1.00
C897   C     0.99990   0.42072   0.75005   0.00000  Uiso   1.00
C898   C     0.70848   0.35484   0.75171   0.00000  Uiso   1.00
C899   C     0.66678   0.62391   0.74994   0.00000  Uiso   1.00
C900   C     0.99988   0.37609   0.75005   0.00000  Uiso   1.00
C901   C     0.84937   0.47367   0.77743   0.00000  Uiso   1.00
C902   C     0.81730   0.52634   0.72259   0.00000  Uiso   1.00
C903   C     0.79994   0.47385   0.77733   0.00000  Uiso   1.00
C904   C     0.86673   0.52615   0.72267   0.00000  Uiso   1.00
C905   C     0.97269   0.50015   0.83599   0.00000  Uiso   1.00
C906   C     0.69397   0.49940   0.66404   0.00000  Uiso   1.00
C907   C     0.95765   0.50088   0.88503   0.00000  Uiso   1.00
C908   C     0.66677   0.57928   0.74995   0.00000  Uiso   1.00
C909   C     0.70921   0.49504   0.61532   0.00000  Uiso   1.00
C910   C     0.97515   0.51207   0.95577   0.00000  Uiso   1.00
C911   C     0.69397   0.47262   0.54654   0.00000  Uiso   1.00
C912   C     0.99102   0.50899   0.90946   0.00000  Uiso   1.00
C913   C     0.67703   0.48093   0.59195   0.00000  Uiso   1.00
C914   C     0.90870   0.49461   0.90742   0.00000  Uiso   1.00
C915   C     0.75800   0.50166   0.59275   0.00000  Uiso   1.00
C916   C     0.89198   0.49601   0.95426   0.00000  Uiso   1.00
C917   C     0.77644   0.49212   0.54734   0.00000  Uiso   1.00
C918   C     0.92598   0.50603   0.97826   0.00000  Uiso   1.00
C919   C     0.86202   0.50572   0.54718   0.00000  Uiso   1.00
C920   C     0.74325   0.47812   0.52409   0.00000  Uiso   1.00
C921   C     0.84233   0.48910   0.97765   0.00000  Uiso   1.00
C922   C     0.82671   0.49603   0.52454   0.00000  Uiso   1.00
C923   C     0.86375   0.44499   0.80689   0.00000  Uiso   1.00
C924   C     0.80290   0.55512   0.69324   0.00000  Uiso   1.00
C925   C     0.80799   0.47476   0.95590   0.00000  Uiso   1.00
C926   C     0.91062   0.51033   0.52440   0.00000  Uiso   1.00
C927   C     0.75954   0.46926   0.97883   0.00000  Uiso   1.00
C928   C     0.95808   0.35441   0.74833   0.00000  Uiso   1.00
C929   C     0.70859   0.64559   0.75166   0.00000  Uiso   1.00
C930   C     0.95819   0.64516   0.74828   0.00000  Uiso   1.00
Cu931  Cu    0.71355   0.50001   0.75000   0.00000  Uiso   1.00
Cu932  Cu    0.95311   0.49999   0.75000   0.00000  Uiso   1.00
H933   H     0.93630   0.51788   0.54311   0.00000  Uiso   1.00
H934   H     0.81748   0.46617   0.92127   0.00000  Uiso   1.00
H935   H     0.92535   0.37024   0.74694   0.00000  Uiso   1.00
H936   H     0.74132   0.62976   0.75305   0.00000  Uiso   1.00
H937   H     0.92549   0.62899   0.74687   0.00000  Uiso   1.00
H938   H     0.74118   0.37101   0.75312   0.00000  Uiso   1.00
H939   H     0.77425   0.45298   0.79911   0.00000  Uiso   1.00
H940   H     0.89241   0.54703   0.70090   0.00000  Uiso   1.00
H941   H     0.73458   0.45800   0.96088   0.00000  Uiso   1.00
H942   H     0.78079   0.51440   0.61163   0.00000  Uiso   1.00
H943   H     0.88401   0.48999   0.88733   0.00000  Uiso   1.00
H944   H     0.97249   0.47533   0.60894   0.00000  Uiso   1.00
H945   H     0.69573   0.51410   0.89275   0.00000  Uiso   1.00
H946   H     0.66791   0.51977   0.97395   0.00000  Uiso   1.00
H947   H     0.66870   0.46112   0.52910   0.00000  Uiso   1.00
H948   H     0.85375   0.50901   0.58287   0.00000  Uiso   1.00
N949   N     0.78403   0.50001   0.74999   0.00000  Uiso   1.00
N950   N     0.88264   0.49999   0.75001   0.00000  Uiso   1.00
N951   N     0.87495   0.42177   0.83069   0.00000  Uiso   1.00
N952   N     0.79169   0.57845   0.66954   0.00000  Uiso   1.00
O953   O     0.70625   0.43989   0.75000   0.00000  Uiso   1.00
O954   O     0.96042   0.56011   0.75000   0.00000  Uiso   1.00
O955   O     0.96039   0.43988   0.75000   0.00000  Uiso   1.00
O956   O     0.70628   0.56012   0.74999   0.00000  Uiso   1.00
O957   O     0.68519   0.50001   0.81491   0.00000  Uiso   1.00
O958   O     0.98148   0.49999   0.68508   0.00000  Uiso   1.00
O959   O     0.93933   0.50000   0.81492   0.00000  Uiso   1.00
O960   O     0.72733   0.50000   0.68508   0.00000  Uiso   1.00
C961   C     0.33323   0.75406   0.75005   0.00000  Uiso   1.00
C962   C     0.04181   0.68817   0.75171   0.00000  Uiso   1.00
C963   C     0.00012   0.95725   0.74994   0.00000  Uiso   1.00
C964   C     0.33322   0.70942   0.75005   0.00000  Uiso   1.00
C965   C     0.18270   0.80701   0.77743   0.00000  Uiso   1.00
C966   C     0.15063   0.85968   0.72259   0.00000  Uiso   1.00
C967   C     0.13328   0.80718   0.77733   0.00000  Uiso   1.00
C968   C     0.20006   0.85948   0.72267   0.00000  Uiso   1.00
C969   C     0.30602   0.83349   0.83599   0.00000  Uiso   1.00
C970   C     0.02731   0.83273   0.66404   0.00000  Uiso   1.00
C971   C     0.29099   0.83421   0.88503   0.00000  Uiso   1.00
C972   C     0.00010   0.91261   0.74995   0.00000  Uiso   1.00
C973   C     0.04254   0.82838   0.61532   0.00000  Uiso   1.00
C974   C     0.30848   0.84541   0.95577   0.00000  Uiso   1.00
C975   C     0.02731   0.80596   0.54654   0.00000  Uiso   1.00
C976   C     0.32435   0.84232   0.90946   0.00000  Uiso   1.00
C977   C     0.01036   0.81426   0.59195   0.00000  Uiso   1.00
C978   C     0.24203   0.82794   0.90742   0.00000  Uiso   1.00
C979   C     0.09133   0.83499   0.59275   0.00000  Uiso   1.00
C980   C     0.22531   0.82935   0.95426   0.00000  Uiso   1.00
C981   C     0.10977   0.82545   0.54734   0.00000  Uiso   1.00
C982   C     0.25932   0.83936   0.97826   0.00000  Uiso   1.00
C983   C     0.19536   0.83905   0.54718   0.00000  Uiso   1.00
C984   C     0.07658   0.81146   0.52409   0.00000  Uiso   1.00
C985   C     0.17566   0.82243   0.97765   0.00000  Uiso   1.00
C986   C     0.16005   0.82937   0.52454   0.00000  Uiso   1.00
C987   C     0.19709   0.77832   0.80689   0.00000  Uiso   1.00
C988   C     0.13623   0.88846   0.69324   0.00000  Uiso   1.00
C989   C     0.14132   0.80810   0.95590   0.00000  Uiso   1.00
C990   C     0.24396   0.84366   0.52440   0.00000  Uiso   1.00
C991   C     0.09287   0.80260   0.97883   0.00000  Uiso   1.00
C992   C     0.29141   0.68774   0.74833   0.00000  Uiso   1.00
C993   C     0.04192   0.97893   0.75166   0.00000  Uiso   1.00
C994   C     0.29152   0.97850   0.74828   0.00000  Uiso   1.00
Cu995  Cu    0.04689   0.83334   0.75000   0.00000  Uiso   1.00
Cu996  Cu    0.28645   0.83333   0.75000   0.00000  Uiso   1.00
H997   H     0.26964   0.85121   0.54311   0.00000  Uiso   1.00
H998   H     0.15082   0.79950   0.92127   0.00000  Uiso   1.00
H999   H     0.25868   0.70357   0.74694   0.00000  Uiso   1.00
H1000  H     0.07465   0.96310   0.75305   0.00000  Uiso   1.00
H1001  H     0.25883   0.96233   0.74687   0.00000  Uiso   1.00
H1002  H     0.07451   0.70434   0.75312   0.00000  Uiso   1.00
H1003  H     0.10758   0.78631   0.79911   0.00000  Uiso   1.00
H1004  H     0.22575   0.88036   0.70090   0.00000  Uiso   1.00
H1005  H     0.06792   0.79133   0.96088   0.00000  Uiso   1.00
H1006  H     0.11412   0.84773   0.61163   0.00000  Uiso   1.00
H1007  H     0.21735   0.82333   0.88733   0.00000  Uiso   1.00
H1008  H     0.30582   0.80866   0.60894   0.00000  Uiso   1.00
H1009  H     0.02906   0.84744   0.89275   0.00000  Uiso   1.00
H1010  H     0.00125   0.85310   0.97395   0.00000  Uiso   1.00
H1011  H     0.00203   0.79445   0.52910   0.00000  Uiso   1.00
H1012  H     0.18708   0.84234   0.58287   0.00000  Uiso   1.00
N1013  N     0.11736   0.83334   0.74999   0.00000  Uiso   1.00
N1014  N     0.21597   0.83332   0.75001   0.00000  Uiso   1.00
N1015  N     0.20828   0.75510   0.83069   0.00000  Uiso   1.00
N1016  N     0.12503   0.91178   0.66954   0.00000  Uiso   1.00
O1017  O     0.03958   0.77322   0.75000   0.00000  Uiso   1.00
O1018  O     0.29375   0.89345   0.75000   0.00000  Uiso   1.00
O1019  O     0.29372   0.77321   0.75000   0.00000  Uiso   1.00
O1020  O     0.03961   0.89346   0.74999   0.00000  Uiso   1.00
O1021  O     0.01852   0.83334   0.81491   0.00000  Uiso   1.00
O1022  O     0.31481   0.83332   0.68508   0.00000  Uiso   1.00
O1023  O     0.27267   0.83333   0.81492   0.00000  Uiso   1.00
O1024  O     0.06067   0.83333   0.68508   0.00000  Uiso   1.00
C1025  C     0.66656   0.75406   0.75005   0.00000  Uiso   1.00
C1026  C     0.37515   0.68817   0.75171   0.00000  Uiso   1.00
C1027  C     0.33345   0.95725   0.74994   0.00000  Uiso   1.00
C1028  C     0.66655   0.70942   0.75005   0.00000  Uiso   1.00
C1029  C     0.51603   0.80701   0.77743   0.00000  Uiso   1.00
C1030  C     0.48396   0.85968   0.72259   0.00000  Uiso   1.00
C1031  C     0.46661   0.80718   0.77733   0.00000  Uiso   1.00
C1032  C     0.53339   0.85948   0.72267   0.00000  Uiso   1.00
C1033  C     0.63936   0.83349   0.83599   0.00000  Uiso   1.00
C1034  C     0.36064   0.83273   0.66404   0.00000  Uiso   1.00
C1035  C     0.62432   0.83421   0.88503   0.00000  Uiso   1.00
C1036  C     0.33344   0.91261   0.74995   0.00000  Uiso   1.00
C1037  C     0.37588   0.82838   0.61532   0.00000  Uiso   1.00
C1038  C     0.64181   0.84541   0.95577   0.00000  Uiso   1.00
C1039  C     0.36064   0.80596   0.54654   0.00000  Uiso   1.00
C1040  C     0.65768   0.84232   0.90946   0.00000  Uiso   1.00
C1041  C     0.34370   0.81426   0.59195   0.00000  Uiso   1.00
C1042  C     0.57536   0.82794   0.90742   0.00000  Uiso   1.00
C1043  C     0.42467   0.83499   0.59275   0.00000  Uiso   1.00
C1044  C     0.55865   0.82935   0.95426   0.00000  Uiso   1.00
C1045  C     0.44311   0.82545   0.54734   0.00000  Uiso   1.00
C1046  C     0.59265   0.83936   0.97826   0.00000  Uiso   1.00
C1047  C     0.52869   0.83905   0.54718   0.00000  Uiso   1.00
C1048  C     0.40992   0.81146   0.52409   0.00000  Uiso   1.00
C1049  C     0.50899   0.82243   0.97765   0.00000  Uiso   1.00
C1050  C     0.49338   0.82937   0.52454   0.00000  Uiso   1.00
C1051  C     0.53042   0.77832   0.80689   0.00000  Uiso   1.00
C1052  C     0.46956   0.88846   0.69324   0.00000  Uiso   1.00
C1053  C     0.47465   0.80810   0.95590   0.00000  Uiso   1.00
C1054  C     0.57729   0.84366   0.52440   0.00000  Uiso   1.00
C1055  C     0.42621   0.80260   0.97883   0.00000  Uiso   1.00
C1056  C     0.62475   0.68774   0.74833   0.00000  Uiso   1.00
C1057  C     0.37526   0.97893   0.75166   0.00000  Uiso   1.00
C1058  C     0.62486   0.97850   0.74828   0.00000  Uiso   1.00
Cu1059 Cu    0.38022   0.83334   0.75000   0.00000  Uiso   1.00
Cu1060 Cu    0.61978   0.83333   0.75000   0.00000  Uiso   1.00
H1061  H     0.60297   0.85121   0.54311   0.00000  Uiso   1.00
H1062  H     0.48415   0.79950   0.92127   0.00000  Uiso   1.00
H1063  H     0.59202   0.70357   0.74694   0.00000  Uiso   1.00
H1064  H     0.40798   0.96310   0.75305   0.00000  Uiso   1.00
H1065  H     0.59216   0.96233   0.74687   0.00000  Uiso   1.00
H1066  H     0.40784   0.70434   0.75312   0.00000  Uiso   1.00
H1067  H     0.44092   0.78631   0.79911   0.00000  Uiso   1.00
H1068  H     0.55908   0.88036   0.70090   0.00000  Uiso   1.00
H1069  H     0.40125   0.79133   0.96088   0.00000  Uiso   1.00
H1070  H     0.44746   0.84773   0.61163   0.00000  Uiso   1.00
H1071  H     0.55068   0.82333   0.88733   0.00000  Uiso   1.00
H1072  H     0.63915   0.80866   0.60894   0.00000  Uiso   1.00
H1073  H     0.36239   0.84744   0.89275   0.00000  Uiso   1.00
H1074  H     0.33458   0.85310   0.97395   0.00000  Uiso   1.00
H1075  H     0.33536   0.79445   0.52910   0.00000  Uiso   1.00
H1076  H     0.52042   0.84234   0.58287   0.00000  Uiso   1.00
N1077  N     0.45069   0.83334   0.74999   0.00000  Uiso   1.00
N1078  N     0.54931   0.83332   0.75001   0.00000  Uiso   1.00
N1079  N     0.54162   0.75510   0.83069   0.00000  Uiso   1.00
N1080  N     0.45836   0.91178   0.66954   0.00000  Uiso   1.00
O1081  O     0.37291   0.77322   0.75000   0.00000  Uiso   1.00
O1082  O     0.62709   0.89345   0.75000   0.00000  Uiso   1.00
O1083  O     0.62706   0.77321   0.75000   0.00000  Uiso   1.00
O1084  O     0.37294   0.89346   0.74999   0.00000  Uiso   1.00
O1085  O     0.35186   0.83334   0.81491   0.00000  Uiso   1.00
O1086  O     0.64814   0.83332   0.68508   0.00000  Uiso   1.00
O1087  O     0.60600   0.83333   0.81492   0.00000  Uiso   1.00
O1088  O     0.39400   0.83333   0.68508   0.00000  Uiso   1.00
C1089  C     0.99990   0.75406   0.75005   0.00000  Uiso   1.00
C1090  C     0.70848   0.68817   0.75171   0.00000  Uiso   1.00
C1091  C     0.66678   0.95725   0.74994   0.00000  Uiso   1.00
C1092  C     0.99988   0.70942   0.75005   0.00000  Uiso   1.00
C1093  C     0.84937   0.80701   0.77743   0.00000  Uiso   1.00
C1094  C     0.81730   0.85968   0.72259   0.00000  Uiso   1.00
C1095  C     0.79994   0.80718   0.77733   0.00000  Uiso   1.00
C1096  C     0.86673   0.85948   0.72267   0.00000  Uiso   1.00
C1097  C     0.97269   0.83349   0.83599   0.00000  Uiso   1.00
C1098  C     0.69397   0.83273   0.66404   0.00000  Uiso   1.00
C1099  C     0.95765   0.83421   0.88503   0.00000  Uiso   1.00
C1100  C     0.66677   0.91261   0.74995   0.00000  Uiso   1.00
C1101  C     0.70921   0.82838   0.61532   0.00000  Uiso   1.00
C1102  C     0.97515   0.84541   0.95577   0.00000  Uiso   1.00
C1103  C     0.69397   0.80596   0.54654   0.00000  Uiso   1.00
C1104  C     0.99102   0.84232   0.90946   0.00000  Uiso   1.00
C1105  C     0.67703   0.81426   0.59195   0.00000  Uiso   1.00
C1106  C     0.90870   0.82794   0.90742   0.00000  Uiso   1.00
C1107  C     0.75800   0.83499   0.59275   0.00000  Uiso   1.00
C1108  C     0.89198   0.82935   0.95426   0.00000  Uiso   1.00
C1109  C     0.77644   0.82545   0.54734   0.00000  Uiso   1.00
C1110  C     0.92598   0.83936   0.97826   0.00000  Uiso   1.00
C1111  C     0.86202   0.83905   0.54718   0.00000  Uiso   1.00
C1112  C     0.74325   0.81146   0.52409   0.00000  Uiso   1.00
C1113  C     0.84233   0.82243   0.97765   0.00000  Uiso   1.00
C1114  C     0.82671   0.82937   0.52454   0.00000  Uiso   1.00
C1115  C     0.86375   0.77832   0.80689   0.00000  Uiso   1.00
C1116  C     0.80290   0.88846   0.69324   0.00000  Uiso   1.00
C1117  C     0.80799   0.80810   0.95590   0.00000  Uiso   1.00
C1118  C     0.91062   0.84366   0.52440   0.00000  Uiso   1.00
C1119  C     0.75954   0.80260   0.97883   0.00000  Uiso   1.00
C1120  C     0.95808   0.68774   0.74833   0.00000  Uiso   1.00
C1121  C     0.70859   0.97893   0.75166   0.00000  Uiso   1.00
C1122  C     0.95819   0.97850   0.74828   0.00000  Uiso   1.00
Cu1123 Cu    0.71355   0.83334   0.75000   0.00000  Uiso   1.00
Cu1124 Cu    0.95311   0.83333   0.75000   0.00000  Uiso   1.00
H1125  H     0.93630   0.85121   0.54311   0.00000  Uiso   1.00
H1126  H     0.81748   0.79950   0.92127   0.00000  Uiso   1.00
H1127  H     0.92535   0.70357   0.74694   0.00000  Uiso   1.00
H1128  H     0.74132   0.96310   0.75305   0.00000  Uiso   1.00
H1129  H     0.92549   0.96233   0.74687   0.00000  Uiso   1.00
H1130  H     0.74118   0.70434   0.75312   0.00000  Uiso   1.00
H1131  H     0.77425   0.78631   0.79911   0.00000  Uiso   1.00
H1132  H     0.89241   0.88036   0.70090   0.00000  Uiso   1.00
H1133  H     0.73458   0.79133   0.96088   0.00000  Uiso   1.00
H1134  H     0.78079   0.84773   0.61163   0.00000  Uiso   1.00
H1135  H     0.88401   0.82333   0.88733   0.00000  Uiso   1.00
H1136  H     0.97249   0.80866   0.60894   0.00000  Uiso   1.00
H1137  H     0.69573   0.84744   0.89275   0.00000  Uiso   1.00
H1138  H     0.66791   0.85310   0.97395   0.00000  Uiso   1.00
H1139  H     0.66870   0.79445   0.52910   0.00000  Uiso   1.00
H1140  H     0.85375   0.84234   0.58287   0.00000  Uiso   1.00
N1141  N     0.78403   0.83334   0.74999   0.00000  Uiso   1.00
N1142  N     0.88264   0.83332   0.75001   0.00000  Uiso   1.00
N1143  N     0.87495   0.75510   0.83069   0.00000  Uiso   1.00
N1144  N     0.79169   0.91178   0.66954   0.00000  Uiso   1.00
O1145  O     0.70625   0.77322   0.75000   0.00000  Uiso   1.00
O1146  O     0.96042   0.89345   0.75000   0.00000  Uiso   1.00
O1147  O     0.96039   0.77321   0.75000   0.00000  Uiso   1.00
O1148  O     0.70628   0.89346   0.74999   0.00000  Uiso   1.00
O1149  O     0.68519   0.83334   0.81491   0.00000  Uiso   1.00
O1150  O     0.98148   0.83332   0.68508   0.00000  Uiso   1.00
O1151  O     0.93933   0.83333   0.81492   0.00000  Uiso   1.00
O1152  O     0.72733   0.83333   0.68508   0.00000  Uiso   1.00
loop_
_geom_bond_atom_site_label_1
_geom_bond_atom_site_label_2
_geom_bond_distance
_geom_bond_site_symmetry_2
_ccdc_geom_bond_type
C1     O59     1.295   .     A
C1     C4      1.450   .     S
C1     O121    1.293   .     S
C2     H42     1.083   .     S
C2     C132    1.402   1_455 S
C2     C417    1.383   1_545 S
C3     C33     1.400   .     A
C3     C12     1.450   .     S
C3     C162    1.402   1_455 S
C4     C32     1.400   .     A
C4     C66     1.402   .     S
C5     C27     1.438   .     S
C5     N54     1.378   .     A
C5     C7      1.417   .     A
C6     C28     1.438   .     S
C6     N53     1.378   .     A
C6     C8      1.417   .     A
C7     N53     1.361   .     A
C7     H43     1.083   .     S
C8     N54     1.361   .     A
C8     H44     1.083   .     S
C9     C11     1.467   .     S
C9     O63     1.298   .     A
C9     O125    1.298   .     S
C10    O64     1.297   .     A
C10    C13     1.466   .     S
C10    O190    1.298   1_455 S
C11    C18     1.398   .     A
C11    C16     1.399   .     A
C12    O60     1.295   .     A
C12    O186    1.293   1_455 S
C13    C17     1.399   .     A
C13    C19     1.397   .     A
C14    C22     1.403   .     A
C14    C16     1.391   .     A
C14    H114    1.083   .     S
C15    C17     1.392   .     A
C15    H51     1.083   .     S
C15    C24     1.404   .     A
C16    H113    1.083   .     S
C17    H176    1.083   1_455 S
C18    H47     1.074   .     S
C18    C20     1.405   .     A
C19    H46     1.074   .     S
C19    C21     1.404   .     A
C20    C22     1.418   .     A
C20    C25     1.426   .     A
C21    C26     1.426   .     A
C21    C24     1.418   .     A
C22    C606    1.390   .     S
C23    H52     1.076   .     S
C23    C30     1.386   .     A
C23    C26     1.417   .     A
C24    C607    1.390   1_554 S
C25    C29     1.417   .     A
C25    C602    1.424   .     S
C26    C601    1.424   1_554 S
C27    N55     1.158   .     T
C28    N56     1.158   .     T
C29    H38     1.077   .     S
C29    C31     1.387   .     A
C30    H37     1.084   .     S
C30    C598    1.390   1_554 S
C31    H45     1.084   .     S
C31    C600    1.390   .     S
C32    H39     1.083   .     S
C32    C418    1.383   1_545 S
C33    H40     1.083   .     S
C33    C194    1.383   .     S
C34    H41     1.083   .     S
C34    C67     1.402   .     S
C34    C224    1.383   .     S
Cu35   O64     1.948   .     S
Cu35   N53     2.020   .     S
Cu35   O57     1.963   .     S
Cu35   O61     1.959   .     S
Cu35   O60     1.966   .     S
Cu35   Cu164   2.687   1_455 S
Cu36   O63     1.948   .     S
Cu36   O58     1.963   .     S
Cu36   O59     1.966   .     S
Cu36   N54     2.020   .     S
Cu36   O62     1.959   .     S
Cu36   Cu99    2.687   .     S
H48    C81     1.083   .     S
H49    C144    1.083   1_455 S
H50    C142    1.083   1_455 S
O57    C129    1.293   1_455 S
O58    C76     1.293   .     S
O61    C137    1.298   1_455 S
O62    C74     1.298   .     S
C65    O123    1.295   .     A
C65    C68     1.450   .     S
C65    O185    1.293   .     S
C66    H106    1.083   .     S
C66    C481    1.383   1_545 S
C67    C97     1.400   .     A
C67    C76     1.450   .     S
C68    C96     1.400   .     A
C68    C130    1.402   .     S
C69    C91     1.438   .     S
C69    N118    1.378   .     A
C69    C71     1.417   .     A
C70    C92     1.438   .     S
C70    N117    1.378   .     A
C70    C72     1.417   .     A
C71    N117    1.361   .     A
C71    H107    1.083   .     S
C72    N118    1.361   .     A
C72    H108    1.083   .     S
C73    C75     1.467   .     S
C73    O127    1.298   .     A
C73    O189    1.298   .     S
C74    O128    1.297   .     A
C74    C77     1.466   .     S
C75    C82     1.398   .     A
C75    C80     1.399   .     A
C76    O124    1.295   .     A
C77    C81     1.399   .     A
C77    C83     1.397   .     A
C78    C86     1.403   .     A
C78    C80     1.391   .     A
C78    H178    1.083   .     S
C79    C81     1.392   .     A
C79    H115    1.083   .     S
C79    C88     1.404   .     A
C80    H177    1.083   .     S
C82    H111    1.074   .     S
C82    C84     1.405   .     A
C83    H110    1.074   .     S
C83    C85     1.404   .     A
C84    C86     1.418   .     A
C84    C89     1.426   .     A
C85    C90     1.426   .     A
C85    C88     1.418   .     A
C86    C670    1.390   .     S
C87    H116    1.076   .     S
C87    C94     1.386   .     A
C87    C90     1.417   .     A
C88    C671    1.390   1_554 S
C89    C93     1.417   .     A
C89    C666    1.424   .     S
C90    C665    1.424   1_554 S
C91    N119    1.158   .     T
C92    N120    1.158   .     T
C93    H102    1.077   .     S
C93    C95     1.387   .     A
C94    H101    1.084   .     S
C94    C662    1.390   1_554 S
C95    H109    1.084   .     S
C95    C664    1.390   .     S
C96    H103    1.083   .     S
C96    C482    1.383   1_545 S
C97    H104    1.083   .     S
C97    C258    1.383   .     S
C98    H105    1.083   .     S
C98    C131    1.402   .     S
C98    C288    1.383   .     S
Cu99   O128    1.948   .     S
Cu99   N117    2.020   .     S
Cu99   O121    1.963   .     S
Cu99   O125    1.959   .     S
Cu99   O124    1.966   .     S
Cu100  O127    1.948   .     S
Cu100  O122    1.963   .     S
Cu100  O123    1.966   .     S
Cu100  N118    2.020   .     S
Cu100  O126    1.959   .     S
Cu100  Cu163   2.687   .     S
H112   C145    1.083   .     S
O122   C140    1.293   .     S
O126   C138    1.298   .     S
C129   O187    1.295   .     A
C129   C132    1.450   .     S
C129   O57     1.293   1_655 S
C130   H170    1.083   .     S
C130   C545    1.383   1_545 S
C131   C161    1.400   .     A
C131   C140    1.450   .     S
C132   C160    1.400   .     A
C132   C2      1.402   1_655 S
C133   C155    1.438   .     S
C133   N182    1.378   .     A
C133   C135    1.417   .     A
C134   C156    1.438   .     S
C134   N181    1.378   .     A
C134   C136    1.417   .     A
C135   N181    1.361   .     A
C135   H171    1.083   .     S
C136   N182    1.361   .     A
C136   H172    1.083   .     S
C137   C139    1.467   .     S
C137   O191    1.298   .     A
C137   O61     1.298   1_655 S
C138   O192    1.297   .     A
C138   C141    1.466   .     S
C139   C146    1.398   .     A
C139   C144    1.399   .     A
C140   O188    1.295   .     A
C141   C145    1.399   .     A
C141   C147    1.397   .     A
C142   C150    1.403   .     A
C142   C144    1.391   .     A
C142   H50     1.083   1_655 S
C143   C145    1.392   .     A
C143   H179    1.083   .     S
C143   C152    1.404   .     A
C144   H49     1.083   1_655 S
C146   H175    1.074   .     S
C146   C148    1.405   .     A
C147   H174    1.074   .     S
C147   C149    1.404   .     A
C148   C150    1.418   .     A
C148   C153    1.426   .     A
C149   C154    1.426   .     A
C149   C152    1.418   .     A
C150   C734    1.390   .     S
C151   H180    1.076   .     S
C151   C158    1.386   .     A
C151   C154    1.417   .     A
C152   C735    1.390   1_554 S
C153   C157    1.417   .     A
C153   C730    1.424   .     S
C154   C729    1.424   1_554 S
C155   N183    1.158   .     T
C156   N184    1.158   .     T
C157   H166    1.077   .     S
C157   C159    1.387   .     A
C158   H165    1.084   .     S
C158   C726    1.390   1_554 S
C159   H173    1.084   .     S
C159   C728    1.390   .     S
C160   H167    1.083   .     S
C160   C546    1.383   1_545 S
C161   H168    1.083   .     S
C161   C322    1.383   .     S
C162   H169    1.083   .     S
C162   C3      1.402   1_655 S
C162   C352    1.383   .     S
Cu163  O192    1.948   .     S
Cu163  N181    2.020   .     S
Cu163  O185    1.963   .     S
Cu163  O189    1.959   .     S
Cu163  O188    1.966   .     S
Cu164  O191    1.948   .     S
Cu164  O186    1.963   .     S
Cu164  O187    1.966   .     S
Cu164  N182    2.020   .     S
Cu164  O190    1.959   .     S
Cu164  Cu35    2.687   1_655 S
H176   C17     1.083   1_655 S
O186   C12     1.293   1_655 S
O190   C10     1.298   1_655 S
C193   O251    1.295   .     A
C193   C196    1.450   .     S
C193   O313    1.293   .     S
C194   H234    1.083   .     S
C194   C324    1.402   1_455 S
C195   C225    1.400   .     A
C195   C204    1.450   .     S
C195   C354    1.402   1_455 S
C196   C224    1.400   .     A
C196   C258    1.402   .     S
C197   C219    1.438   .     S
C197   N246    1.378   .     A
C197   C199    1.417   .     A
C198   C220    1.438   .     S
C198   N245    1.378   .     A
C198   C200    1.417   .     A
C199   N245    1.361   .     A
C199   H235    1.083   .     S
C200   N246    1.361   .     A
C200   H236    1.083   .     S
C201   C203    1.467   .     S
C201   O255    1.298   .     A
C201   O317    1.298   .     S
C202   O256    1.297   .     A
C202   C205    1.466   .     S
C202   O382    1.298   1_455 S
C203   C210    1.398   .     A
C203   C208    1.399   .     A
C204   O252    1.295   .     A
C204   O378    1.293   1_455 S
C205   C209    1.399   .     A
C205   C211    1.397   .     A
C206   C214    1.403   .     A
C206   C208    1.391   .     A
C206   H306    1.083   .     S
C207   C209    1.392   .     A
C207   H243    1.083   .     S
C207   C216    1.404   .     A
C208   H305    1.083   .     S
C209   H368    1.083   1_455 S
C210   H239    1.074   .     S
C210   C212    1.405   .     A
C211   H238    1.074   .     S
C211   C213    1.404   .     A
C212   C214    1.418   .     A
C212   C217    1.426   .     A
C213   C218    1.426   .     A
C213   C216    1.418   .     A
C214   C798    1.390   .     S
C215   H244    1.076   .     S
C215   C222    1.386   .     A
C215   C218    1.417   .     A
C216   C799    1.390   1_554 S
C217   C221    1.417   .     A
C217   C794    1.424   .     S
C218   C793    1.424   1_554 S
C219   N247    1.158   .     T
C220   N248    1.158   .     T
C221   H230    1.077   .     S
C221   C223    1.387   .     A
C222   H229    1.084   .     S
C222   C790    1.390   1_554 S
C223   H237    1.084   .     S
C223   C792    1.390   .     S
C224   H231    1.083   .     S
C225   H232    1.083   .     S
C225   C386    1.383   .     S
C226   H233    1.083   .     S
C226   C259    1.402   .     S
C226   C416    1.383   .     S
Cu227  O256    1.948   .     S
Cu227  N245    2.020   .     S
Cu227  O249    1.963   .     S
Cu227  O253    1.959   .     S
Cu227  O252    1.966   .     S
Cu227  Cu356   2.687   1_455 S
Cu228  O255    1.948   .     S
Cu228  O250    1.963   .     S
Cu228  O251    1.966   .     S
Cu228  N246    2.020   .     S
Cu228  O254    1.959   .     S
Cu228  Cu291   2.687   .     S
H240   C273    1.083   .     S
H241   C336    1.083   1_455 S
H242   C334    1.083   1_455 S
O249   C321    1.293   1_455 S
O250   C268    1.293   .     S
O253   C329    1.298   1_455 S
O254   C266    1.298   .     S
C257   O315    1.295   .     A
C257   C260    1.450   .     S
C257   O377    1.293   .     S
C258   H298    1.083   .     S
C259   C289    1.400   .     A
C259   C268    1.450   .     S
C260   C288    1.400   .     A
C260   C322    1.402   .     S
C261   C283    1.438   .     S
C261   N310    1.378   .     A
C261   C263    1.417   .     A
C262   C284    1.438   .     S
C262   N309    1.378   .     A
C262   C264    1.417   .     A
C263   N309    1.361   .     A
C263   H299    1.083   .     S
C264   N310    1.361   .     A
C264   H300    1.083   .     S
C265   C267    1.467   .     S
C265   O319    1.298   .     A
C265   O381    1.298   .     S
C266   O320    1.297   .     A
C266   C269    1.466   .     S
C267   C274    1.398   .     A
C267   C272    1.399   .     A
C268   O316    1.295   .     A
C269   C273    1.399   .     A
C269   C275    1.397   .     A
C270   C278    1.403   .     A
C270   C272    1.391   .     A
C270   H370    1.083   .     S
C271   C273    1.392   .     A
C271   H307    1.083   .     S
C271   C280    1.404   .     A
C272   H369    1.083   .     S
C274   H303    1.074   .     S
C274   C276    1.405   .     A
C275   H302    1.074   .     S
C275   C277    1.404   .     A
C276   C278    1.418   .     A
C276   C281    1.426   .     A
C277   C282    1.426   .     A
C277   C280    1.418   .     A
C278   C862    1.390   .     S
C279   H308    1.076   .     S
C279   C286    1.386   .     A
C279   C282    1.417   .     A
C280   C863    1.390   1_554 S
C281   C285    1.417   .     A
C281   C858    1.424   .     S
C282   C857    1.424   1_554 S
C283   N311    1.158   .     T
C284   N312    1.158   .     T
C285   H294    1.077   .     S
C285   C287    1.387   .     A
C286   H293    1.084   .     S
C286   C854    1.390   1_554 S
C287   H301    1.084   .     S
C287   C856    1.390   .     S
C288   H295    1.083   .     S
C289   H296    1.083   .     S
C289   C450    1.383   .     S
C290   H297    1.083   .     S
C290   C323    1.402   .     S
C290   C480    1.383   .     S
Cu291  O320    1.948   .     S
Cu291  N309    2.020   .     S
Cu291  O313    1.963   .     S
Cu291  O317    1.959   .     S
Cu291  O316    1.966   .     S
Cu292  O319    1.948   .     S
Cu292  O314    1.963   .     S
Cu292  O315    1.966   .     S
Cu292  N310    2.020   .     S
Cu292  O318    1.959   .     S
Cu292  Cu355   2.687   .     S
H304   C337    1.083   .     S
O314   C332    1.293   .     S
O318   C330    1.298   .     S
C321   O379    1.295   .     A
C321   C324    1.450   .     S
C321   O249    1.293   1_655 S
C322   H362    1.083   .     S
C323   C353    1.400   .     A
C323   C332    1.450   .     S
C324   C352    1.400   .     A
C324   C194    1.402   1_655 S
C325   C347    1.438   .     S
C325   N374    1.378   .     A
C325   C327    1.417   .     A
C326   C348    1.438   .     S
C326   N373    1.378   .     A
C326   C328    1.417   .     A
C327   N373    1.361   .     A
C327   H363    1.083   .     S
C328   N374    1.361   .     A
C328   H364    1.083   .     S
C329   C331    1.467   .     S
C329   O383    1.298   .     A
C329   O253    1.298   1_655 S
C330   O384    1.297   .     A
C330   C333    1.466   .     S
C331   C338    1.398   .     A
C331   C336    1.399   .     A
C332   O380    1.295   .     A
C333   C337    1.399   .     A
C333   C339    1.397   .     A
C334   C342    1.403   .     A
C334   C336    1.391   .     A
C334   H242    1.083   1_655 S
C335   C337    1.392   .     A
C335   H371    1.083   .     S
C335   C344    1.404   .     A
C336   H241    1.083   1_655 S
C338   H367    1.074   .     S
C338   C340    1.405   .     A
C339   H366    1.074   .     S
C339   C341    1.404   .     A
C340   C342    1.418   .     A
C340   C345    1.426   .     A
C341   C346    1.426   .     A
C341   C344    1.418   .     A
C342   C926    1.390   .     S
C343   H372    1.076   .     S
C343   C350    1.386   .     A
C343   C346    1.417   .     A
C344   C927    1.390   1_554 S
C345   C349    1.417   .     A
C345   C922    1.424   .     S
C346   C921    1.424   1_554 S
C347   N375    1.158   .     T
C348   N376    1.158   .     T
C349   H358    1.077   .     S
C349   C351    1.387   .     A
C350   H357    1.084   .     S
C350   C918    1.390   1_554 S
C351   H365    1.084   .     S
C351   C920    1.390   .     S
C352   H359    1.083   .     S
C353   H360    1.083   .     S
C353   C514    1.383   .     S
C354   H361    1.083   .     S
C354   C195    1.402   1_655 S
C354   C544    1.383   .     S
Cu355  O384    1.948   .     S
Cu355  N373    2.020   .     S
Cu355  O377    1.963   .     S
Cu355  O381    1.959   .     S
Cu355  O380    1.966   .     S
Cu356  O383    1.948   .     S
Cu356  O378    1.963   .     S
Cu356  O379    1.966   .     S
Cu356  N374    2.020   .     S
Cu356  O382    1.959   .     S
Cu356  Cu227   2.687   1_655 S
H368   C209    1.083   1_655 S
O378   C204    1.293   1_655 S
O382   C202    1.298   1_655 S
C385   O443    1.295   .     A
C385   C388    1.450   .     S
C385   O505    1.293   .     S
C386   H426    1.083   .     S
C386   C516    1.402   1_455 S
C387   C417    1.400   .     A
C387   C396    1.450   .     S
C387   C546    1.402   1_455 S
C388   C416    1.400   .     A
C388   C450    1.402   .     S
C389   C411    1.438   .     S
C389   N438    1.378   .     A
C389   C391    1.417   .     A
C390   C412    1.438   .     S
C390   N437    1.378   .     A
C390   C392    1.417   .     A
C391   N437    1.361   .     A
C391   H427    1.083   .     S
C392   N438    1.361   .     A
C392   H428    1.083   .     S
C393   C395    1.467   .     S
C393   O447    1.298   .     A
C393   O509    1.298   .     S
C394   O448    1.297   .     A
C394   C397    1.466   .     S
C394   O574    1.298   1_455 S
C395   C402    1.398   .     A
C395   C400    1.399   .     A
C396   O444    1.295   .     A
C396   O570    1.293   1_455 S
C397   C401    1.399   .     A
C397   C403    1.397   .     A
C398   C406    1.403   .     A
C398   C400    1.391   .     A
C398   H498    1.083   .     S
C399   C401    1.392   .     A
C399   H435    1.083   .     S
C399   C408    1.404   .     A
C400   H497    1.083   .     S
C401   H560    1.083   1_455 S
C402   H431    1.074   .     S
C402   C404    1.405   .     A
C403   H430    1.074   .     S
C403   C405    1.404   .     A
C404   C406    1.418   .     A
C404   C409    1.426   .     A
C405   C410    1.426   .     A
C405   C408    1.418   .     A
C406   C990    1.390   .     S
C407   H436    1.076   .     S
C407   C414    1.386   .     A
C407   C410    1.417   .     A
C408   C991    1.390   1_554 S
C409   C413    1.417   .     A
C409   C986    1.424   .     S
C410   C985    1.424   1_554 S
C411   N439    1.158   .     T
C412   N440    1.158   .     T
C413   H422    1.077   .     S
C413   C415    1.387   .     A
C414   H421    1.084   .     S
C414   C982    1.390   1_554 S
C415   H429    1.084   .     S
C415   C984    1.390   .     S
C416   H423    1.083   .     S
C417   H424    1.083   .     S
C417   C2      1.383   1_565 S
C418   H425    1.083   .     S
C418   C451    1.402   .     S
C418   C32     1.383   1_565 S
Cu419  O448    1.948   .     S
Cu419  N437    2.020   .     S
Cu419  O441    1.963   .     S
Cu419  O445    1.959   .     S
Cu419  O444    1.966   .     S
Cu419  Cu548   2.687   1_455 S
Cu420  O447    1.948   .     S
Cu420  O442    1.963   .     S
Cu420  O443    1.966   .     S
Cu420  N438    2.020   .     S
Cu420  O446    1.959   .     S
Cu420  Cu483   2.687   .     S
H432   C465    1.083   .     S
H433   C528    1.083   1_455 S
H434   C526    1.083   1_455 S
O441   C513    1.293   1_455 S
O442   C460    1.293   .     S
O445   C521    1.298   1_455 S
O446   C458    1.298   .     S
C449   O507    1.295   .     A
C449   C452    1.450   .     S
C449   O569    1.293   .     S
C450   H490    1.083   .     S
C451   C481    1.400   .     A
C451   C460    1.450   .     S
C452   C480    1.400   .     A
C452   C514    1.402   .     S
C453   C475    1.438   .     S
C453   N502    1.378   .     A
C453   C455    1.417   .     A
C454   C476    1.438   .     S
C454   N501    1.378   .     A
C454   C456    1.417   .     A
C455   N501    1.361   .     A
C455   H491    1.083   .     S
C456   N502    1.361   .     A
C456   H492    1.083   .     S
C457   C459    1.467   .     S
C457   O511    1.298   .     A
C457   O573    1.298   .     S
C458   O512    1.297   .     A
C458   C461    1.466   .     S
C459   C466    1.398   .     A
C459   C464    1.399   .     A
C460   O508    1.295   .     A
C461   C465    1.399   .     A
C461   C467    1.397   .     A
C462   C470    1.403   .     A
C462   C464    1.391   .     A
C462   H562    1.083   .     S
C463   C465    1.392   .     A
C463   H499    1.083   .     S
C463   C472    1.404   .     A
C464   H561    1.083   .     S
C466   H495    1.074   .     S
C466   C468    1.405   .     A
C467   H494    1.074   .     S
C467   C469    1.404   .     A
C468   C470    1.418   .     A
C468   C473    1.426   .     A
C469   C474    1.426   .     A
C469   C472    1.418   .     A
C470   C1054   1.390   .     S
C471   H500    1.076   .     S
C471   C478    1.386   .     A
C471   C474    1.417   .     A
C472   C1055   1.390   1_554 S
C473   C477    1.417   .     A
C473   C1050   1.424   .     S
C474   C1049   1.424   1_554 S
C475   N503    1.158   .     T
C476   N504    1.158   .     T
C477   H486    1.077   .     S
C477   C479    1.387   .     A
C478   H485    1.084   .     S
C478   C1046   1.390   1_554 S
C479   H493    1.084   .     S
C479   C1048   1.390   .     S
C480   H487    1.083   .     S
C481   H488    1.083   .     S
C481   C66     1.383   1_565 S
C482   H489    1.083   .     S
C482   C515    1.402   .     S
C482   C96     1.383   1_565 S
Cu483  O512    1.948   .     S
Cu483  N501    2.020   .     S
Cu483  O505    1.963   .     S
Cu483  O509    1.959   .     S
Cu483  O508    1.966   .     S
Cu484  O511    1.948   .     S
Cu484  O506    1.963   .     S
Cu484  O507    1.966   .     S
Cu484  N502    2.020   .     S
Cu484  O510    1.959   .     S
Cu484  Cu547   2.687   .     S
H496   C529    1.083   .     S
O506   C524    1.293   .     S
O510   C522    1.298   .     S
C513   O571    1.295   .     A
C513   C516    1.450   .     S
C513   O441    1.293   1_655 S
C514   H554    1.083   .     S
C515   C545    1.400   .     A
C515   C524    1.450   .     S
C516   C544    1.400   .     A
C516   C386    1.402   1_655 S
C517   C539    1.438   .     S
C517   N566    1.378   .     A
C517   C519    1.417   .     A
C518   C540    1.438   .     S
C518   N565    1.378   .     A
C518   C520    1.417   .     A
C519   N565    1.361   .     A
C519   H555    1.083   .     S
C520   N566    1.361   .     A
C520   H556    1.083   .     S
C521   C523    1.467   .     S
C521   O575    1.298   .     A
C521   O445    1.298   1_655 S
C522   O576    1.297   .     A
C522   C525    1.466   .     S
C523   C530    1.398   .     A
C523   C528    1.399   .     A
C524   O572    1.295   .     A
C525   C529    1.399   .     A
C525   C531    1.397   .     A
C526   C534    1.403   .     A
C526   C528    1.391   .     A
C526   H434    1.083   1_655 S
C527   C529    1.392   .     A
C527   H563    1.083   .     S
C527   C536    1.404   .     A
C528   H433    1.083   1_655 S
C530   H559    1.074   .     S
C530   C532    1.405   .     A
C531   H558    1.074   .     S
C531   C533    1.404   .     A
C532   C534    1.418   .     A
C532   C537    1.426   .     A
C533   C538    1.426   .     A
C533   C536    1.418   .     A
C534   C1118   1.390   .     S
C535   H564    1.076   .     S
C535   C542    1.386   .     A
C535   C538    1.417   .     A
C536   C1119   1.390   1_554 S
C537   C541    1.417   .     A
C537   C1114   1.424   .     S
C538   C1113   1.424   1_554 S
C539   N567    1.158   .     T
C540   N568    1.158   .     T
C541   H550    1.077   .     S
C541   C543    1.387   .     A
C542   H549    1.084   .     S
C542   C1110   1.390   1_554 S
C543   H557    1.084   .     S
C543   C1112   1.390   .     S
C544   H551    1.083   .     S
C545   H552    1.083   .     S
C545   C130    1.383   1_565 S
C546   H553    1.083   .     S
C546   C387    1.402   1_655 S
C546   C160    1.383   1_565 S
Cu547  O576    1.948   .     S
Cu547  N565    2.020   .     S
Cu547  O569    1.963   .     S
Cu547  O573    1.959   .     S
Cu547  O572    1.966   .     S
Cu548  O575    1.948   .     S
Cu548  O570    1.963   .     S
Cu548  O571    1.966   .     S
Cu548  N566    2.020   .     S
Cu548  O574    1.959   .     S
Cu548  Cu419   2.687   1_655 S
H560   C401    1.083   1_655 S
O570   C396    1.293   1_655 S
O574   C394    1.298   1_655 S
C577   O635    1.295   .     A
C577   C580    1.450   .     S
C577   O697    1.293   .     S
C578   H618    1.083   .     S
C578   C708    1.402   1_455 S
C578   C993    1.383   1_545 S
C579   C609    1.400   .     A
C579   C588    1.450   .     S
C579   C738    1.402   1_455 S
C580   C608    1.400   .     A
C580   C642    1.402   .     S
C581   C603    1.438   .     S
C581   N630    1.378   .     A
C581   C583    1.417   .     A
C582   C604    1.438   .     S
C582   N629    1.378   .     A
C582   C584    1.417   .     A
C583   N629    1.361   .     A
C583   H619    1.083   .     S
C584   N630    1.361   .     A
C584   H620    1.083   .     S
C585   C587    1.467   .     S
C585   O639    1.298   .     A
C585   O701    1.298   .     S
C586   O640    1.297   .     A
C586   C589    1.466   .     S
C586   O766    1.298   1_455 S
C587   C594    1.398   .     A
C587   C592    1.399   .     A
C588   O636    1.295   .     A
C588   O762    1.293   1_455 S
C589   C593    1.399   .     A
C589   C595    1.397   .     A
C590   C598    1.403   .     A
C590   C592    1.391   .     A
C590   H690    1.083   .     S
C591   C593    1.392   .     A
C591   H627    1.083   .     S
C591   C600    1.404   .     A
C592   H689    1.083   .     S
C593   H752    1.083   1_455 S
C594   H623    1.074   .     S
C594   C596    1.405   .     A
C595   H622    1.074   .     S
C595   C597    1.404   .     A
C596   C598    1.418   .     A
C596   C601    1.426   .     A
C597   C602    1.426   .     A
C597   C600    1.418   .     A
C598   C30     1.390   1_556 S
C599   H628    1.076   .     S
C599   C606    1.386   .     A
C599   C602    1.417   .     A
C601   C605    1.417   .     A
C601   C26     1.424   1_556 S
C603   N631    1.158   .     T
C604   N632    1.158   .     T
C605   H614    1.077   .     S
C605   C607    1.387   .     A
C606   H613    1.084   .     S
C607   H621    1.084   .     S
C607   C24     1.390   1_556 S
C608   H615    1.083   .     S
C608   C994    1.383   1_545 S
C609   H616    1.083   .     S
C609   C770    1.383   .     S
C610   H617    1.083   .     S
C610   C643    1.402   .     S
C610   C800    1.383   .     S
Cu611  O640    1.948   .     S
Cu611  N629    2.020   .     S
Cu611  O633    1.963   .     S
Cu611  O637    1.959   .     S
Cu611  O636    1.966   .     S
Cu611  Cu740   2.687   1_455 S
Cu612  O639    1.948   .     S
Cu612  O634    1.963   .     S
Cu612  O635    1.966   .     S
Cu612  N630    2.020   .     S
Cu612  O638    1.959   .     S
Cu612  Cu675   2.687   .     S
H624   C657    1.083   .     S
H625   C720    1.083   1_455 S
H626   C718    1.083   1_455 S
O633   C705    1.293   1_455 S
O634   C652    1.293   .     S
O637   C713    1.298   1_455 S
O638   C650    1.298   .     S
C641   O699    1.295   .     A
C641   C644    1.450   .     S
C641   O761    1.293   .     S
C642   H682    1.083   .     S
C642   C1057   1.383   1_545 S
C643   C673    1.400   .     A
C643   C652    1.450   .     S
C644   C672    1.400   .     A
C644   C706    1.402   .     S
C645   C667    1.438   .     S
C645   N694    1.378   .     A
C645   C647    1.417   .     A
C646   C668    1.438   .     S
C646   N693    1.378   .     A
C646   C648    1.417   .     A
C647   N693    1.361   .     A
C647   H683    1.083   .     S
C648   N694    1.361   .     A
C648   H684    1.083   .     S
C649   C651    1.467   .     S
C649   O703    1.298   .     A
C649   O765    1.298   .     S
C650   O704    1.297   .     A
C650   C653    1.466   .     S
C651   C658    1.398   .     A
C651   C656    1.399   .     A
C652   O700    1.295   .     A
C653   C657    1.399   .     A
C653   C659    1.397   .     A
C654   C662    1.403   .     A
C654   C656    1.391   .     A
C654   H754    1.083   .     S
C655   C657    1.392   .     A
C655   H691    1.083   .     S
C655   C664    1.404   .     A
C656   H753    1.083   .     S
C658   H687    1.074   .     S
C658   C660    1.405   .     A
C659   H686    1.074   .     S
C659   C661    1.404   .     A
C660   C662    1.418   .     A
C660   C665    1.426   .     A
C661   C666    1.426   .     A
C661   C664    1.418   .     A
C662   C94     1.390   1_556 S
C663   H692    1.076   .     S
C663   C670    1.386   .     A
C663   C666    1.417   .     A
C665   C669    1.417   .     A
C665   C90     1.424   1_556 S
C667   N695    1.158   .     T
C668   N696    1.158   .     T
C669   H678    1.077   .     S
C669   C671    1.387   .     A
C670   H677    1.084   .     S
C671   H685    1.084   .     S
C671   C88     1.390   1_556 S
C672   H679    1.083   .     S
C672   C1058   1.383   1_545 S
C673   H680    1.083   .     S
C673   C834    1.383   .     S
C674   H681    1.083   .     S
C674   C707    1.402   .     S
C674   C864    1.383   .     S
Cu675  O704    1.948   .     S
Cu675  N693    2.020   .     S
Cu675  O697    1.963   .     S
Cu675  O701    1.959   .     S
Cu675  O700    1.966   .     S
Cu676  O703    1.948   .     S
Cu676  O698    1.963   .     S
Cu676  O699    1.966   .     S
Cu676  N694    2.020   .     S
Cu676  O702    1.959   .     S
Cu676  Cu739   2.687   .     S
H688   C721    1.083   .     S
O698   C716    1.293   .     S
O702   C714    1.298   .     S
C705   O763    1.295   .     A
C705   C708    1.450   .     S
C705   O633    1.293   1_655 S
C706   H746    1.083   .     S
C706   C1121   1.383   1_545 S
C707   C737    1.400   .     A
C707   C716    1.450   .     S
C708   C736    1.400   .     A
C708   C578    1.402   1_655 S
C709   C731    1.438   .     S
C709   N758    1.378   .     A
C709   C711    1.417   .     A
C710   C732    1.438   .     S
C710   N757    1.378   .     A
C710   C712    1.417   .     A
C711   N757    1.361   .     A
C711   H747    1.083   .     S
C712   N758    1.361   .     A
C712   H748    1.083   .     S
C713   C715    1.467   .     S
C713   O767    1.298   .     A
C713   O637    1.298   1_655 S
C714   O768    1.297   .     A
C714   C717    1.466   .     S
C715   C722    1.398   .     A
C715   C720    1.399   .     A
C716   O764    1.295   .     A
C717   C721    1.399   .     A
C717   C723    1.397   .     A
C718   C726    1.403   .     A
C718   C720    1.391   .     A
C718   H626    1.083   1_655 S
C719   C721    1.392   .     A
C719   H755    1.083   .     S
C719   C728    1.404   .     A
C720   H625    1.083   1_655 S
C722   H751    1.074   .     S
C722   C724    1.405   .     A
C723   H750    1.074   .     S
C723   C725    1.404   .     A
C724   C726    1.418   .     A
C724   C729    1.426   .     A
C725   C730    1.426   .     A
C725   C728    1.418   .     A
C726   C158    1.390   1_556 S
C727   H756    1.076   .     S
C727   C734    1.386   .     A
C727   C730    1.417   .     A
C729   C733    1.417   .     A
C729   C154    1.424   1_556 S
C731   N759    1.158   .     T
C732   N760    1.158   .     T
C733   H742    1.077   .     S
C733   C735    1.387   .     A
C734   H741    1.084   .     S
C735   H749    1.084   .     S
C735   C152    1.390   1_556 S
C736   H743    1.083   .     S
C736   C1122   1.383   1_545 S
C737   H744    1.083   .     S
C737   C898    1.383   .     S
C738   H745    1.083   .     S
C738   C579    1.402   1_655 S
C738   C928    1.383   .     S
Cu739  O768    1.948   .     S
Cu739  N757    2.020   .     S
Cu739  O761    1.963   .     S
Cu739  O765    1.959   .     S
Cu739  O764    1.966   .     S
Cu740  O767    1.948   .     S
Cu740  O762    1.963   .     S
Cu740  O763    1.966   .     S
Cu740  N758    2.020   .     S
Cu740  O766    1.959   .     S
Cu740  Cu611   2.687   1_655 S
H752   C593    1.083   1_655 S
O762   C588    1.293   1_655 S
O766   C586    1.298   1_655 S
C769   O827    1.295   .     A
C769   C772    1.450   .     S
C769   O889    1.293   .     S
C770   H810    1.083   .     S
C770   C900    1.402   1_455 S
C771   C801    1.400   .     A
C771   C780    1.450   .     S
C771   C930    1.402   1_455 S
C772   C800    1.400   .     A
C772   C834    1.402   .     S
C773   C795    1.438   .     S
C773   N822    1.378   .     A
C773   C775    1.417   .     A
C774   C796    1.438   .     S
C774   N821    1.378   .     A
C774   C776    1.417   .     A
C775   N821    1.361   .     A
C775   H811    1.083   .     S
C776   N822    1.361   .     A
C776   H812    1.083   .     S
C777   C779    1.467   .     S
C777   O831    1.298   .     A
C777   O893    1.298   .     S
C778   O832    1.297   .     A
C778   C781    1.466   .     S
C778   O958    1.298   1_455 S
C779   C786    1.398   .     A
C779   C784    1.399   .     A
C780   O828    1.295   .     A
C780   O954    1.293   1_455 S
C781   C785    1.399   .     A
C781   C787    1.397   .     A
C782   C790    1.403   .     A
C782   C784    1.391   .     A
C782   H882    1.083   .     S
C783   C785    1.392   .     A
C783   H819    1.083   .     S
C783   C792    1.404   .     A
C784   H881    1.083   .     S
C785   H944    1.083   1_455 S
C786   H815    1.074   .     S
C786   C788    1.405   .     A
C787   H814    1.074   .     S
C787   C789    1.404   .     A
C788   C790    1.418   .     A
C788   C793    1.426   .     A
C789   C794    1.426   .     A
C789   C792    1.418   .     A
C790   C222    1.390   1_556 S
C791   H820    1.076   .     S
C791   C798    1.386   .     A
C791   C794    1.417   .     A
C793   C797    1.417   .     A
C793   C218    1.424   1_556 S
C795   N823    1.158   .     T
C796   N824    1.158   .     T
C797   H806    1.077   .     S
C797   C799    1.387   .     A
C798   H805    1.084   .     S
C799   H813    1.084   .     S
C799   C216    1.390   1_556 S
C800   H807    1.083   .     S
C801   H808    1.083   .     S
C801   C962    1.383   .     S
C802   H809    1.083   .     S
C802   C835    1.402   .     S
C802   C992    1.383   .     S
Cu803  O832    1.948   .     S
Cu803  N821    2.020   .     S
Cu803  O825    1.963   .     S
Cu803  O829    1.959   .     S
Cu803  O828    1.966   .     S
Cu803  Cu932   2.687   1_455 S
Cu804  O831    1.948   .     S
Cu804  O826    1.963   .     S
Cu804  O827    1.966   .     S
Cu804  N822    2.020   .     S
Cu804  O830    1.959   .     S
Cu804  Cu867   2.687   .     S
H816   C849    1.083   .     S
H817   C912    1.083   1_455 S
H818   C910    1.083   1_455 S
O825   C897    1.293   1_455 S
O826   C844    1.293   .     S
O829   C905    1.298   1_455 S
O830   C842    1.298   .     S
C833   O891    1.295   .     A
C833   C836    1.450   .     S
C833   O953    1.293   .     S
C834   H874    1.083   .     S
C835   C865    1.400   .     A
C835   C844    1.450   .     S
C836   C864    1.400   .     A
C836   C898    1.402   .     S
C837   C859    1.438   .     S
C837   N886    1.378   .     A
C837   C839    1.417   .     A
C838   C860    1.438   .     S
C838   N885    1.378   .     A
C838   C840    1.417   .     A
C839   N885    1.361   .     A
C839   H875    1.083   .     S
C840   N886    1.361   .     A
C840   H876    1.083   .     S
C841   C843    1.467   .     S
C841   O895    1.298   .     A
C841   O957    1.298   .     S
C842   O896    1.297   .     A
C842   C845    1.466   .     S
C843   C850    1.398   .     A
C843   C848    1.399   .     A
C844   O892    1.295   .     A
C845   C849    1.399   .     A
C845   C851    1.397   .     A
C846   C854    1.403   .     A
C846   C848    1.391   .     A
C846   H946    1.083   .     S
C847   C849    1.392   .     A
C847   H883    1.083   .     S
C847   C856    1.404   .     A
C848   H945    1.083   .     S
C850   H879    1.074   .     S
C850   C852    1.405   .     A
C851   H878    1.074   .     S
C851   C853    1.404   .     A
C852   C854    1.418   .     A
C852   C857    1.426   .     A
C853   C858    1.426   .     A
C853   C856    1.418   .     A
C854   C286    1.390   1_556 S
C855   H884    1.076   .     S
C855   C862    1.386   .     A
C855   C858    1.417   .     A
C857   C861    1.417   .     A
C857   C282    1.424   1_556 S
C859   N887    1.158   .     T
C860   N888    1.158   .     T
C861   H870    1.077   .     S
C861   C863    1.387   .     A
C862   H869    1.084   .     S
C863   H877    1.084   .     S
C863   C280    1.390   1_556 S
C864   H871    1.083   .     S
C865   H872    1.083   .     S
C865   C1026   1.383   .     S
C866   H873    1.083   .     S
C866   C899    1.402   .     S
C866   C1056   1.383   .     S
Cu867  O896    1.948   .     S
Cu867  N885    2.020   .     S
Cu867  O889    1.963   .     S
Cu867  O893    1.959   .     S
Cu867  O892    1.966   .     S
Cu868  O895    1.948   .     S
Cu868  O890    1.963   .     S
Cu868  O891    1.966   .     S
Cu868  N886    2.020   .     S
Cu868  O894    1.959   .     S
Cu868  Cu931   2.687   .     S
H880   C913    1.083   .     S
O890   C908    1.293   .     S
O894   C906    1.298   .     S
C897   O955    1.295   .     A
C897   C900    1.450   .     S
C897   O825    1.293   1_655 S
C898   H938    1.083   .     S
C899   C929    1.400   .     A
C899   C908    1.450   .     S
C900   C928    1.400   .     A
C900   C770    1.402   1_655 S
C901   C923    1.438   .     S
C901   N950    1.378   .     A
C901   C903    1.417   .     A
C902   C924    1.438   .     S
C902   N949    1.378   .     A
C902   C904    1.417   .     A
C903   N949    1.361   .     A
C903   H939    1.083   .     S
C904   N950    1.361   .     A
C904   H940    1.083   .     S
C905   C907    1.467   .     S
C905   O959    1.298   .     A
C905   O829    1.298   1_655 S
C906   O960    1.297   .     A
C906   C909    1.466   .     S
C907   C914    1.398   .     A
C907   C912    1.399   .     A
C908   O956    1.295   .     A
C909   C913    1.399   .     A
C909   C915    1.397   .     A
C910   C918    1.403   .     A
C910   C912    1.391   .     A
C910   H818    1.083   1_655 S
C911   C913    1.392   .     A
C911   H947    1.083   .     S
C911   C920    1.404   .     A
C912   H817    1.083   1_655 S
C914   H943    1.074   .     S
C914   C916    1.405   .     A
C915   H942    1.074   .     S
C915   C917    1.404   .     A
C916   C918    1.418   .     A
C916   C921    1.426   .     A
C917   C922    1.426   .     A
C917   C920    1.418   .     A
C918   C350    1.390   1_556 S
C919   H948    1.076   .     S
C919   C926    1.386   .     A
C919   C922    1.417   .     A
C921   C925    1.417   .     A
C921   C346    1.424   1_556 S
C923   N951    1.158   .     T
C924   N952    1.158   .     T
C925   H934    1.077   .     S
C925   C927    1.387   .     A
C926   H933    1.084   .     S
C927   H941    1.084   .     S
C927   C344    1.390   1_556 S
C928   H935    1.083   .     S
C929   H936    1.083   .     S
C929   C1090   1.383   .     S
C930   H937    1.083   .     S
C930   C771    1.402   1_655 S
C930   C1120   1.383   .     S
Cu931  O960    1.948   .     S
Cu931  N949    2.020   .     S
Cu931  O953    1.963   .     S
Cu931  O957    1.959   .     S
Cu931  O956    1.966   .     S
Cu932  O959    1.948   .     S
Cu932  O954    1.963   .     S
Cu932  O955    1.966   .     S
Cu932  N950    2.020   .     S
Cu932  O958    1.959   .     S
Cu932  Cu803   2.687   1_655 S
H944   C785    1.083   1_655 S
O954   C780    1.293   1_655 S
O958   C778    1.298   1_655 S
C961   O1019   1.295   .     A
C961   C964    1.450   .     S
C961   O1081   1.293   .     S
C962   H1002   1.083   .     S
C962   C1092   1.402   1_455 S
C963   C993    1.400   .     A
C963   C972    1.450   .     S
C963   C1122   1.402   1_455 S
C964   C992    1.400   .     A
C964   C1026   1.402   .     S
C965   C987    1.438   .     S
C965   N1014   1.378   .     A
C965   C967    1.417   .     A
C966   C988    1.438   .     S
C966   N1013   1.378   .     A
C966   C968    1.417   .     A
C967   N1013   1.361   .     A
C967   H1003   1.083   .     S
C968   N1014   1.361   .     A
C968   H1004   1.083   .     S
C969   C971    1.467   .     S
C969   O1023   1.298   .     A
C969   O1085   1.298   .     S
C970   O1024   1.297   .     A
C970   C973    1.466   .     S
C970   O1150   1.298   1_455 S
C971   C978    1.398   .     A
C971   C976    1.399   .     A
C972   O1020   1.295   .     A
C972   O1146   1.293   1_455 S
C973   C977    1.399   .     A
C973   C979    1.397   .     A
C974   C982    1.403   .     A
C974   C976    1.391   .     A
C974   H1074   1.083   .     S
C975   C977    1.392   .     A
C975   H1011   1.083   .     S
C975   C984    1.404   .     A
C976   H1073   1.083   .     S
C977   H1136   1.083   1_455 S
C978   H1007   1.074   .     S
C978   C980    1.405   .     A
C979   H1006   1.074   .     S
C979   C981    1.404   .     A
C980   C982    1.418   .     A
C980   C985    1.426   .     A
C981   C986    1.426   .     A
C981   C984    1.418   .     A
C982   C414    1.390   1_556 S
C983   H1012   1.076   .     S
C983   C990    1.386   .     A
C983   C986    1.417   .     A
C985   C989    1.417   .     A
C985   C410    1.424   1_556 S
C987   N1015   1.158   .     T
C988   N1016   1.158   .     T
C989   H998    1.077   .     S
C989   C991    1.387   .     A
C990   H997    1.084   .     S
C991   H1005   1.084   .     S
C991   C408    1.390   1_556 S
C992   H999    1.083   .     S
C993   H1000   1.083   .     S
C993   C578    1.383   1_565 S
C994   H1001   1.083   .     S
C994   C1027   1.402   .     S
C994   C608    1.383   1_565 S
Cu995  O1024   1.948   .     S
Cu995  N1013   2.020   .     S
Cu995  O1017   1.963   .     S
Cu995  O1021   1.959   .     S
Cu995  O1020   1.966   .     S
Cu995  Cu1124  2.687   1_455 S
Cu996  O1023   1.948   .     S
Cu996  O1018   1.963   .     S
Cu996  O1019   1.966   .     S
Cu996  N1014   2.020   .     S
Cu996  O1022   1.959   .     S
Cu996  Cu1059  2.687   .     S
H1008  C1041   1.083   .     S
H1009  C1104   1.083   1_455 S
H1010  C1102   1.083   1_455 S
O1017  C1089   1.293   1_455 S
O1018  C1036   1.293   .     S
O1021  C1097   1.298   1_455 S
O1022  C1034   1.298   .     S
C1025  O1083   1.295   .     A
C1025  C1028   1.450   .     S
C1025  O1145   1.293   .     S
C1026  H1066   1.083   .     S
C1027  C1057   1.400   .     A
C1027  C1036   1.450   .     S
C1028  C1056   1.400   .     A
C1028  C1090   1.402   .     S
C1029  C1051   1.438   .     S
C1029  N1078   1.378   .     A
C1029  C1031   1.417   .     A
C1030  C1052   1.438   .     S
C1030  N1077   1.378   .     A
C1030  C1032   1.417   .     A
C1031  N1077   1.361   .     A
C1031  H1067   1.083   .     S
C1032  N1078   1.361   .     A
C1032  H1068   1.083   .     S
C1033  C1035   1.467   .     S
C1033  O1087   1.298   .     A
C1033  O1149   1.298   .     S
C1034  O1088   1.297   .     A
C1034  C1037   1.466   .     S
C1035  C1042   1.398   .     A
C1035  C1040   1.399   .     A
C1036  O1084   1.295   .     A
C1037  C1041   1.399   .     A
C1037  C1043   1.397   .     A
C1038  C1046   1.403   .     A
C1038  C1040   1.391   .     A
C1038  H1138   1.083   .     S
C1039  C1041   1.392   .     A
C1039  H1075   1.083   .     S
C1039  C1048   1.404   .     A
C1040  H1137   1.083   .     S
C1042  H1071   1.074   .     S
C1042  C1044   1.405   .     A
C1043  H1070   1.074   .     S
C1043  C1045   1.404   .     A
C1044  C1046   1.418   .     A
C1044  C1049   1.426   .     A
C1045  C1050   1.426   .     A
C1045  C1048   1.418   .     A
C1046  C478    1.390   1_556 S
C1047  H1076   1.076   .     S
C1047  C1054   1.386   .     A
C1047  C1050   1.417   .     A
C1049  C1053   1.417   .     A
C1049  C474    1.424   1_556 S
C1051  N1079   1.158   .     T
C1052  N1080   1.158   .     T
C1053  H1062   1.077   .     S
C1053  C1055   1.387   .     A
C1054  H1061   1.084   .     S
C1055  H1069   1.084   .     S
C1055  C472    1.390   1_556 S
C1056  H1063   1.083   .     S
C1057  H1064   1.083   .     S
C1057  C642    1.383   1_565 S
C1058  H1065   1.083   .     S
C1058  C1091   1.402   .     S
C1058  C672    1.383   1_565 S
Cu1059 O1088   1.948   .     S
Cu1059 N1077   2.020   .     S
Cu1059 O1081   1.963   .     S
Cu1059 O1085   1.959   .     S
Cu1059 O1084   1.966   .     S
Cu1060 O1087   1.948   .     S
Cu1060 O1082   1.963   .     S
Cu1060 O1083   1.966   .     S
Cu1060 N1078   2.020   .     S
Cu1060 O1086   1.959   .     S
Cu1060 Cu1123  2.687   .     S
H1072  C1105   1.083   .     S
O1082  C1100   1.293   .     S
O1086  C1098   1.298   .     S
C1089  O1147   1.295   .     A
C1089  C1092   1.450   .     S
C1089  O1017   1.293   1_655 S
C1090  H1130   1.083   .     S
C1091  C1121   1.400   .     A
C1091  C1100   1.450   .     S
C1092  C1120   1.400   .     A
C1092  C962    1.402   1_655 S
C1093  C1115   1.438   .     S
C1093  N1142   1.378   .     A
C1093  C1095   1.417   .     A
C1094  C1116   1.438   .     S
C1094  N1141   1.378   .     A
C1094  C1096   1.417   .     A
C1095  N1141   1.361   .     A
C1095  H1131   1.083   .     S
C1096  N1142   1.361   .     A
C1096  H1132   1.083   .     S
C1097  C1099   1.467   .     S
C1097  O1151   1.298   .     A
C1097  O1021   1.298   1_655 S
C1098  O1152   1.297   .     A
C1098  C1101   1.466   .     S
C1099  C1106   1.398   .     A
C1099  C1104   1.399   .     A
C1100  O1148   1.295   .     A
C1101  C1105   1.399   .     A
C1101  C1107   1.397   .     A
C1102  C1110   1.403   .     A
C1102  C1104   1.391   .     A
C1102  H1010   1.083   1_655 S
C1103  C1105   1.392   .     A
C1103  H1139   1.083   .     S
C1103  C1112   1.404   .     A
C1104  H1009   1.083   1_655 S
C1106  H1135   1.074   .     S
C1106  C1108   1.405   .     A
C1107  H1134   1.074   .     S
C1107  C1109   1.404   .     A
C1108  C1110   1.418   .     A
C1108  C1113   1.426   .     A
C1109  C1114   1.426   .     A
C1109  C1112   1.418   .     A
C1110  C542    1.390   1_556 S
C1111  H1140   1.076   .     S
C1111  C1118   1.386   .     A
C1111  C1114   1.417   .     A
C1113  C1117   1.417   .     A
C1113  C538    1.424   1_556 S
C1115  N1143   1.158   .     T
C1116  N1144   1.158   .     T
C1117  H1126   1.077   .     S
C1117  C1119   1.387   .     A
C1118  H1125   1.084   .     S
C1119  H1133   1.084   .     S
C1119  C536    1.390   1_556 S
C1120  H1127   1.083   .     S
C1121  H1128   1.083   .     S
C1121  C706    1.383   1_565 S
C1122  H1129   1.083   .     S
C1122  C963    1.402   1_655 S
C1122  C736    1.383   1_565 S
Cu1123 O1152   1.948   .     S
Cu1123 N1141   2.020   .     S
Cu1123 O1145   1.963   .     S
Cu1123 O1149   1.959   .     S
Cu1123 O1148   1.966   .     S
Cu1124 O1151   1.948   .     S
Cu1124 O1146   1.963   .     S
Cu1124 O1147   1.966   .     S
Cu1124 N1142   2.020   .     S
Cu1124 O1150   1.959   .     S
Cu1124 Cu995   2.687   1_655 S
H1136  C977    1.083   1_655 S
O1146  C972    1.293   1_655 S
O1150  C970    1.298   1_655 S
