data_str_m2_o1_o16_pcu_sym.230
_audit_creation_date              2020-01-03
_audit_creation_method            'Materials Studio'
_symmetry_space_group_name_H-M    'P1'
_symmetry_Int_Tables_number       1
_symmetry_cell_setting            triclinic
loop_
_symmetry_equiv_pos_as_xyz
  x,y,z
_cell_length_a                    28.5275
_cell_length_b                    32.4957
_cell_length_c                    26.7908
_cell_angle_alpha                 90.0974
_cell_angle_beta                  72.4476
_cell_angle_gamma                 89.9785
loop_
_atom_site_label
_atom_site_type_symbol
_atom_site_fract_x
_atom_site_fract_y
_atom_site_fract_z
_atom_site_U_iso_or_equiv
_atom_site_adp_type
_atom_site_occupancy
O1     O     0.12708   0.22678   0.25001   0.00000  Uiso   1.00
O2     O     0.20627   0.22679   0.25001   0.00000  Uiso   1.00
C3     C     0.16662   0.24599   0.25020   0.00000  Uiso   1.00
O4     O     0.10775   0.16665   0.32549   0.00000  Uiso   1.00
O5     O     0.18694   0.16666   0.32549   0.00000  Uiso   1.00
C6     C     0.14017   0.16691   0.35041   0.00000  Uiso   1.00
Cu7    Cu    0.11978   0.16666   0.25000   0.00000  Uiso   1.00
Cu8    Cu    0.21355   0.16667   0.25000   0.00000  Uiso   1.00
O9     O     0.12706   0.10654   0.25000   0.00000  Uiso   1.00
O10    O     0.20625   0.10655   0.25000   0.00000  Uiso   1.00
O11    O     0.14640   0.16667   0.17451   0.00000  Uiso   1.00
O12    O     0.22559   0.16668   0.17451   0.00000  Uiso   1.00
C13    C     0.16663   0.08735   0.25012   0.00000  Uiso   1.00
C14    C     0.19291   0.16757   0.14988   0.00000  Uiso   1.00
C15    C     0.25426   0.21362   0.01828   0.00000  Uiso   1.00
H16    H     0.27468   0.20714   0.08860   0.00000  Uiso   1.00
H17    H     0.28681   0.23153   0.49987   0.00000  Uiso   1.00
C18    C     0.20731   0.17479   0.09344   0.00000  Uiso   1.00
C19    C     0.07939   0.14333   0.43438   0.00000  Uiso   1.00
C20    C     0.06585   0.13765   0.48892   0.00000  Uiso   1.00
C21    C     0.09785   0.15049   0.01629   0.00000  Uiso   1.00
C22    C     0.14285   0.17020   0.49094   0.00000  Uiso   1.00
C23    C     0.15275   0.18133   0.43787   0.00000  Uiso   1.00
C24    C     0.17800   0.17979   0.01710   0.00000  Uiso   1.00
C25    C     0.21822   0.20615   0.49302   0.00000  Uiso   1.00
C26    C     0.22133   0.22444   0.44443   0.00000  Uiso   1.00
C27    C     0.19010   0.21046   0.41647   0.00000  Uiso   1.00
C28    C     0.17441   0.16350   0.06663   0.00000  Uiso   1.00
C29    C     0.24840   0.19858   0.06847   0.00000  Uiso   1.00
C30    C     0.12342   0.16472   0.40833   0.00000  Uiso   1.00
H31    H     0.14578   0.14219   0.08601   0.00000  Uiso   1.00
H32    H     0.08599   0.14541   0.05794   0.00000  Uiso   1.00
H33    H     0.19303   0.22474   0.37923   0.00000  Uiso   1.00
C34    C     0.20897   0.31203   0.25104   0.00000  Uiso   1.00
H35    H     0.24216   0.29601   0.25145   0.00000  Uiso   1.00
C36    C     0.20900   0.02127   0.25096   0.00000  Uiso   1.00
H37    H     0.24221   0.03728   0.25128   0.00000  Uiso   1.00
C38    C     0.16655   0.04274   0.25041   0.00000  Uiso   1.00
C39    C     0.12403   0.02130   0.25014   0.00000  Uiso   1.00
H40    H     0.09082   0.03732   0.24981   0.00000  Uiso   1.00
C41    C     0.12402   0.31206   0.25018   0.00000  Uiso   1.00
H42    H     0.09080   0.29606   0.24987   0.00000  Uiso   1.00
C43    C     0.16653   0.29059   0.25050   0.00000  Uiso   1.00
C44    C     0.29890   0.19099   0.28393   0.00000  Uiso   1.00
H45    H     0.27237   0.21037   0.31083   0.00000  Uiso   1.00
C46    C     0.01516   0.19097   0.28405   0.00000  Uiso   1.00
H47    H     0.02613   0.21046   0.31135   0.00000  Uiso   1.00
N48    N     0.04931   0.16666   0.24999   0.00000  Uiso   1.00
C49    C     0.03444   0.14229   0.21595   0.00000  Uiso   1.00
H50    H     0.06085   0.12272   0.18873   0.00000  Uiso   1.00
C51    C     0.31813   0.14230   0.21597   0.00000  Uiso   1.00
H52    H     0.30709   0.12277   0.18876   0.00000  Uiso   1.00
N53    N     0.28402   0.16669   0.25000   0.00000  Uiso   1.00
N54    N     0.25351   0.25881   0.42475   0.00000  Uiso   1.00
O55    O     0.27053   0.26546   0.37467   0.00000  Uiso   1.00
O56    O     0.25784   0.28788   0.45655   0.00000  Uiso   1.00
N57    N     0.04805   0.12782   0.40575   0.00000  Uiso   1.00
O58    O     0.06084   0.09527   0.37642   0.00000  Uiso   1.00
O59    O     0.00545   0.14480   0.41138   0.00000  Uiso   1.00
N60    N     0.02062   0.11738   0.01697   0.00000  Uiso   1.00
O61    O     0.33270   0.12577   0.06614   0.00000  Uiso   1.00
O62    O     0.00294   0.08770   0.49538   0.00000  Uiso   1.00
O63    O     0.46042   0.22678   0.25001   0.00000  Uiso   1.00
O64    O     0.53961   0.22679   0.25001   0.00000  Uiso   1.00
C65    C     0.49995   0.24599   0.25020   0.00000  Uiso   1.00
O66    O     0.44108   0.16665   0.32549   0.00000  Uiso   1.00
O67    O     0.52027   0.16666   0.32549   0.00000  Uiso   1.00
C68    C     0.47350   0.16691   0.35041   0.00000  Uiso   1.00
Cu69   Cu    0.45311   0.16666   0.25000   0.00000  Uiso   1.00
Cu70   Cu    0.54689   0.16667   0.25000   0.00000  Uiso   1.00
O71    O     0.46039   0.10654   0.25000   0.00000  Uiso   1.00
O72    O     0.53958   0.10655   0.25000   0.00000  Uiso   1.00
O73    O     0.47973   0.16667   0.17451   0.00000  Uiso   1.00
O74    O     0.55892   0.16668   0.17451   0.00000  Uiso   1.00
C75    C     0.49996   0.08735   0.25012   0.00000  Uiso   1.00
C76    C     0.52625   0.16757   0.14988   0.00000  Uiso   1.00
C77    C     0.58759   0.21362   0.01828   0.00000  Uiso   1.00
H78    H     0.60801   0.20714   0.08860   0.00000  Uiso   1.00
H79    H     0.62015   0.23153   0.49987   0.00000  Uiso   1.00
C80    C     0.54065   0.17479   0.09344   0.00000  Uiso   1.00
C81    C     0.41273   0.14333   0.43438   0.00000  Uiso   1.00
C82    C     0.39918   0.13765   0.48892   0.00000  Uiso   1.00
C83    C     0.43119   0.15049   0.01629   0.00000  Uiso   1.00
C84    C     0.47619   0.17020   0.49094   0.00000  Uiso   1.00
C85    C     0.48608   0.18133   0.43787   0.00000  Uiso   1.00
C86    C     0.51133   0.17979   0.01710   0.00000  Uiso   1.00
C87    C     0.55155   0.20615   0.49302   0.00000  Uiso   1.00
C88    C     0.55467   0.22444   0.44443   0.00000  Uiso   1.00
C89    C     0.52343   0.21046   0.41647   0.00000  Uiso   1.00
C90    C     0.50774   0.16350   0.06663   0.00000  Uiso   1.00
C91    C     0.58173   0.19858   0.06847   0.00000  Uiso   1.00
C92    C     0.45675   0.16472   0.40833   0.00000  Uiso   1.00
H93    H     0.47911   0.14219   0.08601   0.00000  Uiso   1.00
H94    H     0.41933   0.14541   0.05794   0.00000  Uiso   1.00
H95    H     0.52637   0.22474   0.37923   0.00000  Uiso   1.00
C96    C     0.54231   0.31203   0.25104   0.00000  Uiso   1.00
H97    H     0.57550   0.29601   0.25145   0.00000  Uiso   1.00
C98    C     0.54233   0.02127   0.25096   0.00000  Uiso   1.00
H99    H     0.57554   0.03728   0.25128   0.00000  Uiso   1.00
C100   C     0.49989   0.04274   0.25041   0.00000  Uiso   1.00
C101   C     0.45736   0.02130   0.25014   0.00000  Uiso   1.00
H102   H     0.42415   0.03732   0.24981   0.00000  Uiso   1.00
C103   C     0.45735   0.31206   0.25018   0.00000  Uiso   1.00
H104   H     0.42413   0.29606   0.24987   0.00000  Uiso   1.00
C105   C     0.49986   0.29059   0.25050   0.00000  Uiso   1.00
C106   C     0.63224   0.19099   0.28393   0.00000  Uiso   1.00
H107   H     0.60570   0.21037   0.31083   0.00000  Uiso   1.00
C108   C     0.34849   0.19097   0.28405   0.00000  Uiso   1.00
H109   H     0.35946   0.21046   0.31135   0.00000  Uiso   1.00
N110   N     0.38265   0.16666   0.24999   0.00000  Uiso   1.00
C111   C     0.36778   0.14229   0.21595   0.00000  Uiso   1.00
H112   H     0.39418   0.12272   0.18873   0.00000  Uiso   1.00
C113   C     0.65146   0.14230   0.21597   0.00000  Uiso   1.00
H114   H     0.64042   0.12277   0.18876   0.00000  Uiso   1.00
N115   N     0.61735   0.16669   0.25000   0.00000  Uiso   1.00
N116   N     0.58684   0.25881   0.42475   0.00000  Uiso   1.00
O117   O     0.60387   0.26546   0.37467   0.00000  Uiso   1.00
O118   O     0.59117   0.28788   0.45655   0.00000  Uiso   1.00
N119   N     0.38139   0.12782   0.40575   0.00000  Uiso   1.00
O120   O     0.39418   0.09527   0.37642   0.00000  Uiso   1.00
O121   O     0.33878   0.14480   0.41138   0.00000  Uiso   1.00
N122   N     0.35396   0.11738   0.01697   0.00000  Uiso   1.00
O123   O     0.66604   0.12577   0.06614   0.00000  Uiso   1.00
O124   O     0.33627   0.08770   0.49538   0.00000  Uiso   1.00
O125   O     0.79375   0.22678   0.25001   0.00000  Uiso   1.00
O126   O     0.87294   0.22679   0.25001   0.00000  Uiso   1.00
C127   C     0.83328   0.24599   0.25020   0.00000  Uiso   1.00
O128   O     0.77441   0.16665   0.32549   0.00000  Uiso   1.00
O129   O     0.85360   0.16666   0.32549   0.00000  Uiso   1.00
C130   C     0.80683   0.16691   0.35041   0.00000  Uiso   1.00
Cu131  Cu    0.78645   0.16666   0.25000   0.00000  Uiso   1.00
Cu132  Cu    0.88022   0.16667   0.25000   0.00000  Uiso   1.00
O133   O     0.79373   0.10654   0.25000   0.00000  Uiso   1.00
O134   O     0.87292   0.10655   0.25000   0.00000  Uiso   1.00
O135   O     0.81306   0.16667   0.17451   0.00000  Uiso   1.00
O136   O     0.89225   0.16668   0.17451   0.00000  Uiso   1.00
C137   C     0.83329   0.08735   0.25012   0.00000  Uiso   1.00
C138   C     0.85958   0.16757   0.14988   0.00000  Uiso   1.00
C139   C     0.92092   0.21362   0.01828   0.00000  Uiso   1.00
H140   H     0.94134   0.20714   0.08860   0.00000  Uiso   1.00
H141   H     0.95348   0.23153   0.49987   0.00000  Uiso   1.00
C142   C     0.87398   0.17479   0.09344   0.00000  Uiso   1.00
C143   C     0.74606   0.14333   0.43438   0.00000  Uiso   1.00
C144   C     0.73251   0.13765   0.48892   0.00000  Uiso   1.00
C145   C     0.76452   0.15049   0.01629   0.00000  Uiso   1.00
C146   C     0.80952   0.17020   0.49094   0.00000  Uiso   1.00
C147   C     0.81941   0.18133   0.43787   0.00000  Uiso   1.00
C148   C     0.84467   0.17979   0.01710   0.00000  Uiso   1.00
C149   C     0.88488   0.20615   0.49302   0.00000  Uiso   1.00
C150   C     0.88800   0.22444   0.44443   0.00000  Uiso   1.00
C151   C     0.85677   0.21046   0.41647   0.00000  Uiso   1.00
C152   C     0.84107   0.16350   0.06663   0.00000  Uiso   1.00
C153   C     0.91507   0.19858   0.06847   0.00000  Uiso   1.00
C154   C     0.79008   0.16472   0.40833   0.00000  Uiso   1.00
H155   H     0.81245   0.14219   0.08601   0.00000  Uiso   1.00
H156   H     0.75266   0.14541   0.05794   0.00000  Uiso   1.00
H157   H     0.85970   0.22474   0.37923   0.00000  Uiso   1.00
C158   C     0.87564   0.31203   0.25104   0.00000  Uiso   1.00
H159   H     0.90883   0.29601   0.25145   0.00000  Uiso   1.00
C160   C     0.87566   0.02127   0.25096   0.00000  Uiso   1.00
H161   H     0.90888   0.03728   0.25128   0.00000  Uiso   1.00
C162   C     0.83322   0.04274   0.25041   0.00000  Uiso   1.00
C163   C     0.79069   0.02130   0.25014   0.00000  Uiso   1.00
H164   H     0.75748   0.03732   0.24981   0.00000  Uiso   1.00
C165   C     0.79068   0.31206   0.25018   0.00000  Uiso   1.00
H166   H     0.75747   0.29606   0.24987   0.00000  Uiso   1.00
C167   C     0.83319   0.29059   0.25050   0.00000  Uiso   1.00
C168   C     0.96557   0.19099   0.28393   0.00000  Uiso   1.00
H169   H     0.93904   0.21037   0.31083   0.00000  Uiso   1.00
C170   C     0.68183   0.19097   0.28405   0.00000  Uiso   1.00
H171   H     0.69280   0.21046   0.31135   0.00000  Uiso   1.00
N172   N     0.71598   0.16666   0.24999   0.00000  Uiso   1.00
C173   C     0.70111   0.14229   0.21595   0.00000  Uiso   1.00
H174   H     0.72751   0.12272   0.18873   0.00000  Uiso   1.00
C175   C     0.98480   0.14230   0.21597   0.00000  Uiso   1.00
H176   H     0.97375   0.12277   0.18876   0.00000  Uiso   1.00
N177   N     0.95069   0.16669   0.25000   0.00000  Uiso   1.00
N178   N     0.92017   0.25881   0.42475   0.00000  Uiso   1.00
O179   O     0.93720   0.26546   0.37467   0.00000  Uiso   1.00
O180   O     0.92450   0.28788   0.45655   0.00000  Uiso   1.00
N181   N     0.71472   0.12782   0.40575   0.00000  Uiso   1.00
O182   O     0.72751   0.09527   0.37642   0.00000  Uiso   1.00
O183   O     0.67211   0.14480   0.41138   0.00000  Uiso   1.00
N184   N     0.68729   0.11738   0.01697   0.00000  Uiso   1.00
O185   O     0.99937   0.12577   0.06614   0.00000  Uiso   1.00
O186   O     0.66961   0.08770   0.49538   0.00000  Uiso   1.00
O187   O     0.12708   0.56011   0.25001   0.00000  Uiso   1.00
O188   O     0.20627   0.56012   0.25001   0.00000  Uiso   1.00
C189   C     0.16662   0.57932   0.25020   0.00000  Uiso   1.00
O190   O     0.10775   0.49998   0.32549   0.00000  Uiso   1.00
O191   O     0.18694   0.49999   0.32549   0.00000  Uiso   1.00
C192   C     0.14017   0.50024   0.35041   0.00000  Uiso   1.00
Cu193  Cu    0.11978   0.49999   0.25000   0.00000  Uiso   1.00
Cu194  Cu    0.21355   0.50001   0.25000   0.00000  Uiso   1.00
O195   O     0.12706   0.43988   0.25000   0.00000  Uiso   1.00
O196   O     0.20625   0.43989   0.25000   0.00000  Uiso   1.00
O197   O     0.14640   0.50001   0.17451   0.00000  Uiso   1.00
O198   O     0.22559   0.50002   0.17451   0.00000  Uiso   1.00
C199   C     0.16663   0.42068   0.25012   0.00000  Uiso   1.00
C200   C     0.19291   0.50090   0.14988   0.00000  Uiso   1.00
C201   C     0.25426   0.54695   0.01828   0.00000  Uiso   1.00
H202   H     0.27468   0.54047   0.08860   0.00000  Uiso   1.00
H203   H     0.28681   0.56486   0.49987   0.00000  Uiso   1.00
C204   C     0.20731   0.50812   0.09344   0.00000  Uiso   1.00
C205   C     0.07939   0.47666   0.43438   0.00000  Uiso   1.00
C206   C     0.06585   0.47099   0.48892   0.00000  Uiso   1.00
C207   C     0.09785   0.48382   0.01629   0.00000  Uiso   1.00
C208   C     0.14285   0.50353   0.49094   0.00000  Uiso   1.00
C209   C     0.15275   0.51466   0.43787   0.00000  Uiso   1.00
C210   C     0.17800   0.51312   0.01710   0.00000  Uiso   1.00
C211   C     0.21822   0.53949   0.49302   0.00000  Uiso   1.00
C212   C     0.22133   0.55777   0.44443   0.00000  Uiso   1.00
C213   C     0.19010   0.54380   0.41647   0.00000  Uiso   1.00
C214   C     0.17441   0.49683   0.06663   0.00000  Uiso   1.00
C215   C     0.24840   0.53191   0.06847   0.00000  Uiso   1.00
C216   C     0.12342   0.49805   0.40833   0.00000  Uiso   1.00
H217   H     0.14578   0.47553   0.08601   0.00000  Uiso   1.00
H218   H     0.08599   0.47875   0.05794   0.00000  Uiso   1.00
H219   H     0.19303   0.55808   0.37923   0.00000  Uiso   1.00
C220   C     0.20897   0.64537   0.25104   0.00000  Uiso   1.00
H221   H     0.24216   0.62934   0.25145   0.00000  Uiso   1.00
C222   C     0.20900   0.35460   0.25096   0.00000  Uiso   1.00
H223   H     0.24221   0.37061   0.25128   0.00000  Uiso   1.00
C224   C     0.16655   0.37607   0.25041   0.00000  Uiso   1.00
C225   C     0.12403   0.35463   0.25014   0.00000  Uiso   1.00
H226   H     0.09082   0.37065   0.24981   0.00000  Uiso   1.00
C227   C     0.12402   0.64539   0.25018   0.00000  Uiso   1.00
H228   H     0.09080   0.62939   0.24987   0.00000  Uiso   1.00
C229   C     0.16653   0.62393   0.25050   0.00000  Uiso   1.00
C230   C     0.29890   0.52432   0.28393   0.00000  Uiso   1.00
H231   H     0.27237   0.54371   0.31083   0.00000  Uiso   1.00
C232   C     0.01516   0.52431   0.28405   0.00000  Uiso   1.00
H233   H     0.02613   0.54380   0.31135   0.00000  Uiso   1.00
N234   N     0.04931   0.49999   0.24999   0.00000  Uiso   1.00
C235   C     0.03444   0.47562   0.21595   0.00000  Uiso   1.00
H236   H     0.06085   0.45605   0.18873   0.00000  Uiso   1.00
C237   C     0.31813   0.47563   0.21597   0.00000  Uiso   1.00
H238   H     0.30709   0.45610   0.18876   0.00000  Uiso   1.00
N239   N     0.28402   0.50002   0.25000   0.00000  Uiso   1.00
N240   N     0.25351   0.59215   0.42475   0.00000  Uiso   1.00
O241   O     0.27053   0.59879   0.37467   0.00000  Uiso   1.00
O242   O     0.25784   0.62121   0.45655   0.00000  Uiso   1.00
N243   N     0.04805   0.46115   0.40575   0.00000  Uiso   1.00
O244   O     0.06084   0.42860   0.37642   0.00000  Uiso   1.00
O245   O     0.00545   0.47813   0.41138   0.00000  Uiso   1.00
N246   N     0.02062   0.45072   0.01697   0.00000  Uiso   1.00
O247   O     0.33270   0.45911   0.06614   0.00000  Uiso   1.00
O248   O     0.00294   0.42104   0.49538   0.00000  Uiso   1.00
O249   O     0.46042   0.56011   0.25001   0.00000  Uiso   1.00
O250   O     0.53961   0.56012   0.25001   0.00000  Uiso   1.00
C251   C     0.49995   0.57932   0.25020   0.00000  Uiso   1.00
O252   O     0.44108   0.49998   0.32549   0.00000  Uiso   1.00
O253   O     0.52027   0.49999   0.32549   0.00000  Uiso   1.00
C254   C     0.47350   0.50024   0.35041   0.00000  Uiso   1.00
Cu255  Cu    0.45311   0.49999   0.25000   0.00000  Uiso   1.00
Cu256  Cu    0.54689   0.50001   0.25000   0.00000  Uiso   1.00
O257   O     0.46039   0.43988   0.25000   0.00000  Uiso   1.00
O258   O     0.53958   0.43989   0.25000   0.00000  Uiso   1.00
O259   O     0.47973   0.50001   0.17451   0.00000  Uiso   1.00
O260   O     0.55892   0.50002   0.17451   0.00000  Uiso   1.00
C261   C     0.49996   0.42068   0.25012   0.00000  Uiso   1.00
C262   C     0.52625   0.50090   0.14988   0.00000  Uiso   1.00
C263   C     0.58759   0.54695   0.01828   0.00000  Uiso   1.00
H264   H     0.60801   0.54047   0.08860   0.00000  Uiso   1.00
H265   H     0.62015   0.56486   0.49987   0.00000  Uiso   1.00
C266   C     0.54065   0.50812   0.09344   0.00000  Uiso   1.00
C267   C     0.41273   0.47666   0.43438   0.00000  Uiso   1.00
C268   C     0.39918   0.47099   0.48892   0.00000  Uiso   1.00
C269   C     0.43119   0.48382   0.01629   0.00000  Uiso   1.00
C270   C     0.47619   0.50353   0.49094   0.00000  Uiso   1.00
C271   C     0.48608   0.51466   0.43787   0.00000  Uiso   1.00
C272   C     0.51133   0.51312   0.01710   0.00000  Uiso   1.00
C273   C     0.55155   0.53949   0.49302   0.00000  Uiso   1.00
C274   C     0.55467   0.55777   0.44443   0.00000  Uiso   1.00
C275   C     0.52343   0.54380   0.41647   0.00000  Uiso   1.00
C276   C     0.50774   0.49683   0.06663   0.00000  Uiso   1.00
C277   C     0.58173   0.53191   0.06847   0.00000  Uiso   1.00
C278   C     0.45675   0.49805   0.40833   0.00000  Uiso   1.00
H279   H     0.47911   0.47553   0.08601   0.00000  Uiso   1.00
H280   H     0.41933   0.47875   0.05794   0.00000  Uiso   1.00
H281   H     0.52637   0.55808   0.37923   0.00000  Uiso   1.00
C282   C     0.54231   0.64537   0.25104   0.00000  Uiso   1.00
H283   H     0.57550   0.62934   0.25145   0.00000  Uiso   1.00
C284   C     0.54233   0.35460   0.25096   0.00000  Uiso   1.00
H285   H     0.57554   0.37061   0.25128   0.00000  Uiso   1.00
C286   C     0.49989   0.37607   0.25041   0.00000  Uiso   1.00
C287   C     0.45736   0.35463   0.25014   0.00000  Uiso   1.00
H288   H     0.42415   0.37065   0.24981   0.00000  Uiso   1.00
C289   C     0.45735   0.64539   0.25018   0.00000  Uiso   1.00
H290   H     0.42413   0.62939   0.24987   0.00000  Uiso   1.00
C291   C     0.49986   0.62393   0.25050   0.00000  Uiso   1.00
C292   C     0.63224   0.52432   0.28393   0.00000  Uiso   1.00
H293   H     0.60570   0.54371   0.31083   0.00000  Uiso   1.00
C294   C     0.34849   0.52431   0.28405   0.00000  Uiso   1.00
H295   H     0.35946   0.54380   0.31135   0.00000  Uiso   1.00
N296   N     0.38265   0.49999   0.24999   0.00000  Uiso   1.00
C297   C     0.36778   0.47562   0.21595   0.00000  Uiso   1.00
H298   H     0.39418   0.45605   0.18873   0.00000  Uiso   1.00
C299   C     0.65146   0.47563   0.21597   0.00000  Uiso   1.00
H300   H     0.64042   0.45610   0.18876   0.00000  Uiso   1.00
N301   N     0.61735   0.50002   0.25000   0.00000  Uiso   1.00
N302   N     0.58684   0.59215   0.42475   0.00000  Uiso   1.00
O303   O     0.60387   0.59879   0.37467   0.00000  Uiso   1.00
O304   O     0.59117   0.62121   0.45655   0.00000  Uiso   1.00
N305   N     0.38139   0.46115   0.40575   0.00000  Uiso   1.00
O306   O     0.39418   0.42860   0.37642   0.00000  Uiso   1.00
O307   O     0.33878   0.47813   0.41138   0.00000  Uiso   1.00
N308   N     0.35396   0.45072   0.01697   0.00000  Uiso   1.00
O309   O     0.66604   0.45911   0.06614   0.00000  Uiso   1.00
O310   O     0.33627   0.42104   0.49538   0.00000  Uiso   1.00
O311   O     0.79375   0.56011   0.25001   0.00000  Uiso   1.00
O312   O     0.87294   0.56012   0.25001   0.00000  Uiso   1.00
C313   C     0.83328   0.57932   0.25020   0.00000  Uiso   1.00
O314   O     0.77441   0.49998   0.32549   0.00000  Uiso   1.00
O315   O     0.85360   0.49999   0.32549   0.00000  Uiso   1.00
C316   C     0.80683   0.50024   0.35041   0.00000  Uiso   1.00
Cu317  Cu    0.78645   0.49999   0.25000   0.00000  Uiso   1.00
Cu318  Cu    0.88022   0.50001   0.25000   0.00000  Uiso   1.00
O319   O     0.79373   0.43988   0.25000   0.00000  Uiso   1.00
O320   O     0.87292   0.43989   0.25000   0.00000  Uiso   1.00
O321   O     0.81306   0.50001   0.17451   0.00000  Uiso   1.00
O322   O     0.89225   0.50002   0.17451   0.00000  Uiso   1.00
C323   C     0.83329   0.42068   0.25012   0.00000  Uiso   1.00
C324   C     0.85958   0.50090   0.14988   0.00000  Uiso   1.00
C325   C     0.92092   0.54695   0.01828   0.00000  Uiso   1.00
H326   H     0.94134   0.54047   0.08860   0.00000  Uiso   1.00
H327   H     0.95348   0.56486   0.49987   0.00000  Uiso   1.00
C328   C     0.87398   0.50812   0.09344   0.00000  Uiso   1.00
C329   C     0.74606   0.47666   0.43438   0.00000  Uiso   1.00
C330   C     0.73251   0.47099   0.48892   0.00000  Uiso   1.00
C331   C     0.76452   0.48382   0.01629   0.00000  Uiso   1.00
C332   C     0.80952   0.50353   0.49094   0.00000  Uiso   1.00
C333   C     0.81941   0.51466   0.43787   0.00000  Uiso   1.00
C334   C     0.84467   0.51312   0.01710   0.00000  Uiso   1.00
C335   C     0.88488   0.53949   0.49302   0.00000  Uiso   1.00
C336   C     0.88800   0.55777   0.44443   0.00000  Uiso   1.00
C337   C     0.85677   0.54380   0.41647   0.00000  Uiso   1.00
C338   C     0.84107   0.49683   0.06663   0.00000  Uiso   1.00
C339   C     0.91507   0.53191   0.06847   0.00000  Uiso   1.00
C340   C     0.79008   0.49805   0.40833   0.00000  Uiso   1.00
H341   H     0.81245   0.47553   0.08601   0.00000  Uiso   1.00
H342   H     0.75266   0.47875   0.05794   0.00000  Uiso   1.00
H343   H     0.85970   0.55808   0.37923   0.00000  Uiso   1.00
C344   C     0.87564   0.64537   0.25104   0.00000  Uiso   1.00
H345   H     0.90883   0.62934   0.25145   0.00000  Uiso   1.00
C346   C     0.87566   0.35460   0.25096   0.00000  Uiso   1.00
H347   H     0.90888   0.37061   0.25128   0.00000  Uiso   1.00
C348   C     0.83322   0.37607   0.25041   0.00000  Uiso   1.00
C349   C     0.79069   0.35463   0.25014   0.00000  Uiso   1.00
H350   H     0.75748   0.37065   0.24981   0.00000  Uiso   1.00
C351   C     0.79068   0.64539   0.25018   0.00000  Uiso   1.00
H352   H     0.75747   0.62939   0.24987   0.00000  Uiso   1.00
C353   C     0.83319   0.62393   0.25050   0.00000  Uiso   1.00
C354   C     0.96557   0.52432   0.28393   0.00000  Uiso   1.00
H355   H     0.93904   0.54371   0.31083   0.00000  Uiso   1.00
C356   C     0.68183   0.52431   0.28405   0.00000  Uiso   1.00
H357   H     0.69280   0.54380   0.31135   0.00000  Uiso   1.00
N358   N     0.71598   0.49999   0.24999   0.00000  Uiso   1.00
C359   C     0.70111   0.47562   0.21595   0.00000  Uiso   1.00
H360   H     0.72751   0.45605   0.18873   0.00000  Uiso   1.00
C361   C     0.98480   0.47563   0.21597   0.00000  Uiso   1.00
H362   H     0.97375   0.45610   0.18876   0.00000  Uiso   1.00
N363   N     0.95069   0.50002   0.25000   0.00000  Uiso   1.00
N364   N     0.92017   0.59215   0.42475   0.00000  Uiso   1.00
O365   O     0.93720   0.59879   0.37467   0.00000  Uiso   1.00
O366   O     0.92450   0.62121   0.45655   0.00000  Uiso   1.00
N367   N     0.71472   0.46115   0.40575   0.00000  Uiso   1.00
O368   O     0.72751   0.42860   0.37642   0.00000  Uiso   1.00
O369   O     0.67211   0.47813   0.41138   0.00000  Uiso   1.00
N370   N     0.68729   0.45072   0.01697   0.00000  Uiso   1.00
O371   O     0.99937   0.45911   0.06614   0.00000  Uiso   1.00
O372   O     0.66961   0.42104   0.49538   0.00000  Uiso   1.00
O373   O     0.12708   0.89345   0.25001   0.00000  Uiso   1.00
O374   O     0.20627   0.89346   0.25001   0.00000  Uiso   1.00
C375   C     0.16662   0.91265   0.25020   0.00000  Uiso   1.00
O376   O     0.10775   0.83332   0.32549   0.00000  Uiso   1.00
O377   O     0.18694   0.83333   0.32549   0.00000  Uiso   1.00
C378   C     0.14017   0.83357   0.35041   0.00000  Uiso   1.00
Cu379  Cu    0.11978   0.83333   0.25000   0.00000  Uiso   1.00
Cu380  Cu    0.21355   0.83334   0.25000   0.00000  Uiso   1.00
O381   O     0.12706   0.77321   0.25000   0.00000  Uiso   1.00
O382   O     0.20625   0.77322   0.25000   0.00000  Uiso   1.00
O383   O     0.14640   0.83334   0.17451   0.00000  Uiso   1.00
O384   O     0.22559   0.83335   0.17451   0.00000  Uiso   1.00
C385   C     0.16663   0.75401   0.25012   0.00000  Uiso   1.00
C386   C     0.19291   0.83423   0.14988   0.00000  Uiso   1.00
C387   C     0.25426   0.88029   0.01828   0.00000  Uiso   1.00
H388   H     0.27468   0.87381   0.08860   0.00000  Uiso   1.00
H389   H     0.28681   0.89819   0.49987   0.00000  Uiso   1.00
C390   C     0.20731   0.84146   0.09344   0.00000  Uiso   1.00
C391   C     0.07939   0.81000   0.43438   0.00000  Uiso   1.00
C392   C     0.06585   0.80432   0.48892   0.00000  Uiso   1.00
C393   C     0.09785   0.81716   0.01629   0.00000  Uiso   1.00
C394   C     0.14285   0.83686   0.49094   0.00000  Uiso   1.00
C395   C     0.15275   0.84800   0.43787   0.00000  Uiso   1.00
C396   C     0.17800   0.84646   0.01710   0.00000  Uiso   1.00
C397   C     0.21822   0.87282   0.49302   0.00000  Uiso   1.00
C398   C     0.22133   0.89110   0.44443   0.00000  Uiso   1.00
C399   C     0.19010   0.87713   0.41647   0.00000  Uiso   1.00
C400   C     0.17441   0.83017   0.06663   0.00000  Uiso   1.00
C401   C     0.24840   0.86525   0.06847   0.00000  Uiso   1.00
C402   C     0.12342   0.83138   0.40833   0.00000  Uiso   1.00
H403   H     0.14578   0.80886   0.08601   0.00000  Uiso   1.00
H404   H     0.08599   0.81208   0.05794   0.00000  Uiso   1.00
H405   H     0.19303   0.89141   0.37923   0.00000  Uiso   1.00
C406   C     0.20897   0.97870   0.25104   0.00000  Uiso   1.00
H407   H     0.24216   0.96267   0.25145   0.00000  Uiso   1.00
C408   C     0.20900   0.68794   0.25096   0.00000  Uiso   1.00
H409   H     0.24221   0.70394   0.25128   0.00000  Uiso   1.00
C410   C     0.16655   0.70940   0.25041   0.00000  Uiso   1.00
C411   C     0.12403   0.68796   0.25014   0.00000  Uiso   1.00
H412   H     0.09082   0.70399   0.24981   0.00000  Uiso   1.00
C413   C     0.12402   0.97873   0.25018   0.00000  Uiso   1.00
H414   H     0.09080   0.96272   0.24987   0.00000  Uiso   1.00
C415   C     0.16653   0.95726   0.25050   0.00000  Uiso   1.00
C416   C     0.29890   0.85766   0.28393   0.00000  Uiso   1.00
H417   H     0.27237   0.87704   0.31083   0.00000  Uiso   1.00
C418   C     0.01516   0.85764   0.28405   0.00000  Uiso   1.00
H419   H     0.02613   0.87713   0.31135   0.00000  Uiso   1.00
N420   N     0.04931   0.83332   0.24999   0.00000  Uiso   1.00
C421   C     0.03444   0.80896   0.21595   0.00000  Uiso   1.00
H422   H     0.06085   0.78939   0.18873   0.00000  Uiso   1.00
C423   C     0.31813   0.80897   0.21597   0.00000  Uiso   1.00
H424   H     0.30709   0.78944   0.18876   0.00000  Uiso   1.00
N425   N     0.28402   0.83335   0.25000   0.00000  Uiso   1.00
N426   N     0.25351   0.92548   0.42475   0.00000  Uiso   1.00
O427   O     0.27053   0.93213   0.37467   0.00000  Uiso   1.00
O428   O     0.25784   0.95454   0.45655   0.00000  Uiso   1.00
N429   N     0.04805   0.79448   0.40575   0.00000  Uiso   1.00
O430   O     0.06084   0.76194   0.37642   0.00000  Uiso   1.00
O431   O     0.00545   0.81146   0.41138   0.00000  Uiso   1.00
N432   N     0.02062   0.78405   0.01697   0.00000  Uiso   1.00
O433   O     0.33270   0.79244   0.06614   0.00000  Uiso   1.00
O434   O     0.00294   0.75437   0.49538   0.00000  Uiso   1.00
O435   O     0.46042   0.89345   0.25001   0.00000  Uiso   1.00
O436   O     0.53961   0.89346   0.25001   0.00000  Uiso   1.00
C437   C     0.49995   0.91265   0.25020   0.00000  Uiso   1.00
O438   O     0.44108   0.83332   0.32549   0.00000  Uiso   1.00
O439   O     0.52027   0.83333   0.32549   0.00000  Uiso   1.00
C440   C     0.47350   0.83357   0.35041   0.00000  Uiso   1.00
Cu441  Cu    0.45311   0.83333   0.25000   0.00000  Uiso   1.00
Cu442  Cu    0.54689   0.83334   0.25000   0.00000  Uiso   1.00
O443   O     0.46039   0.77321   0.25000   0.00000  Uiso   1.00
O444   O     0.53958   0.77322   0.25000   0.00000  Uiso   1.00
O445   O     0.47973   0.83334   0.17451   0.00000  Uiso   1.00
O446   O     0.55892   0.83335   0.17451   0.00000  Uiso   1.00
C447   C     0.49996   0.75401   0.25012   0.00000  Uiso   1.00
C448   C     0.52625   0.83423   0.14988   0.00000  Uiso   1.00
C449   C     0.58759   0.88029   0.01828   0.00000  Uiso   1.00
H450   H     0.60801   0.87381   0.08860   0.00000  Uiso   1.00
H451   H     0.62015   0.89819   0.49987   0.00000  Uiso   1.00
C452   C     0.54065   0.84146   0.09344   0.00000  Uiso   1.00
C453   C     0.41273   0.81000   0.43438   0.00000  Uiso   1.00
C454   C     0.39918   0.80432   0.48892   0.00000  Uiso   1.00
C455   C     0.43119   0.81716   0.01629   0.00000  Uiso   1.00
C456   C     0.47619   0.83686   0.49094   0.00000  Uiso   1.00
C457   C     0.48608   0.84800   0.43787   0.00000  Uiso   1.00
C458   C     0.51133   0.84646   0.01710   0.00000  Uiso   1.00
C459   C     0.55155   0.87282   0.49302   0.00000  Uiso   1.00
C460   C     0.55467   0.89110   0.44443   0.00000  Uiso   1.00
C461   C     0.52343   0.87713   0.41647   0.00000  Uiso   1.00
C462   C     0.50774   0.83017   0.06663   0.00000  Uiso   1.00
C463   C     0.58173   0.86525   0.06847   0.00000  Uiso   1.00
C464   C     0.45675   0.83138   0.40833   0.00000  Uiso   1.00
H465   H     0.47911   0.80886   0.08601   0.00000  Uiso   1.00
H466   H     0.41933   0.81208   0.05794   0.00000  Uiso   1.00
H467   H     0.52637   0.89141   0.37923   0.00000  Uiso   1.00
C468   C     0.54231   0.97870   0.25104   0.00000  Uiso   1.00
H469   H     0.57550   0.96267   0.25145   0.00000  Uiso   1.00
C470   C     0.54233   0.68794   0.25096   0.00000  Uiso   1.00
H471   H     0.57554   0.70394   0.25128   0.00000  Uiso   1.00
C472   C     0.49989   0.70940   0.25041   0.00000  Uiso   1.00
C473   C     0.45736   0.68796   0.25014   0.00000  Uiso   1.00
H474   H     0.42415   0.70399   0.24981   0.00000  Uiso   1.00
C475   C     0.45735   0.97873   0.25018   0.00000  Uiso   1.00
H476   H     0.42413   0.96272   0.24987   0.00000  Uiso   1.00
C477   C     0.49986   0.95726   0.25050   0.00000  Uiso   1.00
C478   C     0.63224   0.85766   0.28393   0.00000  Uiso   1.00
H479   H     0.60570   0.87704   0.31083   0.00000  Uiso   1.00
C480   C     0.34849   0.85764   0.28405   0.00000  Uiso   1.00
H481   H     0.35946   0.87713   0.31135   0.00000  Uiso   1.00
N482   N     0.38265   0.83332   0.24999   0.00000  Uiso   1.00
C483   C     0.36778   0.80896   0.21595   0.00000  Uiso   1.00
H484   H     0.39418   0.78939   0.18873   0.00000  Uiso   1.00
C485   C     0.65146   0.80897   0.21597   0.00000  Uiso   1.00
H486   H     0.64042   0.78944   0.18876   0.00000  Uiso   1.00
N487   N     0.61735   0.83335   0.25000   0.00000  Uiso   1.00
N488   N     0.58684   0.92548   0.42475   0.00000  Uiso   1.00
O489   O     0.60387   0.93213   0.37467   0.00000  Uiso   1.00
O490   O     0.59117   0.95454   0.45655   0.00000  Uiso   1.00
N491   N     0.38139   0.79448   0.40575   0.00000  Uiso   1.00
O492   O     0.39418   0.76194   0.37642   0.00000  Uiso   1.00
O493   O     0.33878   0.81146   0.41138   0.00000  Uiso   1.00
N494   N     0.35396   0.78405   0.01697   0.00000  Uiso   1.00
O495   O     0.66604   0.79244   0.06614   0.00000  Uiso   1.00
O496   O     0.33627   0.75437   0.49538   0.00000  Uiso   1.00
O497   O     0.79375   0.89345   0.25001   0.00000  Uiso   1.00
O498   O     0.87294   0.89346   0.25001   0.00000  Uiso   1.00
C499   C     0.83328   0.91265   0.25020   0.00000  Uiso   1.00
O500   O     0.77441   0.83332   0.32549   0.00000  Uiso   1.00
O501   O     0.85360   0.83333   0.32549   0.00000  Uiso   1.00
C502   C     0.80683   0.83357   0.35041   0.00000  Uiso   1.00
Cu503  Cu    0.78645   0.83333   0.25000   0.00000  Uiso   1.00
Cu504  Cu    0.88022   0.83334   0.25000   0.00000  Uiso   1.00
O505   O     0.79373   0.77321   0.25000   0.00000  Uiso   1.00
O506   O     0.87292   0.77322   0.25000   0.00000  Uiso   1.00
O507   O     0.81306   0.83334   0.17451   0.00000  Uiso   1.00
O508   O     0.89225   0.83335   0.17451   0.00000  Uiso   1.00
C509   C     0.83329   0.75401   0.25012   0.00000  Uiso   1.00
C510   C     0.85958   0.83423   0.14988   0.00000  Uiso   1.00
C511   C     0.92092   0.88029   0.01828   0.00000  Uiso   1.00
H512   H     0.94134   0.87381   0.08860   0.00000  Uiso   1.00
H513   H     0.95348   0.89819   0.49987   0.00000  Uiso   1.00
C514   C     0.87398   0.84146   0.09344   0.00000  Uiso   1.00
C515   C     0.74606   0.81000   0.43438   0.00000  Uiso   1.00
C516   C     0.73251   0.80432   0.48892   0.00000  Uiso   1.00
C517   C     0.76452   0.81716   0.01629   0.00000  Uiso   1.00
C518   C     0.80952   0.83686   0.49094   0.00000  Uiso   1.00
C519   C     0.81941   0.84800   0.43787   0.00000  Uiso   1.00
C520   C     0.84467   0.84646   0.01710   0.00000  Uiso   1.00
C521   C     0.88488   0.87282   0.49302   0.00000  Uiso   1.00
C522   C     0.88800   0.89110   0.44443   0.00000  Uiso   1.00
C523   C     0.85677   0.87713   0.41647   0.00000  Uiso   1.00
C524   C     0.84107   0.83017   0.06663   0.00000  Uiso   1.00
C525   C     0.91507   0.86525   0.06847   0.00000  Uiso   1.00
C526   C     0.79008   0.83138   0.40833   0.00000  Uiso   1.00
H527   H     0.81245   0.80886   0.08601   0.00000  Uiso   1.00
H528   H     0.75266   0.81208   0.05794   0.00000  Uiso   1.00
H529   H     0.85970   0.89141   0.37923   0.00000  Uiso   1.00
C530   C     0.87564   0.97870   0.25104   0.00000  Uiso   1.00
H531   H     0.90883   0.96267   0.25145   0.00000  Uiso   1.00
C532   C     0.87566   0.68794   0.25096   0.00000  Uiso   1.00
H533   H     0.90888   0.70394   0.25128   0.00000  Uiso   1.00
C534   C     0.83322   0.70940   0.25041   0.00000  Uiso   1.00
C535   C     0.79069   0.68796   0.25014   0.00000  Uiso   1.00
H536   H     0.75748   0.70399   0.24981   0.00000  Uiso   1.00
C537   C     0.79068   0.97873   0.25018   0.00000  Uiso   1.00
H538   H     0.75747   0.96272   0.24987   0.00000  Uiso   1.00
C539   C     0.83319   0.95726   0.25050   0.00000  Uiso   1.00
C540   C     0.96557   0.85766   0.28393   0.00000  Uiso   1.00
H541   H     0.93904   0.87704   0.31083   0.00000  Uiso   1.00
C542   C     0.68183   0.85764   0.28405   0.00000  Uiso   1.00
H543   H     0.69280   0.87713   0.31135   0.00000  Uiso   1.00
N544   N     0.71598   0.83332   0.24999   0.00000  Uiso   1.00
C545   C     0.70111   0.80896   0.21595   0.00000  Uiso   1.00
H546   H     0.72751   0.78939   0.18873   0.00000  Uiso   1.00
C547   C     0.98480   0.80897   0.21597   0.00000  Uiso   1.00
H548   H     0.97375   0.78944   0.18876   0.00000  Uiso   1.00
N549   N     0.95069   0.83335   0.25000   0.00000  Uiso   1.00
N550   N     0.92017   0.92548   0.42475   0.00000  Uiso   1.00
O551   O     0.93720   0.93213   0.37467   0.00000  Uiso   1.00
O552   O     0.92450   0.95454   0.45655   0.00000  Uiso   1.00
N553   N     0.71472   0.79448   0.40575   0.00000  Uiso   1.00
O554   O     0.72751   0.76194   0.37642   0.00000  Uiso   1.00
O555   O     0.67211   0.81146   0.41138   0.00000  Uiso   1.00
N556   N     0.68729   0.78405   0.01697   0.00000  Uiso   1.00
O557   O     0.99937   0.79244   0.06614   0.00000  Uiso   1.00
O558   O     0.66961   0.75437   0.49538   0.00000  Uiso   1.00
O559   O     0.12708   0.22678   0.75001   0.00000  Uiso   1.00
O560   O     0.20627   0.22679   0.75001   0.00000  Uiso   1.00
C561   C     0.16662   0.24599   0.75020   0.00000  Uiso   1.00
O562   O     0.10775   0.16665   0.82549   0.00000  Uiso   1.00
O563   O     0.18694   0.16666   0.82549   0.00000  Uiso   1.00
C564   C     0.14017   0.16691   0.85041   0.00000  Uiso   1.00
Cu565  Cu    0.11978   0.16666   0.75000   0.00000  Uiso   1.00
Cu566  Cu    0.21355   0.16667   0.75000   0.00000  Uiso   1.00
O567   O     0.12706   0.10654   0.75000   0.00000  Uiso   1.00
O568   O     0.20625   0.10655   0.75000   0.00000  Uiso   1.00
O569   O     0.14640   0.16667   0.67451   0.00000  Uiso   1.00
O570   O     0.22559   0.16668   0.67451   0.00000  Uiso   1.00
C571   C     0.16663   0.08735   0.75012   0.00000  Uiso   1.00
C572   C     0.19291   0.16757   0.64988   0.00000  Uiso   1.00
C573   C     0.25426   0.21362   0.51828   0.00000  Uiso   1.00
H574   H     0.27468   0.20714   0.58860   0.00000  Uiso   1.00
H575   H     0.28681   0.23153   0.99987   0.00000  Uiso   1.00
C576   C     0.20731   0.17479   0.59344   0.00000  Uiso   1.00
C577   C     0.07939   0.14333   0.93438   0.00000  Uiso   1.00
C578   C     0.06585   0.13765   0.98892   0.00000  Uiso   1.00
C579   C     0.09785   0.15049   0.51629   0.00000  Uiso   1.00
C580   C     0.14285   0.17020   0.99094   0.00000  Uiso   1.00
C581   C     0.15275   0.18133   0.93787   0.00000  Uiso   1.00
C582   C     0.17800   0.17979   0.51710   0.00000  Uiso   1.00
C583   C     0.21822   0.20615   0.99302   0.00000  Uiso   1.00
C584   C     0.22133   0.22444   0.94443   0.00000  Uiso   1.00
C585   C     0.19010   0.21046   0.91647   0.00000  Uiso   1.00
C586   C     0.17441   0.16350   0.56663   0.00000  Uiso   1.00
C587   C     0.24840   0.19858   0.56847   0.00000  Uiso   1.00
C588   C     0.12342   0.16472   0.90833   0.00000  Uiso   1.00
H589   H     0.14578   0.14219   0.58601   0.00000  Uiso   1.00
H590   H     0.08599   0.14541   0.55794   0.00000  Uiso   1.00
H591   H     0.19303   0.22474   0.87923   0.00000  Uiso   1.00
C592   C     0.20897   0.31203   0.75104   0.00000  Uiso   1.00
H593   H     0.24216   0.29601   0.75145   0.00000  Uiso   1.00
C594   C     0.20900   0.02127   0.75096   0.00000  Uiso   1.00
H595   H     0.24221   0.03728   0.75128   0.00000  Uiso   1.00
C596   C     0.16655   0.04274   0.75041   0.00000  Uiso   1.00
C597   C     0.12403   0.02130   0.75014   0.00000  Uiso   1.00
H598   H     0.09082   0.03732   0.74981   0.00000  Uiso   1.00
C599   C     0.12402   0.31206   0.75018   0.00000  Uiso   1.00
H600   H     0.09080   0.29606   0.74987   0.00000  Uiso   1.00
C601   C     0.16653   0.29059   0.75050   0.00000  Uiso   1.00
C602   C     0.29890   0.19099   0.78393   0.00000  Uiso   1.00
H603   H     0.27237   0.21037   0.81083   0.00000  Uiso   1.00
C604   C     0.01516   0.19097   0.78405   0.00000  Uiso   1.00
H605   H     0.02613   0.21046   0.81135   0.00000  Uiso   1.00
N606   N     0.04931   0.16666   0.74999   0.00000  Uiso   1.00
C607   C     0.03444   0.14229   0.71595   0.00000  Uiso   1.00
H608   H     0.06085   0.12272   0.68873   0.00000  Uiso   1.00
C609   C     0.31813   0.14230   0.71597   0.00000  Uiso   1.00
H610   H     0.30709   0.12277   0.68876   0.00000  Uiso   1.00
N611   N     0.28402   0.16669   0.75000   0.00000  Uiso   1.00
N612   N     0.25351   0.25881   0.92475   0.00000  Uiso   1.00
O613   O     0.27053   0.26546   0.87467   0.00000  Uiso   1.00
O614   O     0.25784   0.28788   0.95655   0.00000  Uiso   1.00
N615   N     0.04805   0.12782   0.90575   0.00000  Uiso   1.00
O616   O     0.06084   0.09527   0.87642   0.00000  Uiso   1.00
O617   O     0.00545   0.14480   0.91138   0.00000  Uiso   1.00
N618   N     0.02062   0.11738   0.51697   0.00000  Uiso   1.00
O619   O     0.33270   0.12577   0.56614   0.00000  Uiso   1.00
O620   O     0.00294   0.08770   0.99538   0.00000  Uiso   1.00
O621   O     0.46042   0.22678   0.75001   0.00000  Uiso   1.00
O622   O     0.53961   0.22679   0.75001   0.00000  Uiso   1.00
C623   C     0.49995   0.24599   0.75020   0.00000  Uiso   1.00
O624   O     0.44108   0.16665   0.82549   0.00000  Uiso   1.00
O625   O     0.52027   0.16666   0.82549   0.00000  Uiso   1.00
C626   C     0.47350   0.16691   0.85041   0.00000  Uiso   1.00
Cu627  Cu    0.45311   0.16666   0.75000   0.00000  Uiso   1.00
Cu628  Cu    0.54689   0.16667   0.75000   0.00000  Uiso   1.00
O629   O     0.46039   0.10654   0.75000   0.00000  Uiso   1.00
O630   O     0.53958   0.10655   0.75000   0.00000  Uiso   1.00
O631   O     0.47973   0.16667   0.67451   0.00000  Uiso   1.00
O632   O     0.55892   0.16668   0.67451   0.00000  Uiso   1.00
C633   C     0.49996   0.08735   0.75012   0.00000  Uiso   1.00
C634   C     0.52625   0.16757   0.64988   0.00000  Uiso   1.00
C635   C     0.58759   0.21362   0.51828   0.00000  Uiso   1.00
H636   H     0.60801   0.20714   0.58860   0.00000  Uiso   1.00
H637   H     0.62015   0.23153   0.99987   0.00000  Uiso   1.00
C638   C     0.54065   0.17479   0.59344   0.00000  Uiso   1.00
C639   C     0.41273   0.14333   0.93438   0.00000  Uiso   1.00
C640   C     0.39918   0.13765   0.98892   0.00000  Uiso   1.00
C641   C     0.43119   0.15049   0.51629   0.00000  Uiso   1.00
C642   C     0.47619   0.17020   0.99094   0.00000  Uiso   1.00
C643   C     0.48608   0.18133   0.93787   0.00000  Uiso   1.00
C644   C     0.51133   0.17979   0.51710   0.00000  Uiso   1.00
C645   C     0.55155   0.20615   0.99302   0.00000  Uiso   1.00
C646   C     0.55467   0.22444   0.94443   0.00000  Uiso   1.00
C647   C     0.52343   0.21046   0.91647   0.00000  Uiso   1.00
C648   C     0.50774   0.16350   0.56663   0.00000  Uiso   1.00
C649   C     0.58173   0.19858   0.56847   0.00000  Uiso   1.00
C650   C     0.45675   0.16472   0.90833   0.00000  Uiso   1.00
H651   H     0.47911   0.14219   0.58601   0.00000  Uiso   1.00
H652   H     0.41933   0.14541   0.55794   0.00000  Uiso   1.00
H653   H     0.52637   0.22474   0.87923   0.00000  Uiso   1.00
C654   C     0.54231   0.31203   0.75104   0.00000  Uiso   1.00
H655   H     0.57550   0.29601   0.75145   0.00000  Uiso   1.00
C656   C     0.54233   0.02127   0.75096   0.00000  Uiso   1.00
H657   H     0.57554   0.03728   0.75128   0.00000  Uiso   1.00
C658   C     0.49989   0.04274   0.75041   0.00000  Uiso   1.00
C659   C     0.45736   0.02130   0.75014   0.00000  Uiso   1.00
H660   H     0.42415   0.03732   0.74981   0.00000  Uiso   1.00
C661   C     0.45735   0.31206   0.75018   0.00000  Uiso   1.00
H662   H     0.42413   0.29606   0.74987   0.00000  Uiso   1.00
C663   C     0.49986   0.29059   0.75050   0.00000  Uiso   1.00
C664   C     0.63224   0.19099   0.78393   0.00000  Uiso   1.00
H665   H     0.60570   0.21037   0.81083   0.00000  Uiso   1.00
C666   C     0.34849   0.19097   0.78405   0.00000  Uiso   1.00
H667   H     0.35946   0.21046   0.81135   0.00000  Uiso   1.00
N668   N     0.38265   0.16666   0.74999   0.00000  Uiso   1.00
C669   C     0.36778   0.14229   0.71595   0.00000  Uiso   1.00
H670   H     0.39418   0.12272   0.68873   0.00000  Uiso   1.00
C671   C     0.65146   0.14230   0.71597   0.00000  Uiso   1.00
H672   H     0.64042   0.12277   0.68876   0.00000  Uiso   1.00
N673   N     0.61735   0.16669   0.75000   0.00000  Uiso   1.00
N674   N     0.58684   0.25881   0.92475   0.00000  Uiso   1.00
O675   O     0.60387   0.26546   0.87467   0.00000  Uiso   1.00
O676   O     0.59117   0.28788   0.95655   0.00000  Uiso   1.00
N677   N     0.38139   0.12782   0.90575   0.00000  Uiso   1.00
O678   O     0.39418   0.09527   0.87642   0.00000  Uiso   1.00
O679   O     0.33878   0.14480   0.91138   0.00000  Uiso   1.00
N680   N     0.35396   0.11738   0.51697   0.00000  Uiso   1.00
O681   O     0.66604   0.12577   0.56614   0.00000  Uiso   1.00
O682   O     0.33627   0.08770   0.99538   0.00000  Uiso   1.00
O683   O     0.79375   0.22678   0.75001   0.00000  Uiso   1.00
O684   O     0.87294   0.22679   0.75001   0.00000  Uiso   1.00
C685   C     0.83328   0.24599   0.75020   0.00000  Uiso   1.00
O686   O     0.77441   0.16665   0.82549   0.00000  Uiso   1.00
O687   O     0.85360   0.16666   0.82549   0.00000  Uiso   1.00
C688   C     0.80683   0.16691   0.85041   0.00000  Uiso   1.00
Cu689  Cu    0.78645   0.16666   0.75000   0.00000  Uiso   1.00
Cu690  Cu    0.88022   0.16667   0.75000   0.00000  Uiso   1.00
O691   O     0.79373   0.10654   0.75000   0.00000  Uiso   1.00
O692   O     0.87292   0.10655   0.75000   0.00000  Uiso   1.00
O693   O     0.81306   0.16667   0.67451   0.00000  Uiso   1.00
O694   O     0.89225   0.16668   0.67451   0.00000  Uiso   1.00
C695   C     0.83329   0.08735   0.75012   0.00000  Uiso   1.00
C696   C     0.85958   0.16757   0.64988   0.00000  Uiso   1.00
C697   C     0.92092   0.21362   0.51828   0.00000  Uiso   1.00
H698   H     0.94134   0.20714   0.58860   0.00000  Uiso   1.00
H699   H     0.95348   0.23153   0.99987   0.00000  Uiso   1.00
C700   C     0.87398   0.17479   0.59344   0.00000  Uiso   1.00
C701   C     0.74606   0.14333   0.93438   0.00000  Uiso   1.00
C702   C     0.73251   0.13765   0.98892   0.00000  Uiso   1.00
C703   C     0.76452   0.15049   0.51629   0.00000  Uiso   1.00
C704   C     0.80952   0.17020   0.99094   0.00000  Uiso   1.00
C705   C     0.81941   0.18133   0.93787   0.00000  Uiso   1.00
C706   C     0.84467   0.17979   0.51710   0.00000  Uiso   1.00
C707   C     0.88488   0.20615   0.99302   0.00000  Uiso   1.00
C708   C     0.88800   0.22444   0.94443   0.00000  Uiso   1.00
C709   C     0.85677   0.21046   0.91647   0.00000  Uiso   1.00
C710   C     0.84107   0.16350   0.56663   0.00000  Uiso   1.00
C711   C     0.91507   0.19858   0.56847   0.00000  Uiso   1.00
C712   C     0.79008   0.16472   0.90833   0.00000  Uiso   1.00
H713   H     0.81245   0.14219   0.58601   0.00000  Uiso   1.00
H714   H     0.75266   0.14541   0.55794   0.00000  Uiso   1.00
H715   H     0.85970   0.22474   0.87923   0.00000  Uiso   1.00
C716   C     0.87564   0.31203   0.75104   0.00000  Uiso   1.00
H717   H     0.90883   0.29601   0.75145   0.00000  Uiso   1.00
C718   C     0.87566   0.02127   0.75096   0.00000  Uiso   1.00
H719   H     0.90888   0.03728   0.75128   0.00000  Uiso   1.00
C720   C     0.83322   0.04274   0.75041   0.00000  Uiso   1.00
C721   C     0.79069   0.02130   0.75014   0.00000  Uiso   1.00
H722   H     0.75748   0.03732   0.74981   0.00000  Uiso   1.00
C723   C     0.79068   0.31206   0.75018   0.00000  Uiso   1.00
H724   H     0.75747   0.29606   0.74987   0.00000  Uiso   1.00
C725   C     0.83319   0.29059   0.75050   0.00000  Uiso   1.00
C726   C     0.96557   0.19099   0.78393   0.00000  Uiso   1.00
H727   H     0.93904   0.21037   0.81083   0.00000  Uiso   1.00
C728   C     0.68183   0.19097   0.78405   0.00000  Uiso   1.00
H729   H     0.69280   0.21046   0.81135   0.00000  Uiso   1.00
N730   N     0.71598   0.16666   0.74999   0.00000  Uiso   1.00
C731   C     0.70111   0.14229   0.71595   0.00000  Uiso   1.00
H732   H     0.72751   0.12272   0.68873   0.00000  Uiso   1.00
C733   C     0.98480   0.14230   0.71597   0.00000  Uiso   1.00
H734   H     0.97375   0.12277   0.68876   0.00000  Uiso   1.00
N735   N     0.95069   0.16669   0.75000   0.00000  Uiso   1.00
N736   N     0.92017   0.25881   0.92475   0.00000  Uiso   1.00
O737   O     0.93720   0.26546   0.87467   0.00000  Uiso   1.00
O738   O     0.92450   0.28788   0.95655   0.00000  Uiso   1.00
N739   N     0.71472   0.12782   0.90575   0.00000  Uiso   1.00
O740   O     0.72751   0.09527   0.87642   0.00000  Uiso   1.00
O741   O     0.67211   0.14480   0.91138   0.00000  Uiso   1.00
N742   N     0.68729   0.11738   0.51697   0.00000  Uiso   1.00
O743   O     0.99937   0.12577   0.56614   0.00000  Uiso   1.00
O744   O     0.66961   0.08770   0.99538   0.00000  Uiso   1.00
O745   O     0.12708   0.56011   0.75001   0.00000  Uiso   1.00
O746   O     0.20627   0.56012   0.75001   0.00000  Uiso   1.00
C747   C     0.16662   0.57932   0.75020   0.00000  Uiso   1.00
O748   O     0.10775   0.49998   0.82549   0.00000  Uiso   1.00
O749   O     0.18694   0.49999   0.82549   0.00000  Uiso   1.00
C750   C     0.14017   0.50024   0.85041   0.00000  Uiso   1.00
Cu751  Cu    0.11978   0.49999   0.75000   0.00000  Uiso   1.00
Cu752  Cu    0.21355   0.50001   0.75000   0.00000  Uiso   1.00
O753   O     0.12706   0.43988   0.75000   0.00000  Uiso   1.00
O754   O     0.20625   0.43989   0.75000   0.00000  Uiso   1.00
O755   O     0.14640   0.50001   0.67451   0.00000  Uiso   1.00
O756   O     0.22559   0.50002   0.67451   0.00000  Uiso   1.00
C757   C     0.16663   0.42068   0.75012   0.00000  Uiso   1.00
C758   C     0.19291   0.50090   0.64988   0.00000  Uiso   1.00
C759   C     0.25426   0.54695   0.51828   0.00000  Uiso   1.00
H760   H     0.27468   0.54047   0.58860   0.00000  Uiso   1.00
H761   H     0.28681   0.56486   0.99987   0.00000  Uiso   1.00
C762   C     0.20731   0.50812   0.59344   0.00000  Uiso   1.00
C763   C     0.07939   0.47666   0.93438   0.00000  Uiso   1.00
C764   C     0.06585   0.47099   0.98892   0.00000  Uiso   1.00
C765   C     0.09785   0.48382   0.51629   0.00000  Uiso   1.00
C766   C     0.14285   0.50353   0.99094   0.00000  Uiso   1.00
C767   C     0.15275   0.51466   0.93787   0.00000  Uiso   1.00
C768   C     0.17800   0.51312   0.51710   0.00000  Uiso   1.00
C769   C     0.21822   0.53949   0.99302   0.00000  Uiso   1.00
C770   C     0.22133   0.55777   0.94443   0.00000  Uiso   1.00
C771   C     0.19010   0.54380   0.91647   0.00000  Uiso   1.00
C772   C     0.17441   0.49683   0.56663   0.00000  Uiso   1.00
C773   C     0.24840   0.53191   0.56847   0.00000  Uiso   1.00
C774   C     0.12342   0.49805   0.90833   0.00000  Uiso   1.00
H775   H     0.14578   0.47553   0.58601   0.00000  Uiso   1.00
H776   H     0.08599   0.47875   0.55794   0.00000  Uiso   1.00
H777   H     0.19303   0.55808   0.87923   0.00000  Uiso   1.00
C778   C     0.20897   0.64537   0.75104   0.00000  Uiso   1.00
H779   H     0.24216   0.62934   0.75145   0.00000  Uiso   1.00
C780   C     0.20900   0.35460   0.75096   0.00000  Uiso   1.00
H781   H     0.24221   0.37061   0.75128   0.00000  Uiso   1.00
C782   C     0.16655   0.37607   0.75041   0.00000  Uiso   1.00
C783   C     0.12403   0.35463   0.75014   0.00000  Uiso   1.00
H784   H     0.09082   0.37065   0.74981   0.00000  Uiso   1.00
C785   C     0.12402   0.64539   0.75018   0.00000  Uiso   1.00
H786   H     0.09080   0.62939   0.74987   0.00000  Uiso   1.00
C787   C     0.16653   0.62393   0.75050   0.00000  Uiso   1.00
C788   C     0.29890   0.52432   0.78393   0.00000  Uiso   1.00
H789   H     0.27237   0.54371   0.81083   0.00000  Uiso   1.00
C790   C     0.01516   0.52431   0.78405   0.00000  Uiso   1.00
H791   H     0.02613   0.54380   0.81135   0.00000  Uiso   1.00
N792   N     0.04931   0.49999   0.74999   0.00000  Uiso   1.00
C793   C     0.03444   0.47562   0.71595   0.00000  Uiso   1.00
H794   H     0.06085   0.45605   0.68873   0.00000  Uiso   1.00
C795   C     0.31813   0.47563   0.71597   0.00000  Uiso   1.00
H796   H     0.30709   0.45610   0.68876   0.00000  Uiso   1.00
N797   N     0.28402   0.50002   0.75000   0.00000  Uiso   1.00
N798   N     0.25351   0.59215   0.92475   0.00000  Uiso   1.00
O799   O     0.27053   0.59879   0.87467   0.00000  Uiso   1.00
O800   O     0.25784   0.62121   0.95655   0.00000  Uiso   1.00
N801   N     0.04805   0.46115   0.90575   0.00000  Uiso   1.00
O802   O     0.06084   0.42860   0.87642   0.00000  Uiso   1.00
O803   O     0.00545   0.47813   0.91138   0.00000  Uiso   1.00
N804   N     0.02062   0.45072   0.51697   0.00000  Uiso   1.00
O805   O     0.33270   0.45911   0.56614   0.00000  Uiso   1.00
O806   O     0.00294   0.42104   0.99538   0.00000  Uiso   1.00
O807   O     0.46042   0.56011   0.75001   0.00000  Uiso   1.00
O808   O     0.53961   0.56012   0.75001   0.00000  Uiso   1.00
C809   C     0.49995   0.57932   0.75020   0.00000  Uiso   1.00
O810   O     0.44108   0.49998   0.82549   0.00000  Uiso   1.00
O811   O     0.52027   0.49999   0.82549   0.00000  Uiso   1.00
C812   C     0.47350   0.50024   0.85041   0.00000  Uiso   1.00
Cu813  Cu    0.45311   0.49999   0.75000   0.00000  Uiso   1.00
Cu814  Cu    0.54689   0.50001   0.75000   0.00000  Uiso   1.00
O815   O     0.46039   0.43988   0.75000   0.00000  Uiso   1.00
O816   O     0.53958   0.43989   0.75000   0.00000  Uiso   1.00
O817   O     0.47973   0.50001   0.67451   0.00000  Uiso   1.00
O818   O     0.55892   0.50002   0.67451   0.00000  Uiso   1.00
C819   C     0.49996   0.42068   0.75012   0.00000  Uiso   1.00
C820   C     0.52625   0.50090   0.64988   0.00000  Uiso   1.00
C821   C     0.58759   0.54695   0.51828   0.00000  Uiso   1.00
H822   H     0.60801   0.54047   0.58860   0.00000  Uiso   1.00
H823   H     0.62015   0.56486   0.99987   0.00000  Uiso   1.00
C824   C     0.54065   0.50812   0.59344   0.00000  Uiso   1.00
C825   C     0.41273   0.47666   0.93438   0.00000  Uiso   1.00
C826   C     0.39918   0.47099   0.98892   0.00000  Uiso   1.00
C827   C     0.43119   0.48382   0.51629   0.00000  Uiso   1.00
C828   C     0.47619   0.50353   0.99094   0.00000  Uiso   1.00
C829   C     0.48608   0.51466   0.93787   0.00000  Uiso   1.00
C830   C     0.51133   0.51312   0.51710   0.00000  Uiso   1.00
C831   C     0.55155   0.53949   0.99302   0.00000  Uiso   1.00
C832   C     0.55467   0.55777   0.94443   0.00000  Uiso   1.00
C833   C     0.52343   0.54380   0.91647   0.00000  Uiso   1.00
C834   C     0.50774   0.49683   0.56663   0.00000  Uiso   1.00
C835   C     0.58173   0.53191   0.56847   0.00000  Uiso   1.00
C836   C     0.45675   0.49805   0.90833   0.00000  Uiso   1.00
H837   H     0.47911   0.47553   0.58601   0.00000  Uiso   1.00
H838   H     0.41933   0.47875   0.55794   0.00000  Uiso   1.00
H839   H     0.52637   0.55808   0.87923   0.00000  Uiso   1.00
C840   C     0.54231   0.64537   0.75104   0.00000  Uiso   1.00
H841   H     0.57550   0.62934   0.75145   0.00000  Uiso   1.00
C842   C     0.54233   0.35460   0.75096   0.00000  Uiso   1.00
H843   H     0.57554   0.37061   0.75128   0.00000  Uiso   1.00
C844   C     0.49989   0.37607   0.75041   0.00000  Uiso   1.00
C845   C     0.45736   0.35463   0.75014   0.00000  Uiso   1.00
H846   H     0.42415   0.37065   0.74981   0.00000  Uiso   1.00
C847   C     0.45735   0.64539   0.75018   0.00000  Uiso   1.00
H848   H     0.42413   0.62939   0.74987   0.00000  Uiso   1.00
C849   C     0.49986   0.62393   0.75050   0.00000  Uiso   1.00
C850   C     0.63224   0.52432   0.78393   0.00000  Uiso   1.00
H851   H     0.60570   0.54371   0.81083   0.00000  Uiso   1.00
C852   C     0.34849   0.52431   0.78405   0.00000  Uiso   1.00
H853   H     0.35946   0.54380   0.81135   0.00000  Uiso   1.00
N854   N     0.38265   0.49999   0.74999   0.00000  Uiso   1.00
C855   C     0.36778   0.47562   0.71595   0.00000  Uiso   1.00
H856   H     0.39418   0.45605   0.68873   0.00000  Uiso   1.00
C857   C     0.65146   0.47563   0.71597   0.00000  Uiso   1.00
H858   H     0.64042   0.45610   0.68876   0.00000  Uiso   1.00
N859   N     0.61735   0.50002   0.75000   0.00000  Uiso   1.00
N860   N     0.58684   0.59215   0.92475   0.00000  Uiso   1.00
O861   O     0.60387   0.59879   0.87467   0.00000  Uiso   1.00
O862   O     0.59117   0.62121   0.95655   0.00000  Uiso   1.00
N863   N     0.38139   0.46115   0.90575   0.00000  Uiso   1.00
O864   O     0.39418   0.42860   0.87642   0.00000  Uiso   1.00
O865   O     0.33878   0.47813   0.91138   0.00000  Uiso   1.00
N866   N     0.35396   0.45072   0.51697   0.00000  Uiso   1.00
O867   O     0.66604   0.45911   0.56614   0.00000  Uiso   1.00
O868   O     0.33627   0.42104   0.99538   0.00000  Uiso   1.00
O869   O     0.79375   0.56011   0.75001   0.00000  Uiso   1.00
O870   O     0.87294   0.56012   0.75001   0.00000  Uiso   1.00
C871   C     0.83328   0.57932   0.75020   0.00000  Uiso   1.00
O872   O     0.77441   0.49998   0.82549   0.00000  Uiso   1.00
O873   O     0.85360   0.49999   0.82549   0.00000  Uiso   1.00
C874   C     0.80683   0.50024   0.85041   0.00000  Uiso   1.00
Cu875  Cu    0.78645   0.49999   0.75000   0.00000  Uiso   1.00
Cu876  Cu    0.88022   0.50001   0.75000   0.00000  Uiso   1.00
O877   O     0.79373   0.43988   0.75000   0.00000  Uiso   1.00
O878   O     0.87292   0.43989   0.75000   0.00000  Uiso   1.00
O879   O     0.81306   0.50001   0.67451   0.00000  Uiso   1.00
O880   O     0.89225   0.50002   0.67451   0.00000  Uiso   1.00
C881   C     0.83329   0.42068   0.75012   0.00000  Uiso   1.00
C882   C     0.85958   0.50090   0.64988   0.00000  Uiso   1.00
C883   C     0.92092   0.54695   0.51828   0.00000  Uiso   1.00
H884   H     0.94134   0.54047   0.58860   0.00000  Uiso   1.00
H885   H     0.95348   0.56486   0.99987   0.00000  Uiso   1.00
C886   C     0.87398   0.50812   0.59344   0.00000  Uiso   1.00
C887   C     0.74606   0.47666   0.93438   0.00000  Uiso   1.00
C888   C     0.73251   0.47099   0.98892   0.00000  Uiso   1.00
C889   C     0.76452   0.48382   0.51629   0.00000  Uiso   1.00
C890   C     0.80952   0.50353   0.99094   0.00000  Uiso   1.00
C891   C     0.81941   0.51466   0.93787   0.00000  Uiso   1.00
C892   C     0.84467   0.51312   0.51710   0.00000  Uiso   1.00
C893   C     0.88488   0.53949   0.99302   0.00000  Uiso   1.00
C894   C     0.88800   0.55777   0.94443   0.00000  Uiso   1.00
C895   C     0.85677   0.54380   0.91647   0.00000  Uiso   1.00
C896   C     0.84107   0.49683   0.56663   0.00000  Uiso   1.00
C897   C     0.91507   0.53191   0.56847   0.00000  Uiso   1.00
C898   C     0.79008   0.49805   0.90833   0.00000  Uiso   1.00
H899   H     0.81245   0.47553   0.58601   0.00000  Uiso   1.00
H900   H     0.75266   0.47875   0.55794   0.00000  Uiso   1.00
H901   H     0.85970   0.55808   0.87923   0.00000  Uiso   1.00
C902   C     0.87564   0.64537   0.75104   0.00000  Uiso   1.00
H903   H     0.90883   0.62934   0.75145   0.00000  Uiso   1.00
C904   C     0.87566   0.35460   0.75096   0.00000  Uiso   1.00
H905   H     0.90888   0.37061   0.75128   0.00000  Uiso   1.00
C906   C     0.83322   0.37607   0.75041   0.00000  Uiso   1.00
C907   C     0.79069   0.35463   0.75014   0.00000  Uiso   1.00
H908   H     0.75748   0.37065   0.74981   0.00000  Uiso   1.00
C909   C     0.79068   0.64539   0.75018   0.00000  Uiso   1.00
H910   H     0.75747   0.62939   0.74987   0.00000  Uiso   1.00
C911   C     0.83319   0.62393   0.75050   0.00000  Uiso   1.00
C912   C     0.96557   0.52432   0.78393   0.00000  Uiso   1.00
H913   H     0.93904   0.54371   0.81083   0.00000  Uiso   1.00
C914   C     0.68183   0.52431   0.78405   0.00000  Uiso   1.00
H915   H     0.69280   0.54380   0.81135   0.00000  Uiso   1.00
N916   N     0.71598   0.49999   0.74999   0.00000  Uiso   1.00
C917   C     0.70111   0.47562   0.71595   0.00000  Uiso   1.00
H918   H     0.72751   0.45605   0.68873   0.00000  Uiso   1.00
C919   C     0.98480   0.47563   0.71597   0.00000  Uiso   1.00
H920   H     0.97375   0.45610   0.68876   0.00000  Uiso   1.00
N921   N     0.95069   0.50002   0.75000   0.00000  Uiso   1.00
N922   N     0.92017   0.59215   0.92475   0.00000  Uiso   1.00
O923   O     0.93720   0.59879   0.87467   0.00000  Uiso   1.00
O924   O     0.92450   0.62121   0.95655   0.00000  Uiso   1.00
N925   N     0.71472   0.46115   0.90575   0.00000  Uiso   1.00
O926   O     0.72751   0.42860   0.87642   0.00000  Uiso   1.00
O927   O     0.67211   0.47813   0.91138   0.00000  Uiso   1.00
N928   N     0.68729   0.45072   0.51697   0.00000  Uiso   1.00
O929   O     0.99937   0.45911   0.56614   0.00000  Uiso   1.00
O930   O     0.66961   0.42104   0.99538   0.00000  Uiso   1.00
O931   O     0.12708   0.89345   0.75001   0.00000  Uiso   1.00
O932   O     0.20627   0.89346   0.75001   0.00000  Uiso   1.00
C933   C     0.16662   0.91265   0.75020   0.00000  Uiso   1.00
O934   O     0.10775   0.83332   0.82549   0.00000  Uiso   1.00
O935   O     0.18694   0.83333   0.82549   0.00000  Uiso   1.00
C936   C     0.14017   0.83357   0.85041   0.00000  Uiso   1.00
Cu937  Cu    0.11978   0.83333   0.75000   0.00000  Uiso   1.00
Cu938  Cu    0.21355   0.83334   0.75000   0.00000  Uiso   1.00
O939   O     0.12706   0.77321   0.75000   0.00000  Uiso   1.00
O940   O     0.20625   0.77322   0.75000   0.00000  Uiso   1.00
O941   O     0.14640   0.83334   0.67451   0.00000  Uiso   1.00
O942   O     0.22559   0.83335   0.67451   0.00000  Uiso   1.00
C943   C     0.16663   0.75401   0.75012   0.00000  Uiso   1.00
C944   C     0.19291   0.83423   0.64988   0.00000  Uiso   1.00
C945   C     0.25426   0.88029   0.51828   0.00000  Uiso   1.00
H946   H     0.27468   0.87381   0.58860   0.00000  Uiso   1.00
H947   H     0.28681   0.89819   0.99987   0.00000  Uiso   1.00
C948   C     0.20731   0.84146   0.59344   0.00000  Uiso   1.00
C949   C     0.07939   0.81000   0.93438   0.00000  Uiso   1.00
C950   C     0.06585   0.80432   0.98892   0.00000  Uiso   1.00
C951   C     0.09785   0.81716   0.51629   0.00000  Uiso   1.00
C952   C     0.14285   0.83686   0.99094   0.00000  Uiso   1.00
C953   C     0.15275   0.84800   0.93787   0.00000  Uiso   1.00
C954   C     0.17800   0.84646   0.51710   0.00000  Uiso   1.00
C955   C     0.21822   0.87282   0.99302   0.00000  Uiso   1.00
C956   C     0.22133   0.89110   0.94443   0.00000  Uiso   1.00
C957   C     0.19010   0.87713   0.91647   0.00000  Uiso   1.00
C958   C     0.17441   0.83017   0.56663   0.00000  Uiso   1.00
C959   C     0.24840   0.86525   0.56847   0.00000  Uiso   1.00
C960   C     0.12342   0.83138   0.90833   0.00000  Uiso   1.00
H961   H     0.14578   0.80886   0.58601   0.00000  Uiso   1.00
H962   H     0.08599   0.81208   0.55794   0.00000  Uiso   1.00
H963   H     0.19303   0.89141   0.87923   0.00000  Uiso   1.00
C964   C     0.20897   0.97870   0.75104   0.00000  Uiso   1.00
H965   H     0.24216   0.96267   0.75145   0.00000  Uiso   1.00
C966   C     0.20900   0.68794   0.75096   0.00000  Uiso   1.00
H967   H     0.24221   0.70394   0.75128   0.00000  Uiso   1.00
C968   C     0.16655   0.70940   0.75041   0.00000  Uiso   1.00
C969   C     0.12403   0.68796   0.75014   0.00000  Uiso   1.00
H970   H     0.09082   0.70399   0.74981   0.00000  Uiso   1.00
C971   C     0.12402   0.97873   0.75018   0.00000  Uiso   1.00
H972   H     0.09080   0.96272   0.74987   0.00000  Uiso   1.00
C973   C     0.16653   0.95726   0.75050   0.00000  Uiso   1.00
C974   C     0.29890   0.85766   0.78393   0.00000  Uiso   1.00
H975   H     0.27237   0.87704   0.81083   0.00000  Uiso   1.00
C976   C     0.01516   0.85764   0.78405   0.00000  Uiso   1.00
H977   H     0.02613   0.87713   0.81135   0.00000  Uiso   1.00
N978   N     0.04931   0.83332   0.74999   0.00000  Uiso   1.00
C979   C     0.03444   0.80896   0.71595   0.00000  Uiso   1.00
H980   H     0.06085   0.78939   0.68873   0.00000  Uiso   1.00
C981   C     0.31813   0.80897   0.71597   0.00000  Uiso   1.00
H982   H     0.30709   0.78944   0.68876   0.00000  Uiso   1.00
N983   N     0.28402   0.83335   0.75000   0.00000  Uiso   1.00
N984   N     0.25351   0.92548   0.92475   0.00000  Uiso   1.00
O985   O     0.27053   0.93213   0.87467   0.00000  Uiso   1.00
O986   O     0.25784   0.95454   0.95655   0.00000  Uiso   1.00
N987   N     0.04805   0.79448   0.90575   0.00000  Uiso   1.00
O988   O     0.06084   0.76194   0.87642   0.00000  Uiso   1.00
O989   O     0.00545   0.81146   0.91138   0.00000  Uiso   1.00
N990   N     0.02062   0.78405   0.51697   0.00000  Uiso   1.00
O991   O     0.33270   0.79244   0.56614   0.00000  Uiso   1.00
O992   O     0.00294   0.75437   0.99538   0.00000  Uiso   1.00
O993   O     0.46042   0.89345   0.75001   0.00000  Uiso   1.00
O994   O     0.53961   0.89346   0.75001   0.00000  Uiso   1.00
C995   C     0.49995   0.91265   0.75020   0.00000  Uiso   1.00
O996   O     0.44108   0.83332   0.82549   0.00000  Uiso   1.00
O997   O     0.52027   0.83333   0.82549   0.00000  Uiso   1.00
C998   C     0.47350   0.83357   0.85041   0.00000  Uiso   1.00
Cu999  Cu    0.45311   0.83333   0.75000   0.00000  Uiso   1.00
Cu1000 Cu    0.54689   0.83334   0.75000   0.00000  Uiso   1.00
O1001  O     0.46039   0.77321   0.75000   0.00000  Uiso   1.00
O1002  O     0.53958   0.77322   0.75000   0.00000  Uiso   1.00
O1003  O     0.47973   0.83334   0.67451   0.00000  Uiso   1.00
O1004  O     0.55892   0.83335   0.67451   0.00000  Uiso   1.00
C1005  C     0.49996   0.75401   0.75012   0.00000  Uiso   1.00
C1006  C     0.52625   0.83423   0.64988   0.00000  Uiso   1.00
C1007  C     0.58759   0.88029   0.51828   0.00000  Uiso   1.00
H1008  H     0.60801   0.87381   0.58860   0.00000  Uiso   1.00
H1009  H     0.62015   0.89819   0.99987   0.00000  Uiso   1.00
C1010  C     0.54065   0.84146   0.59344   0.00000  Uiso   1.00
C1011  C     0.41273   0.81000   0.93438   0.00000  Uiso   1.00
C1012  C     0.39918   0.80432   0.98892   0.00000  Uiso   1.00
C1013  C     0.43119   0.81716   0.51629   0.00000  Uiso   1.00
C1014  C     0.47619   0.83686   0.99094   0.00000  Uiso   1.00
C1015  C     0.48608   0.84800   0.93787   0.00000  Uiso   1.00
C1016  C     0.51133   0.84646   0.51710   0.00000  Uiso   1.00
C1017  C     0.55155   0.87282   0.99302   0.00000  Uiso   1.00
C1018  C     0.55467   0.89110   0.94443   0.00000  Uiso   1.00
C1019  C     0.52343   0.87713   0.91647   0.00000  Uiso   1.00
C1020  C     0.50774   0.83017   0.56663   0.00000  Uiso   1.00
C1021  C     0.58173   0.86525   0.56847   0.00000  Uiso   1.00
C1022  C     0.45675   0.83138   0.90833   0.00000  Uiso   1.00
H1023  H     0.47911   0.80886   0.58601   0.00000  Uiso   1.00
H1024  H     0.41933   0.81208   0.55794   0.00000  Uiso   1.00
H1025  H     0.52637   0.89141   0.87923   0.00000  Uiso   1.00
C1026  C     0.54231   0.97870   0.75104   0.00000  Uiso   1.00
H1027  H     0.57550   0.96267   0.75145   0.00000  Uiso   1.00
C1028  C     0.54233   0.68794   0.75096   0.00000  Uiso   1.00
H1029  H     0.57554   0.70394   0.75128   0.00000  Uiso   1.00
C1030  C     0.49989   0.70940   0.75041   0.00000  Uiso   1.00
C1031  C     0.45736   0.68796   0.75014   0.00000  Uiso   1.00
H1032  H     0.42415   0.70399   0.74981   0.00000  Uiso   1.00
C1033  C     0.45735   0.97873   0.75018   0.00000  Uiso   1.00
H1034  H     0.42413   0.96272   0.74987   0.00000  Uiso   1.00
C1035  C     0.49986   0.95726   0.75050   0.00000  Uiso   1.00
C1036  C     0.63224   0.85766   0.78393   0.00000  Uiso   1.00
H1037  H     0.60570   0.87704   0.81083   0.00000  Uiso   1.00
C1038  C     0.34849   0.85764   0.78405   0.00000  Uiso   1.00
H1039  H     0.35946   0.87713   0.81135   0.00000  Uiso   1.00
N1040  N     0.38265   0.83332   0.74999   0.00000  Uiso   1.00
C1041  C     0.36778   0.80896   0.71595   0.00000  Uiso   1.00
H1042  H     0.39418   0.78939   0.68873   0.00000  Uiso   1.00
C1043  C     0.65146   0.80897   0.71597   0.00000  Uiso   1.00
H1044  H     0.64042   0.78944   0.68876   0.00000  Uiso   1.00
N1045  N     0.61735   0.83335   0.75000   0.00000  Uiso   1.00
N1046  N     0.58684   0.92548   0.92475   0.00000  Uiso   1.00
O1047  O     0.60387   0.93213   0.87467   0.00000  Uiso   1.00
O1048  O     0.59117   0.95454   0.95655   0.00000  Uiso   1.00
N1049  N     0.38139   0.79448   0.90575   0.00000  Uiso   1.00
O1050  O     0.39418   0.76194   0.87642   0.00000  Uiso   1.00
O1051  O     0.33878   0.81146   0.91138   0.00000  Uiso   1.00
N1052  N     0.35396   0.78405   0.51697   0.00000  Uiso   1.00
O1053  O     0.66604   0.79244   0.56614   0.00000  Uiso   1.00
O1054  O     0.33627   0.75437   0.99538   0.00000  Uiso   1.00
O1055  O     0.79375   0.89345   0.75001   0.00000  Uiso   1.00
O1056  O     0.87294   0.89346   0.75001   0.00000  Uiso   1.00
C1057  C     0.83328   0.91265   0.75020   0.00000  Uiso   1.00
O1058  O     0.77441   0.83332   0.82549   0.00000  Uiso   1.00
O1059  O     0.85360   0.83333   0.82549   0.00000  Uiso   1.00
C1060  C     0.80683   0.83357   0.85041   0.00000  Uiso   1.00
Cu1061 Cu    0.78645   0.83333   0.75000   0.00000  Uiso   1.00
Cu1062 Cu    0.88022   0.83334   0.75000   0.00000  Uiso   1.00
O1063  O     0.79373   0.77321   0.75000   0.00000  Uiso   1.00
O1064  O     0.87292   0.77322   0.75000   0.00000  Uiso   1.00
O1065  O     0.81306   0.83334   0.67451   0.00000  Uiso   1.00
O1066  O     0.89225   0.83335   0.67451   0.00000  Uiso   1.00
C1067  C     0.83329   0.75401   0.75012   0.00000  Uiso   1.00
C1068  C     0.85958   0.83423   0.64988   0.00000  Uiso   1.00
C1069  C     0.92092   0.88029   0.51828   0.00000  Uiso   1.00
H1070  H     0.94134   0.87381   0.58860   0.00000  Uiso   1.00
H1071  H     0.95348   0.89819   0.99987   0.00000  Uiso   1.00
C1072  C     0.87398   0.84146   0.59344   0.00000  Uiso   1.00
C1073  C     0.74606   0.81000   0.93438   0.00000  Uiso   1.00
C1074  C     0.73251   0.80432   0.98892   0.00000  Uiso   1.00
C1075  C     0.76452   0.81716   0.51629   0.00000  Uiso   1.00
C1076  C     0.80952   0.83686   0.99094   0.00000  Uiso   1.00
C1077  C     0.81941   0.84800   0.93787   0.00000  Uiso   1.00
C1078  C     0.84467   0.84646   0.51710   0.00000  Uiso   1.00
C1079  C     0.88488   0.87282   0.99302   0.00000  Uiso   1.00
C1080  C     0.88800   0.89110   0.94443   0.00000  Uiso   1.00
C1081  C     0.85677   0.87713   0.91647   0.00000  Uiso   1.00
C1082  C     0.84107   0.83017   0.56663   0.00000  Uiso   1.00
C1083  C     0.91507   0.86525   0.56847   0.00000  Uiso   1.00
C1084  C     0.79008   0.83138   0.90833   0.00000  Uiso   1.00
H1085  H     0.81245   0.80886   0.58601   0.00000  Uiso   1.00
H1086  H     0.75266   0.81208   0.55794   0.00000  Uiso   1.00
H1087  H     0.85970   0.89141   0.87923   0.00000  Uiso   1.00
C1088  C     0.87564   0.97870   0.75104   0.00000  Uiso   1.00
H1089  H     0.90883   0.96267   0.75145   0.00000  Uiso   1.00
C1090  C     0.87566   0.68794   0.75096   0.00000  Uiso   1.00
H1091  H     0.90888   0.70394   0.75128   0.00000  Uiso   1.00
C1092  C     0.83322   0.70940   0.75041   0.00000  Uiso   1.00
C1093  C     0.79069   0.68796   0.75014   0.00000  Uiso   1.00
H1094  H     0.75748   0.70399   0.74981   0.00000  Uiso   1.00
C1095  C     0.79068   0.97873   0.75018   0.00000  Uiso   1.00
H1096  H     0.75747   0.96272   0.74987   0.00000  Uiso   1.00
C1097  C     0.83319   0.95726   0.75050   0.00000  Uiso   1.00
C1098  C     0.96557   0.85766   0.78393   0.00000  Uiso   1.00
H1099  H     0.93904   0.87704   0.81083   0.00000  Uiso   1.00
C1100  C     0.68183   0.85764   0.78405   0.00000  Uiso   1.00
H1101  H     0.69280   0.87713   0.81135   0.00000  Uiso   1.00
N1102  N     0.71598   0.83332   0.74999   0.00000  Uiso   1.00
C1103  C     0.70111   0.80896   0.71595   0.00000  Uiso   1.00
H1104  H     0.72751   0.78939   0.68873   0.00000  Uiso   1.00
C1105  C     0.98480   0.80897   0.71597   0.00000  Uiso   1.00
H1106  H     0.97375   0.78944   0.68876   0.00000  Uiso   1.00
N1107  N     0.95069   0.83335   0.75000   0.00000  Uiso   1.00
N1108  N     0.92017   0.92548   0.92475   0.00000  Uiso   1.00
O1109  O     0.93720   0.93213   0.87467   0.00000  Uiso   1.00
O1110  O     0.92450   0.95454   0.95655   0.00000  Uiso   1.00
N1111  N     0.71472   0.79448   0.90575   0.00000  Uiso   1.00
O1112  O     0.72751   0.76194   0.87642   0.00000  Uiso   1.00
O1113  O     0.67211   0.81146   0.91138   0.00000  Uiso   1.00
N1114  N     0.68729   0.78405   0.51697   0.00000  Uiso   1.00
O1115  O     0.99937   0.79244   0.56614   0.00000  Uiso   1.00
O1116  O     0.66961   0.75437   0.99538   0.00000  Uiso   1.00
loop_
_geom_bond_atom_site_label_1
_geom_bond_atom_site_label_2
_geom_bond_distance
_geom_bond_site_symmetry_2
_ccdc_geom_bond_type
O1     Cu7     1.965   .     S
O1     C3      1.291   .     A
O2     C3      1.290   .     A
O2     Cu8     1.964   .     S
C3     C43     1.450   .     S
O4     Cu7     1.947   .     S
O4     C6      1.294   .     A
O5     Cu8     1.934   .     S
O5     C6      1.299   .     A
C6     C30     1.481   .     S
Cu7    N48     2.010   .     S
Cu7    Cu8     2.675   .     S
Cu7    O11     1.934   .     S
Cu7    O9      1.964   .     S
Cu8    N53     2.010   .     S
Cu8    O12     1.947   .     S
Cu8    O10     1.965   .     S
O9     C13     1.290   .     A
O10    C13     1.291   .     A
O11    C14     1.292   .     A
O12    C14     1.295   .     A
C13    C38     1.450   .     S
C14    C18     1.462   .     S
C15    C29     1.394   .     A
C15    H575    1.081   1_554 S
C15    C583    1.412   1_554 S
H16    C29     1.083   .     S
H17    C573    1.081   .     S
C18    C29     1.396   .     A
C18    C28     1.392   .     A
C19    C20     1.407   .     A
C19    N57     1.433   .     S
C19    C30     1.422   .     A
C20    C579    1.396   .     S
C20    N618    1.442   .     S
C21    H32     1.077   .     S
C21    C578    1.396   1_554 S
C21    C580    1.413   1_554 S
C22    C23     1.411   .     A
C22    C579    1.413   .     S
C22    C582    1.420   .     S
C23    C27     1.412   .     A
C23    C30     1.420   .     A
C24    C28     1.404   .     A
C24    C580    1.420   1_554 S
C24    C583    1.422   1_554 S
C25    C26     1.410   .     A
C25    C573    1.412   .     S
C25    C582    1.422   .     S
C26    C27     1.401   .     A
C26    N54     1.442   .     S
C27    H33     1.081   .     S
C28    H31     1.078   .     S
C34    H35     1.083   .     S
C34    C43     1.401   .     A
C34    C222    1.383   .     S
C36    C38     1.401   .     A
C36    H37     1.083   .     S
C36    C406    1.383   1_545 S
C38    C39     1.401   .     A
C39    H40     1.083   .     S
C39    C413    1.383   1_545 S
C41    H42     1.083   .     S
C41    C43     1.401   .     A
C41    C225    1.383   .     S
C44    N53     1.364   .     A
C44    H45     1.076   .     S
C44    C108    1.416   .     S
C46    H47     1.082   .     S
C46    N48     1.367   .     A
C46    C168    1.416   1_455 S
N48    C49     1.367   .     A
C49    H50     1.082   .     S
C49    C175    1.416   1_455 S
C51    N53     1.367   .     A
C51    H52     1.082   .     S
C51    C111    1.416   .     S
N54    O56     1.302   .     A
N54    O55     1.300   .     A
N57    O58     1.301   .     A
N57    O59     1.301   .     A
N60    C578    1.442   1_554 S
N60    O185    1.302   1_455 S
N60    O620    1.301   1_554 S
O61    N122    1.302   .     S
O62    N618    1.301   .     S
O63    Cu69    1.965   .     S
O63    C65     1.291   .     A
O64    C65     1.290   .     A
O64    Cu70    1.964   .     S
C65    C105    1.450   .     S
O66    Cu69    1.947   .     S
O66    C68     1.294   .     A
O67    Cu70    1.934   .     S
O67    C68     1.299   .     A
C68    C92     1.481   .     S
Cu69   N110    2.010   .     S
Cu69   Cu70    2.675   .     S
Cu69   O73     1.934   .     S
Cu69   O71     1.964   .     S
Cu70   N115    2.010   .     S
Cu70   O74     1.947   .     S
Cu70   O72     1.965   .     S
O71    C75     1.290   .     A
O72    C75     1.291   .     A
O73    C76     1.292   .     A
O74    C76     1.295   .     A
C75    C100    1.450   .     S
C76    C80     1.462   .     S
C77    C91     1.394   .     A
C77    H637    1.081   1_554 S
C77    C645    1.412   1_554 S
H78    C91     1.083   .     S
H79    C635    1.081   .     S
C80    C91     1.396   .     A
C80    C90     1.392   .     A
C81    C82     1.407   .     A
C81    N119    1.433   .     S
C81    C92     1.422   .     A
C82    C641    1.396   .     S
C82    N680    1.442   .     S
C83    H94     1.077   .     S
C83    C640    1.396   1_554 S
C83    C642    1.413   1_554 S
C84    C85     1.411   .     A
C84    C641    1.413   .     S
C84    C644    1.420   .     S
C85    C89     1.412   .     A
C85    C92     1.420   .     A
C86    C90     1.404   .     A
C86    C642    1.420   1_554 S
C86    C645    1.422   1_554 S
C87    C88     1.410   .     A
C87    C635    1.412   .     S
C87    C644    1.422   .     S
C88    C89     1.401   .     A
C88    N116    1.442   .     S
C89    H95     1.081   .     S
C90    H93     1.078   .     S
C96    H97     1.083   .     S
C96    C105    1.401   .     A
C96    C284    1.383   .     S
C98    C100    1.401   .     A
C98    H99     1.083   .     S
C98    C468    1.383   1_545 S
C100   C101    1.401   .     A
C101   H102    1.083   .     S
C101   C475    1.383   1_545 S
C103   H104    1.083   .     S
C103   C105    1.401   .     A
C103   C287    1.383   .     S
C106   N115    1.364   .     A
C106   H107    1.076   .     S
C106   C170    1.416   .     S
C108   H109    1.082   .     S
C108   N110    1.367   .     A
N110   C111    1.367   .     A
C111   H112    1.082   .     S
C113   N115    1.367   .     A
C113   H114    1.082   .     S
C113   C173    1.416   .     S
N116   O118    1.302   .     A
N116   O117    1.300   .     A
N119   O120    1.301   .     A
N119   O121    1.301   .     A
N122   C640    1.442   1_554 S
N122   O682    1.301   1_554 S
O123   N184    1.302   .     S
O124   N680    1.301   .     S
O125   Cu131   1.965   .     S
O125   C127    1.291   .     A
O126   C127    1.290   .     A
O126   Cu132   1.964   .     S
C127   C167    1.450   .     S
O128   Cu131   1.947   .     S
O128   C130    1.294   .     A
O129   Cu132   1.934   .     S
O129   C130    1.299   .     A
C130   C154    1.481   .     S
Cu131  N172    2.010   .     S
Cu131  Cu132   2.675   .     S
Cu131  O135    1.934   .     S
Cu131  O133    1.964   .     S
Cu132  N177    2.010   .     S
Cu132  O136    1.947   .     S
Cu132  O134    1.965   .     S
O133   C137    1.290   .     A
O134   C137    1.291   .     A
O135   C138    1.292   .     A
O136   C138    1.295   .     A
C137   C162    1.450   .     S
C138   C142    1.462   .     S
C139   C153    1.394   .     A
C139   H699    1.081   1_554 S
C139   C707    1.412   1_554 S
H140   C153    1.083   .     S
H141   C697    1.081   .     S
C142   C153    1.396   .     A
C142   C152    1.392   .     A
C143   C144    1.407   .     A
C143   N181    1.433   .     S
C143   C154    1.422   .     A
C144   C703    1.396   .     S
C144   N742    1.442   .     S
C145   H156    1.077   .     S
C145   C702    1.396   1_554 S
C145   C704    1.413   1_554 S
C146   C147    1.411   .     A
C146   C703    1.413   .     S
C146   C706    1.420   .     S
C147   C151    1.412   .     A
C147   C154    1.420   .     A
C148   C152    1.404   .     A
C148   C704    1.420   1_554 S
C148   C707    1.422   1_554 S
C149   C150    1.410   .     A
C149   C697    1.412   .     S
C149   C706    1.422   .     S
C150   C151    1.401   .     A
C150   N178    1.442   .     S
C151   H157    1.081   .     S
C152   H155    1.078   .     S
C158   H159    1.083   .     S
C158   C167    1.401   .     A
C158   C346    1.383   .     S
C160   C162    1.401   .     A
C160   H161    1.083   .     S
C160   C530    1.383   1_545 S
C162   C163    1.401   .     A
C163   H164    1.083   .     S
C163   C537    1.383   1_545 S
C165   H166    1.083   .     S
C165   C167    1.401   .     A
C165   C349    1.383   .     S
C168   N177    1.364   .     A
C168   H169    1.076   .     S
C168   C46     1.416   1_655 S
C170   H171    1.082   .     S
C170   N172    1.367   .     A
N172   C173    1.367   .     A
C173   H174    1.082   .     S
C175   N177    1.367   .     A
C175   H176    1.082   .     S
C175   C49     1.416   1_655 S
N178   O180    1.302   .     A
N178   O179    1.300   .     A
N181   O182    1.301   .     A
N181   O183    1.301   .     A
N184   C702    1.442   1_554 S
N184   O744    1.301   1_554 S
O185   N60     1.302   1_655 S
O186   N742    1.301   .     S
O187   Cu193   1.965   .     S
O187   C189    1.291   .     A
O188   C189    1.290   .     A
O188   Cu194   1.964   .     S
C189   C229    1.450   .     S
O190   Cu193   1.947   .     S
O190   C192    1.294   .     A
O191   Cu194   1.934   .     S
O191   C192    1.299   .     A
C192   C216    1.481   .     S
Cu193  N234    2.010   .     S
Cu193  Cu194   2.675   .     S
Cu193  O197    1.934   .     S
Cu193  O195    1.964   .     S
Cu194  N239    2.010   .     S
Cu194  O198    1.947   .     S
Cu194  O196    1.965   .     S
O195   C199    1.290   .     A
O196   C199    1.291   .     A
O197   C200    1.292   .     A
O198   C200    1.295   .     A
C199   C224    1.450   .     S
C200   C204    1.462   .     S
C201   C215    1.394   .     A
C201   H761    1.081   1_554 S
C201   C769    1.412   1_554 S
H202   C215    1.083   .     S
H203   C759    1.081   .     S
C204   C215    1.396   .     A
C204   C214    1.392   .     A
C205   C206    1.407   .     A
C205   N243    1.433   .     S
C205   C216    1.422   .     A
C206   C765    1.396   .     S
C206   N804    1.442   .     S
C207   H218    1.077   .     S
C207   C764    1.396   1_554 S
C207   C766    1.413   1_554 S
C208   C209    1.411   .     A
C208   C765    1.413   .     S
C208   C768    1.420   .     S
C209   C213    1.412   .     A
C209   C216    1.420   .     A
C210   C214    1.404   .     A
C210   C766    1.420   1_554 S
C210   C769    1.422   1_554 S
C211   C212    1.410   .     A
C211   C759    1.412   .     S
C211   C768    1.422   .     S
C212   C213    1.401   .     A
C212   N240    1.442   .     S
C213   H219    1.081   .     S
C214   H217    1.078   .     S
C220   H221    1.083   .     S
C220   C229    1.401   .     A
C220   C408    1.383   .     S
C222   C224    1.401   .     A
C222   H223    1.083   .     S
C224   C225    1.401   .     A
C225   H226    1.083   .     S
C227   H228    1.083   .     S
C227   C229    1.401   .     A
C227   C411    1.383   .     S
C230   N239    1.364   .     A
C230   H231    1.076   .     S
C230   C294    1.416   .     S
C232   H233    1.082   .     S
C232   N234    1.367   .     A
C232   C354    1.416   1_455 S
N234   C235    1.367   .     A
C235   H236    1.082   .     S
C235   C361    1.416   1_455 S
C237   N239    1.367   .     A
C237   H238    1.082   .     S
C237   C297    1.416   .     S
N240   O242    1.302   .     A
N240   O241    1.300   .     A
N243   O244    1.301   .     A
N243   O245    1.301   .     A
N246   C764    1.442   1_554 S
N246   O371    1.302   1_455 S
N246   O806    1.301   1_554 S
O247   N308    1.302   .     S
O248   N804    1.301   .     S
O249   Cu255   1.965   .     S
O249   C251    1.291   .     A
O250   C251    1.290   .     A
O250   Cu256   1.964   .     S
C251   C291    1.450   .     S
O252   Cu255   1.947   .     S
O252   C254    1.294   .     A
O253   Cu256   1.934   .     S
O253   C254    1.299   .     A
C254   C278    1.481   .     S
Cu255  N296    2.010   .     S
Cu255  Cu256   2.675   .     S
Cu255  O259    1.934   .     S
Cu255  O257    1.964   .     S
Cu256  N301    2.010   .     S
Cu256  O260    1.947   .     S
Cu256  O258    1.965   .     S
O257   C261    1.290   .     A
O258   C261    1.291   .     A
O259   C262    1.292   .     A
O260   C262    1.295   .     A
C261   C286    1.450   .     S
C262   C266    1.462   .     S
C263   C277    1.394   .     A
C263   H823    1.081   1_554 S
C263   C831    1.412   1_554 S
H264   C277    1.083   .     S
H265   C821    1.081   .     S
C266   C277    1.396   .     A
C266   C276    1.392   .     A
C267   C268    1.407   .     A
C267   N305    1.433   .     S
C267   C278    1.422   .     A
C268   C827    1.396   .     S
C268   N866    1.442   .     S
C269   H280    1.077   .     S
C269   C826    1.396   1_554 S
C269   C828    1.413   1_554 S
C270   C271    1.411   .     A
C270   C827    1.413   .     S
C270   C830    1.420   .     S
C271   C275    1.412   .     A
C271   C278    1.420   .     A
C272   C276    1.404   .     A
C272   C828    1.420   1_554 S
C272   C831    1.422   1_554 S
C273   C274    1.410   .     A
C273   C821    1.412   .     S
C273   C830    1.422   .     S
C274   C275    1.401   .     A
C274   N302    1.442   .     S
C275   H281    1.081   .     S
C276   H279    1.078   .     S
C282   H283    1.083   .     S
C282   C291    1.401   .     A
C282   C470    1.383   .     S
C284   C286    1.401   .     A
C284   H285    1.083   .     S
C286   C287    1.401   .     A
C287   H288    1.083   .     S
C289   H290    1.083   .     S
C289   C291    1.401   .     A
C289   C473    1.383   .     S
C292   N301    1.364   .     A
C292   H293    1.076   .     S
C292   C356    1.416   .     S
C294   H295    1.082   .     S
C294   N296    1.367   .     A
N296   C297    1.367   .     A
C297   H298    1.082   .     S
C299   N301    1.367   .     A
C299   H300    1.082   .     S
C299   C359    1.416   .     S
N302   O304    1.302   .     A
N302   O303    1.300   .     A
N305   O306    1.301   .     A
N305   O307    1.301   .     A
N308   C826    1.442   1_554 S
N308   O868    1.301   1_554 S
O309   N370    1.302   .     S
O310   N866    1.301   .     S
O311   Cu317   1.965   .     S
O311   C313    1.291   .     A
O312   C313    1.290   .     A
O312   Cu318   1.964   .     S
C313   C353    1.450   .     S
O314   Cu317   1.947   .     S
O314   C316    1.294   .     A
O315   Cu318   1.934   .     S
O315   C316    1.299   .     A
C316   C340    1.481   .     S
Cu317  N358    2.010   .     S
Cu317  Cu318   2.675   .     S
Cu317  O321    1.934   .     S
Cu317  O319    1.964   .     S
Cu318  N363    2.010   .     S
Cu318  O322    1.947   .     S
Cu318  O320    1.965   .     S
O319   C323    1.290   .     A
O320   C323    1.291   .     A
O321   C324    1.292   .     A
O322   C324    1.295   .     A
C323   C348    1.450   .     S
C324   C328    1.462   .     S
C325   C339    1.394   .     A
C325   H885    1.081   1_554 S
C325   C893    1.412   1_554 S
H326   C339    1.083   .     S
H327   C883    1.081   .     S
C328   C339    1.396   .     A
C328   C338    1.392   .     A
C329   C330    1.407   .     A
C329   N367    1.433   .     S
C329   C340    1.422   .     A
C330   C889    1.396   .     S
C330   N928    1.442   .     S
C331   H342    1.077   .     S
C331   C888    1.396   1_554 S
C331   C890    1.413   1_554 S
C332   C333    1.411   .     A
C332   C889    1.413   .     S
C332   C892    1.420   .     S
C333   C337    1.412   .     A
C333   C340    1.420   .     A
C334   C338    1.404   .     A
C334   C890    1.420   1_554 S
C334   C893    1.422   1_554 S
C335   C336    1.410   .     A
C335   C883    1.412   .     S
C335   C892    1.422   .     S
C336   C337    1.401   .     A
C336   N364    1.442   .     S
C337   H343    1.081   .     S
C338   H341    1.078   .     S
C344   H345    1.083   .     S
C344   C353    1.401   .     A
C344   C532    1.383   .     S
C346   C348    1.401   .     A
C346   H347    1.083   .     S
C348   C349    1.401   .     A
C349   H350    1.083   .     S
C351   H352    1.083   .     S
C351   C353    1.401   .     A
C351   C535    1.383   .     S
C354   N363    1.364   .     A
C354   H355    1.076   .     S
C354   C232    1.416   1_655 S
C356   H357    1.082   .     S
C356   N358    1.367   .     A
N358   C359    1.367   .     A
C359   H360    1.082   .     S
C361   N363    1.367   .     A
C361   H362    1.082   .     S
C361   C235    1.416   1_655 S
N364   O366    1.302   .     A
N364   O365    1.300   .     A
N367   O368    1.301   .     A
N367   O369    1.301   .     A
N370   C888    1.442   1_554 S
N370   O930    1.301   1_554 S
O371   N246    1.302   1_655 S
O372   N928    1.301   .     S
O373   Cu379   1.965   .     S
O373   C375    1.291   .     A
O374   C375    1.290   .     A
O374   Cu380   1.964   .     S
C375   C415    1.450   .     S
O376   Cu379   1.947   .     S
O376   C378    1.294   .     A
O377   Cu380   1.934   .     S
O377   C378    1.299   .     A
C378   C402    1.481   .     S
Cu379  N420    2.010   .     S
Cu379  Cu380   2.675   .     S
Cu379  O383    1.934   .     S
Cu379  O381    1.964   .     S
Cu380  N425    2.010   .     S
Cu380  O384    1.947   .     S
Cu380  O382    1.965   .     S
O381   C385    1.290   .     A
O382   C385    1.291   .     A
O383   C386    1.292   .     A
O384   C386    1.295   .     A
C385   C410    1.450   .     S
C386   C390    1.462   .     S
C387   C401    1.394   .     A
C387   H947    1.081   1_554 S
C387   C955    1.412   1_554 S
H388   C401    1.083   .     S
H389   C945    1.081   .     S
C390   C401    1.396   .     A
C390   C400    1.392   .     A
C391   C392    1.407   .     A
C391   N429    1.433   .     S
C391   C402    1.422   .     A
C392   C951    1.396   .     S
C392   N990    1.442   .     S
C393   H404    1.077   .     S
C393   C950    1.396   1_554 S
C393   C952    1.413   1_554 S
C394   C395    1.411   .     A
C394   C951    1.413   .     S
C394   C954    1.420   .     S
C395   C399    1.412   .     A
C395   C402    1.420   .     A
C396   C400    1.404   .     A
C396   C952    1.420   1_554 S
C396   C955    1.422   1_554 S
C397   C398    1.410   .     A
C397   C945    1.412   .     S
C397   C954    1.422   .     S
C398   C399    1.401   .     A
C398   N426    1.442   .     S
C399   H405    1.081   .     S
C400   H403    1.078   .     S
C406   H407    1.083   .     S
C406   C415    1.401   .     A
C406   C36     1.383   1_565 S
C408   C410    1.401   .     A
C408   H409    1.083   .     S
C410   C411    1.401   .     A
C411   H412    1.083   .     S
C413   H414    1.083   .     S
C413   C415    1.401   .     A
C413   C39     1.383   1_565 S
C416   N425    1.364   .     A
C416   H417    1.076   .     S
C416   C480    1.416   .     S
C418   H419    1.082   .     S
C418   N420    1.367   .     A
C418   C540    1.416   1_455 S
N420   C421    1.367   .     A
C421   H422    1.082   .     S
C421   C547    1.416   1_455 S
C423   N425    1.367   .     A
C423   H424    1.082   .     S
C423   C483    1.416   .     S
N426   O428    1.302   .     A
N426   O427    1.300   .     A
N429   O430    1.301   .     A
N429   O431    1.301   .     A
N432   C950    1.442   1_554 S
N432   O557    1.302   1_455 S
N432   O992    1.301   1_554 S
O433   N494    1.302   .     S
O434   N990    1.301   .     S
O435   Cu441   1.965   .     S
O435   C437    1.291   .     A
O436   C437    1.290   .     A
O436   Cu442   1.964   .     S
C437   C477    1.450   .     S
O438   Cu441   1.947   .     S
O438   C440    1.294   .     A
O439   Cu442   1.934   .     S
O439   C440    1.299   .     A
C440   C464    1.481   .     S
Cu441  N482    2.010   .     S
Cu441  Cu442   2.675   .     S
Cu441  O445    1.934   .     S
Cu441  O443    1.964   .     S
Cu442  N487    2.010   .     S
Cu442  O446    1.947   .     S
Cu442  O444    1.965   .     S
O443   C447    1.290   .     A
O444   C447    1.291   .     A
O445   C448    1.292   .     A
O446   C448    1.295   .     A
C447   C472    1.450   .     S
C448   C452    1.462   .     S
C449   C463    1.394   .     A
C449   H1009   1.081   1_554 S
C449   C1017   1.412   1_554 S
H450   C463    1.083   .     S
H451   C1007   1.081   .     S
C452   C463    1.396   .     A
C452   C462    1.392   .     A
C453   C454    1.407   .     A
C453   N491    1.433   .     S
C453   C464    1.422   .     A
C454   C1013   1.396   .     S
C454   N1052   1.442   .     S
C455   H466    1.077   .     S
C455   C1012   1.396   1_554 S
C455   C1014   1.413   1_554 S
C456   C457    1.411   .     A
C456   C1013   1.413   .     S
C456   C1016   1.420   .     S
C457   C461    1.412   .     A
C457   C464    1.420   .     A
C458   C462    1.404   .     A
C458   C1014   1.420   1_554 S
C458   C1017   1.422   1_554 S
C459   C460    1.410   .     A
C459   C1007   1.412   .     S
C459   C1016   1.422   .     S
C460   C461    1.401   .     A
C460   N488    1.442   .     S
C461   H467    1.081   .     S
C462   H465    1.078   .     S
C468   H469    1.083   .     S
C468   C477    1.401   .     A
C468   C98     1.383   1_565 S
C470   C472    1.401   .     A
C470   H471    1.083   .     S
C472   C473    1.401   .     A
C473   H474    1.083   .     S
C475   H476    1.083   .     S
C475   C477    1.401   .     A
C475   C101    1.383   1_565 S
C478   N487    1.364   .     A
C478   H479    1.076   .     S
C478   C542    1.416   .     S
C480   H481    1.082   .     S
C480   N482    1.367   .     A
N482   C483    1.367   .     A
C483   H484    1.082   .     S
C485   N487    1.367   .     A
C485   H486    1.082   .     S
C485   C545    1.416   .     S
N488   O490    1.302   .     A
N488   O489    1.300   .     A
N491   O492    1.301   .     A
N491   O493    1.301   .     A
N494   C1012   1.442   1_554 S
N494   O1054   1.301   1_554 S
O495   N556    1.302   .     S
O496   N1052   1.301   .     S
O497   Cu503   1.965   .     S
O497   C499    1.291   .     A
O498   C499    1.290   .     A
O498   Cu504   1.964   .     S
C499   C539    1.450   .     S
O500   Cu503   1.947   .     S
O500   C502    1.294   .     A
O501   Cu504   1.934   .     S
O501   C502    1.299   .     A
C502   C526    1.481   .     S
Cu503  N544    2.010   .     S
Cu503  Cu504   2.675   .     S
Cu503  O507    1.934   .     S
Cu503  O505    1.964   .     S
Cu504  N549    2.010   .     S
Cu504  O508    1.947   .     S
Cu504  O506    1.965   .     S
O505   C509    1.290   .     A
O506   C509    1.291   .     A
O507   C510    1.292   .     A
O508   C510    1.295   .     A
C509   C534    1.450   .     S
C510   C514    1.462   .     S
C511   C525    1.394   .     A
C511   H1071   1.081   1_554 S
C511   C1079   1.412   1_554 S
H512   C525    1.083   .     S
H513   C1069   1.081   .     S
C514   C525    1.396   .     A
C514   C524    1.392   .     A
C515   C516    1.407   .     A
C515   N553    1.433   .     S
C515   C526    1.422   .     A
C516   C1075   1.396   .     S
C516   N1114   1.442   .     S
C517   H528    1.077   .     S
C517   C1074   1.396   1_554 S
C517   C1076   1.413   1_554 S
C518   C519    1.411   .     A
C518   C1075   1.413   .     S
C518   C1078   1.420   .     S
C519   C523    1.412   .     A
C519   C526    1.420   .     A
C520   C524    1.404   .     A
C520   C1076   1.420   1_554 S
C520   C1079   1.422   1_554 S
C521   C522    1.410   .     A
C521   C1069   1.412   .     S
C521   C1078   1.422   .     S
C522   C523    1.401   .     A
C522   N550    1.442   .     S
C523   H529    1.081   .     S
C524   H527    1.078   .     S
C530   H531    1.083   .     S
C530   C539    1.401   .     A
C530   C160    1.383   1_565 S
C532   C534    1.401   .     A
C532   H533    1.083   .     S
C534   C535    1.401   .     A
C535   H536    1.083   .     S
C537   H538    1.083   .     S
C537   C539    1.401   .     A
C537   C163    1.383   1_565 S
C540   N549    1.364   .     A
C540   H541    1.076   .     S
C540   C418    1.416   1_655 S
C542   H543    1.082   .     S
C542   N544    1.367   .     A
N544   C545    1.367   .     A
C545   H546    1.082   .     S
C547   N549    1.367   .     A
C547   H548    1.082   .     S
C547   C421    1.416   1_655 S
N550   O552    1.302   .     A
N550   O551    1.300   .     A
N553   O554    1.301   .     A
N553   O555    1.301   .     A
N556   C1074   1.442   1_554 S
N556   O1116   1.301   1_554 S
O557   N432    1.302   1_655 S
O558   N1114   1.301   .     S
O559   Cu565   1.965   .     S
O559   C561    1.291   .     A
O560   C561    1.290   .     A
O560   Cu566   1.964   .     S
C561   C601    1.450   .     S
O562   Cu565   1.947   .     S
O562   C564    1.294   .     A
O563   Cu566   1.934   .     S
O563   C564    1.299   .     A
C564   C588    1.481   .     S
Cu565  N606    2.010   .     S
Cu565  Cu566   2.675   .     S
Cu565  O569    1.934   .     S
Cu565  O567    1.964   .     S
Cu566  N611    2.010   .     S
Cu566  O570    1.947   .     S
Cu566  O568    1.965   .     S
O567   C571    1.290   .     A
O568   C571    1.291   .     A
O569   C572    1.292   .     A
O570   C572    1.295   .     A
C571   C596    1.450   .     S
C572   C576    1.462   .     S
C573   C587    1.394   .     A
H574   C587    1.083   .     S
H575   C15     1.081   1_556 S
C576   C587    1.396   .     A
C576   C586    1.392   .     A
C577   C578    1.407   .     A
C577   N615    1.433   .     S
C577   C588    1.422   .     A
C578   C21     1.396   1_556 S
C578   N60     1.442   1_556 S
C579   H590    1.077   .     S
C580   C581    1.411   .     A
C580   C21     1.413   1_556 S
C580   C24     1.420   1_556 S
C581   C585    1.412   .     A
C581   C588    1.420   .     A
C582   C586    1.404   .     A
C583   C584    1.410   .     A
C583   C15     1.412   1_556 S
C583   C24     1.422   1_556 S
C584   C585    1.401   .     A
C584   N612    1.442   .     S
C585   H591    1.081   .     S
C586   H589    1.078   .     S
C592   H593    1.083   .     S
C592   C601    1.401   .     A
C592   C780    1.383   .     S
C594   C596    1.401   .     A
C594   H595    1.083   .     S
C594   C964    1.383   1_545 S
C596   C597    1.401   .     A
C597   H598    1.083   .     S
C597   C971    1.383   1_545 S
C599   H600    1.083   .     S
C599   C601    1.401   .     A
C599   C783    1.383   .     S
C602   N611    1.364   .     A
C602   H603    1.076   .     S
C602   C666    1.416   .     S
C604   H605    1.082   .     S
C604   N606    1.367   .     A
C604   C726    1.416   1_455 S
N606   C607    1.367   .     A
C607   H608    1.082   .     S
C607   C733    1.416   1_455 S
C609   N611    1.367   .     A
C609   H610    1.082   .     S
C609   C669    1.416   .     S
N612   O614    1.302   .     A
N612   O613    1.300   .     A
N615   O616    1.301   .     A
N615   O617    1.301   .     A
N618   O743    1.302   1_455 S
O619   N680    1.302   .     S
O620   N60     1.301   1_556 S
O621   Cu627   1.965   .     S
O621   C623    1.291   .     A
O622   C623    1.290   .     A
O622   Cu628   1.964   .     S
C623   C663    1.450   .     S
O624   Cu627   1.947   .     S
O624   C626    1.294   .     A
O625   Cu628   1.934   .     S
O625   C626    1.299   .     A
C626   C650    1.481   .     S
Cu627  N668    2.010   .     S
Cu627  Cu628   2.675   .     S
Cu627  O631    1.934   .     S
Cu627  O629    1.964   .     S
Cu628  N673    2.010   .     S
Cu628  O632    1.947   .     S
Cu628  O630    1.965   .     S
O629   C633    1.290   .     A
O630   C633    1.291   .     A
O631   C634    1.292   .     A
O632   C634    1.295   .     A
C633   C658    1.450   .     S
C634   C638    1.462   .     S
C635   C649    1.394   .     A
H636   C649    1.083   .     S
H637   C77     1.081   1_556 S
C638   C649    1.396   .     A
C638   C648    1.392   .     A
C639   C640    1.407   .     A
C639   N677    1.433   .     S
C639   C650    1.422   .     A
C640   C83     1.396   1_556 S
C640   N122    1.442   1_556 S
C641   H652    1.077   .     S
C642   C643    1.411   .     A
C642   C83     1.413   1_556 S
C642   C86     1.420   1_556 S
C643   C647    1.412   .     A
C643   C650    1.420   .     A
C644   C648    1.404   .     A
C645   C646    1.410   .     A
C645   C77     1.412   1_556 S
C645   C86     1.422   1_556 S
C646   C647    1.401   .     A
C646   N674    1.442   .     S
C647   H653    1.081   .     S
C648   H651    1.078   .     S
C654   H655    1.083   .     S
C654   C663    1.401   .     A
C654   C842    1.383   .     S
C656   C658    1.401   .     A
C656   H657    1.083   .     S
C656   C1026   1.383   1_545 S
C658   C659    1.401   .     A
C659   H660    1.083   .     S
C659   C1033   1.383   1_545 S
C661   H662    1.083   .     S
C661   C663    1.401   .     A
C661   C845    1.383   .     S
C664   N673    1.364   .     A
C664   H665    1.076   .     S
C664   C728    1.416   .     S
C666   H667    1.082   .     S
C666   N668    1.367   .     A
N668   C669    1.367   .     A
C669   H670    1.082   .     S
C671   N673    1.367   .     A
C671   H672    1.082   .     S
C671   C731    1.416   .     S
N674   O676    1.302   .     A
N674   O675    1.300   .     A
N677   O678    1.301   .     A
N677   O679    1.301   .     A
O681   N742    1.302   .     S
O682   N122    1.301   1_556 S
O683   Cu689   1.965   .     S
O683   C685    1.291   .     A
O684   C685    1.290   .     A
O684   Cu690   1.964   .     S
C685   C725    1.450   .     S
O686   Cu689   1.947   .     S
O686   C688    1.294   .     A
O687   Cu690   1.934   .     S
O687   C688    1.299   .     A
C688   C712    1.481   .     S
Cu689  N730    2.010   .     S
Cu689  Cu690   2.675   .     S
Cu689  O693    1.934   .     S
Cu689  O691    1.964   .     S
Cu690  N735    2.010   .     S
Cu690  O694    1.947   .     S
Cu690  O692    1.965   .     S
O691   C695    1.290   .     A
O692   C695    1.291   .     A
O693   C696    1.292   .     A
O694   C696    1.295   .     A
C695   C720    1.450   .     S
C696   C700    1.462   .     S
C697   C711    1.394   .     A
H698   C711    1.083   .     S
H699   C139    1.081   1_556 S
C700   C711    1.396   .     A
C700   C710    1.392   .     A
C701   C702    1.407   .     A
C701   N739    1.433   .     S
C701   C712    1.422   .     A
C702   C145    1.396   1_556 S
C702   N184    1.442   1_556 S
C703   H714    1.077   .     S
C704   C705    1.411   .     A
C704   C145    1.413   1_556 S
C704   C148    1.420   1_556 S
C705   C709    1.412   .     A
C705   C712    1.420   .     A
C706   C710    1.404   .     A
C707   C708    1.410   .     A
C707   C139    1.412   1_556 S
C707   C148    1.422   1_556 S
C708   C709    1.401   .     A
C708   N736    1.442   .     S
C709   H715    1.081   .     S
C710   H713    1.078   .     S
C716   H717    1.083   .     S
C716   C725    1.401   .     A
C716   C904    1.383   .     S
C718   C720    1.401   .     A
C718   H719    1.083   .     S
C718   C1088   1.383   1_545 S
C720   C721    1.401   .     A
C721   H722    1.083   .     S
C721   C1095   1.383   1_545 S
C723   H724    1.083   .     S
C723   C725    1.401   .     A
C723   C907    1.383   .     S
C726   N735    1.364   .     A
C726   H727    1.076   .     S
C726   C604    1.416   1_655 S
C728   H729    1.082   .     S
C728   N730    1.367   .     A
N730   C731    1.367   .     A
C731   H732    1.082   .     S
C733   N735    1.367   .     A
C733   H734    1.082   .     S
C733   C607    1.416   1_655 S
N736   O738    1.302   .     A
N736   O737    1.300   .     A
N739   O740    1.301   .     A
N739   O741    1.301   .     A
O743   N618    1.302   1_655 S
O744   N184    1.301   1_556 S
O745   Cu751   1.965   .     S
O745   C747    1.291   .     A
O746   C747    1.290   .     A
O746   Cu752   1.964   .     S
C747   C787    1.450   .     S
O748   Cu751   1.947   .     S
O748   C750    1.294   .     A
O749   Cu752   1.934   .     S
O749   C750    1.299   .     A
C750   C774    1.481   .     S
Cu751  N792    2.010   .     S
Cu751  Cu752   2.675   .     S
Cu751  O755    1.934   .     S
Cu751  O753    1.964   .     S
Cu752  N797    2.010   .     S
Cu752  O756    1.947   .     S
Cu752  O754    1.965   .     S
O753   C757    1.290   .     A
O754   C757    1.291   .     A
O755   C758    1.292   .     A
O756   C758    1.295   .     A
C757   C782    1.450   .     S
C758   C762    1.462   .     S
C759   C773    1.394   .     A
H760   C773    1.083   .     S
H761   C201    1.081   1_556 S
C762   C773    1.396   .     A
C762   C772    1.392   .     A
C763   C764    1.407   .     A
C763   N801    1.433   .     S
C763   C774    1.422   .     A
C764   C207    1.396   1_556 S
C764   N246    1.442   1_556 S
C765   H776    1.077   .     S
C766   C767    1.411   .     A
C766   C207    1.413   1_556 S
C766   C210    1.420   1_556 S
C767   C771    1.412   .     A
C767   C774    1.420   .     A
C768   C772    1.404   .     A
C769   C770    1.410   .     A
C769   C201    1.412   1_556 S
C769   C210    1.422   1_556 S
C770   C771    1.401   .     A
C770   N798    1.442   .     S
C771   H777    1.081   .     S
C772   H775    1.078   .     S
C778   H779    1.083   .     S
C778   C787    1.401   .     A
C778   C966    1.383   .     S
C780   C782    1.401   .     A
C780   H781    1.083   .     S
C782   C783    1.401   .     A
C783   H784    1.083   .     S
C785   H786    1.083   .     S
C785   C787    1.401   .     A
C785   C969    1.383   .     S
C788   N797    1.364   .     A
C788   H789    1.076   .     S
C788   C852    1.416   .     S
C790   H791    1.082   .     S
C790   N792    1.367   .     A
C790   C912    1.416   1_455 S
N792   C793    1.367   .     A
C793   H794    1.082   .     S
C793   C919    1.416   1_455 S
C795   N797    1.367   .     A
C795   H796    1.082   .     S
C795   C855    1.416   .     S
N798   O800    1.302   .     A
N798   O799    1.300   .     A
N801   O802    1.301   .     A
N801   O803    1.301   .     A
N804   O929    1.302   1_455 S
O805   N866    1.302   .     S
O806   N246    1.301   1_556 S
O807   Cu813   1.965   .     S
O807   C809    1.291   .     A
O808   C809    1.290   .     A
O808   Cu814   1.964   .     S
C809   C849    1.450   .     S
O810   Cu813   1.947   .     S
O810   C812    1.294   .     A
O811   Cu814   1.934   .     S
O811   C812    1.299   .     A
C812   C836    1.481   .     S
Cu813  N854    2.010   .     S
Cu813  Cu814   2.675   .     S
Cu813  O817    1.934   .     S
Cu813  O815    1.964   .     S
Cu814  N859    2.010   .     S
Cu814  O818    1.947   .     S
Cu814  O816    1.965   .     S
O815   C819    1.290   .     A
O816   C819    1.291   .     A
O817   C820    1.292   .     A
O818   C820    1.295   .     A
C819   C844    1.450   .     S
C820   C824    1.462   .     S
C821   C835    1.394   .     A
H822   C835    1.083   .     S
H823   C263    1.081   1_556 S
C824   C835    1.396   .     A
C824   C834    1.392   .     A
C825   C826    1.407   .     A
C825   N863    1.433   .     S
C825   C836    1.422   .     A
C826   C269    1.396   1_556 S
C826   N308    1.442   1_556 S
C827   H838    1.077   .     S
C828   C829    1.411   .     A
C828   C269    1.413   1_556 S
C828   C272    1.420   1_556 S
C829   C833    1.412   .     A
C829   C836    1.420   .     A
C830   C834    1.404   .     A
C831   C832    1.410   .     A
C831   C263    1.412   1_556 S
C831   C272    1.422   1_556 S
C832   C833    1.401   .     A
C832   N860    1.442   .     S
C833   H839    1.081   .     S
C834   H837    1.078   .     S
C840   H841    1.083   .     S
C840   C849    1.401   .     A
C840   C1028   1.383   .     S
C842   C844    1.401   .     A
C842   H843    1.083   .     S
C844   C845    1.401   .     A
C845   H846    1.083   .     S
C847   H848    1.083   .     S
C847   C849    1.401   .     A
C847   C1031   1.383   .     S
C850   N859    1.364   .     A
C850   H851    1.076   .     S
C850   C914    1.416   .     S
C852   H853    1.082   .     S
C852   N854    1.367   .     A
N854   C855    1.367   .     A
C855   H856    1.082   .     S
C857   N859    1.367   .     A
C857   H858    1.082   .     S
C857   C917    1.416   .     S
N860   O862    1.302   .     A
N860   O861    1.300   .     A
N863   O864    1.301   .     A
N863   O865    1.301   .     A
O867   N928    1.302   .     S
O868   N308    1.301   1_556 S
O869   Cu875   1.965   .     S
O869   C871    1.291   .     A
O870   C871    1.290   .     A
O870   Cu876   1.964   .     S
C871   C911    1.450   .     S
O872   Cu875   1.947   .     S
O872   C874    1.294   .     A
O873   Cu876   1.934   .     S
O873   C874    1.299   .     A
C874   C898    1.481   .     S
Cu875  N916    2.010   .     S
Cu875  Cu876   2.675   .     S
Cu875  O879    1.934   .     S
Cu875  O877    1.964   .     S
Cu876  N921    2.010   .     S
Cu876  O880    1.947   .     S
Cu876  O878    1.965   .     S
O877   C881    1.290   .     A
O878   C881    1.291   .     A
O879   C882    1.292   .     A
O880   C882    1.295   .     A
C881   C906    1.450   .     S
C882   C886    1.462   .     S
C883   C897    1.394   .     A
H884   C897    1.083   .     S
H885   C325    1.081   1_556 S
C886   C897    1.396   .     A
C886   C896    1.392   .     A
C887   C888    1.407   .     A
C887   N925    1.433   .     S
C887   C898    1.422   .     A
C888   C331    1.396   1_556 S
C888   N370    1.442   1_556 S
C889   H900    1.077   .     S
C890   C891    1.411   .     A
C890   C331    1.413   1_556 S
C890   C334    1.420   1_556 S
C891   C895    1.412   .     A
C891   C898    1.420   .     A
C892   C896    1.404   .     A
C893   C894    1.410   .     A
C893   C325    1.412   1_556 S
C893   C334    1.422   1_556 S
C894   C895    1.401   .     A
C894   N922    1.442   .     S
C895   H901    1.081   .     S
C896   H899    1.078   .     S
C902   H903    1.083   .     S
C902   C911    1.401   .     A
C902   C1090   1.383   .     S
C904   C906    1.401   .     A
C904   H905    1.083   .     S
C906   C907    1.401   .     A
C907   H908    1.083   .     S
C909   H910    1.083   .     S
C909   C911    1.401   .     A
C909   C1093   1.383   .     S
C912   N921    1.364   .     A
C912   H913    1.076   .     S
C912   C790    1.416   1_655 S
C914   H915    1.082   .     S
C914   N916    1.367   .     A
N916   C917    1.367   .     A
C917   H918    1.082   .     S
C919   N921    1.367   .     A
C919   H920    1.082   .     S
C919   C793    1.416   1_655 S
N922   O924    1.302   .     A
N922   O923    1.300   .     A
N925   O926    1.301   .     A
N925   O927    1.301   .     A
O929   N804    1.302   1_655 S
O930   N370    1.301   1_556 S
O931   Cu937   1.965   .     S
O931   C933    1.291   .     A
O932   C933    1.290   .     A
O932   Cu938   1.964   .     S
C933   C973    1.450   .     S
O934   Cu937   1.947   .     S
O934   C936    1.294   .     A
O935   Cu938   1.934   .     S
O935   C936    1.299   .     A
C936   C960    1.481   .     S
Cu937  N978    2.010   .     S
Cu937  Cu938   2.675   .     S
Cu937  O941    1.934   .     S
Cu937  O939    1.964   .     S
Cu938  N983    2.010   .     S
Cu938  O942    1.947   .     S
Cu938  O940    1.965   .     S
O939   C943    1.290   .     A
O940   C943    1.291   .     A
O941   C944    1.292   .     A
O942   C944    1.295   .     A
C943   C968    1.450   .     S
C944   C948    1.462   .     S
C945   C959    1.394   .     A
H946   C959    1.083   .     S
H947   C387    1.081   1_556 S
C948   C959    1.396   .     A
C948   C958    1.392   .     A
C949   C950    1.407   .     A
C949   N987    1.433   .     S
C949   C960    1.422   .     A
C950   C393    1.396   1_556 S
C950   N432    1.442   1_556 S
C951   H962    1.077   .     S
C952   C953    1.411   .     A
C952   C393    1.413   1_556 S
C952   C396    1.420   1_556 S
C953   C957    1.412   .     A
C953   C960    1.420   .     A
C954   C958    1.404   .     A
C955   C956    1.410   .     A
C955   C387    1.412   1_556 S
C955   C396    1.422   1_556 S
C956   C957    1.401   .     A
C956   N984    1.442   .     S
C957   H963    1.081   .     S
C958   H961    1.078   .     S
C964   H965    1.083   .     S
C964   C973    1.401   .     A
C964   C594    1.383   1_565 S
C966   C968    1.401   .     A
C966   H967    1.083   .     S
C968   C969    1.401   .     A
C969   H970    1.083   .     S
C971   H972    1.083   .     S
C971   C973    1.401   .     A
C971   C597    1.383   1_565 S
C974   N983    1.364   .     A
C974   H975    1.076   .     S
C974   C1038   1.416   .     S
C976   H977    1.082   .     S
C976   N978    1.367   .     A
C976   C1098   1.416   1_455 S
N978   C979    1.367   .     A
C979   H980    1.082   .     S
C979   C1105   1.416   1_455 S
C981   N983    1.367   .     A
C981   H982    1.082   .     S
C981   C1041   1.416   .     S
N984   O986    1.302   .     A
N984   O985    1.300   .     A
N987   O988    1.301   .     A
N987   O989    1.301   .     A
N990   O1115   1.302   1_455 S
O991   N1052   1.302   .     S
O992   N432    1.301   1_556 S
O993   Cu999   1.965   .     S
O993   C995    1.291   .     A
O994   C995    1.290   .     A
O994   Cu1000  1.964   .     S
C995   C1035   1.450   .     S
O996   Cu999   1.947   .     S
O996   C998    1.294   .     A
O997   Cu1000  1.934   .     S
O997   C998    1.299   .     A
C998   C1022   1.481   .     S
Cu999  N1040   2.010   .     S
Cu999  Cu1000  2.675   .     S
Cu999  O1003   1.934   .     S
Cu999  O1001   1.964   .     S
Cu1000 N1045   2.010   .     S
Cu1000 O1004   1.947   .     S
Cu1000 O1002   1.965   .     S
O1001  C1005   1.290   .     A
O1002  C1005   1.291   .     A
O1003  C1006   1.292   .     A
O1004  C1006   1.295   .     A
C1005  C1030   1.450   .     S
C1006  C1010   1.462   .     S
C1007  C1021   1.394   .     A
H1008  C1021   1.083   .     S
H1009  C449    1.081   1_556 S
C1010  C1021   1.396   .     A
C1010  C1020   1.392   .     A
C1011  C1012   1.407   .     A
C1011  N1049   1.433   .     S
C1011  C1022   1.422   .     A
C1012  C455    1.396   1_556 S
C1012  N494    1.442   1_556 S
C1013  H1024   1.077   .     S
C1014  C1015   1.411   .     A
C1014  C455    1.413   1_556 S
C1014  C458    1.420   1_556 S
C1015  C1019   1.412   .     A
C1015  C1022   1.420   .     A
C1016  C1020   1.404   .     A
C1017  C1018   1.410   .     A
C1017  C449    1.412   1_556 S
C1017  C458    1.422   1_556 S
C1018  C1019   1.401   .     A
C1018  N1046   1.442   .     S
C1019  H1025   1.081   .     S
C1020  H1023   1.078   .     S
C1026  H1027   1.083   .     S
C1026  C1035   1.401   .     A
C1026  C656    1.383   1_565 S
C1028  C1030   1.401   .     A
C1028  H1029   1.083   .     S
C1030  C1031   1.401   .     A
C1031  H1032   1.083   .     S
C1033  H1034   1.083   .     S
C1033  C1035   1.401   .     A
C1033  C659    1.383   1_565 S
C1036  N1045   1.364   .     A
C1036  H1037   1.076   .     S
C1036  C1100   1.416   .     S
C1038  H1039   1.082   .     S
C1038  N1040   1.367   .     A
N1040  C1041   1.367   .     A
C1041  H1042   1.082   .     S
C1043  N1045   1.367   .     A
C1043  H1044   1.082   .     S
C1043  C1103   1.416   .     S
N1046  O1048   1.302   .     A
N1046  O1047   1.300   .     A
N1049  O1050   1.301   .     A
N1049  O1051   1.301   .     A
O1053  N1114   1.302   .     S
O1054  N494    1.301   1_556 S
O1055  Cu1061  1.965   .     S
O1055  C1057   1.291   .     A
O1056  C1057   1.290   .     A
O1056  Cu1062  1.964   .     S
C1057  C1097   1.450   .     S
O1058  Cu1061  1.947   .     S
O1058  C1060   1.294   .     A
O1059  Cu1062  1.934   .     S
O1059  C1060   1.299   .     A
C1060  C1084   1.481   .     S
Cu1061 N1102   2.010   .     S
Cu1061 Cu1062  2.675   .     S
Cu1061 O1065   1.934   .     S
Cu1061 O1063   1.964   .     S
Cu1062 N1107   2.010   .     S
Cu1062 O1066   1.947   .     S
Cu1062 O1064   1.965   .     S
O1063  C1067   1.290   .     A
O1064  C1067   1.291   .     A
O1065  C1068   1.292   .     A
O1066  C1068   1.295   .     A
C1067  C1092   1.450   .     S
C1068  C1072   1.462   .     S
C1069  C1083   1.394   .     A
H1070  C1083   1.083   .     S
H1071  C511    1.081   1_556 S
C1072  C1083   1.396   .     A
C1072  C1082   1.392   .     A
C1073  C1074   1.407   .     A
C1073  N1111   1.433   .     S
C1073  C1084   1.422   .     A
C1074  C517    1.396   1_556 S
C1074  N556    1.442   1_556 S
C1075  H1086   1.077   .     S
C1076  C1077   1.411   .     A
C1076  C517    1.413   1_556 S
C1076  C520    1.420   1_556 S
C1077  C1081   1.412   .     A
C1077  C1084   1.420   .     A
C1078  C1082   1.404   .     A
C1079  C1080   1.410   .     A
C1079  C511    1.412   1_556 S
C1079  C520    1.422   1_556 S
C1080  C1081   1.401   .     A
C1080  N1108   1.442   .     S
C1081  H1087   1.081   .     S
C1082  H1085   1.078   .     S
C1088  H1089   1.083   .     S
C1088  C1097   1.401   .     A
C1088  C718    1.383   1_565 S
C1090  C1092   1.401   .     A
C1090  H1091   1.083   .     S
C1092  C1093   1.401   .     A
C1093  H1094   1.083   .     S
C1095  H1096   1.083   .     S
C1095  C1097   1.401   .     A
C1095  C721    1.383   1_565 S
C1098  N1107   1.364   .     A
C1098  H1099   1.076   .     S
C1098  C976    1.416   1_655 S
C1100  H1101   1.082   .     S
C1100  N1102   1.367   .     A
N1102  C1103   1.367   .     A
C1103  H1104   1.082   .     S
C1105  N1107   1.367   .     A
C1105  H1106   1.082   .     S
C1105  C979    1.416   1_655 S
N1108  O1110   1.302   .     A
N1108  O1109   1.300   .     A
N1111  O1112   1.301   .     A
N1111  O1113   1.301   .     A
O1115  N990    1.302   1_655 S
O1116  N556    1.301   1_556 S
