data_str_m2_o1_o2_pcu_sym.126
_audit_creation_date              2020-01-03
_audit_creation_method            'Materials Studio'
_symmetry_space_group_name_H-M    'P1'
_symmetry_Int_Tables_number       1
_symmetry_cell_setting            triclinic
loop_
_symmetry_equiv_pos_as_xyz
  x,y,z
_cell_length_a                    32.4472
_cell_length_b                    28.5115
_cell_length_c                    30.3587
_cell_angle_alpha                 90.0000
_cell_angle_beta                  90.2263
_cell_angle_gamma                 90.0000
loop_
_atom_site_label
_atom_site_type_symbol
_atom_site_fract_x
_atom_site_fract_y
_atom_site_fract_z
_atom_site_U_iso_or_equiv
_atom_site_adp_type
_atom_site_occupancy
C1     C     0.08734   0.16667   0.24997   0.00000  Uiso   1.00
C2     C     0.24599   0.16667   0.25003   0.00000  Uiso   1.00
C3     C     0.16674   0.16665   0.16485   0.00000  Uiso   1.00
C4     C     0.16659   0.16665   0.33515   0.00000  Uiso   1.00
C5     C     0.13723   0.02483   0.22735   0.00000  Uiso   1.00
C6     C     0.19620   0.30854   0.27250   0.00000  Uiso   1.00
C7     C     0.19611   0.02483   0.27265   0.00000  Uiso   1.00
C8     C     0.13714   0.30854   0.22750   0.00000  Uiso   1.00
C9     C     0.02129   0.12407   0.24950   0.00000  Uiso   1.00
C10    C     0.31204   0.20927   0.24956   0.00000  Uiso   1.00
C11    C     0.31204   0.12407   0.25050   0.00000  Uiso   1.00
C12    C     0.02129   0.20927   0.25044   0.00000  Uiso   1.00
C13    C     0.13929   0.19443   0.04623   0.00000  Uiso   1.00
C14    C     0.13931   0.13719   0.45321   0.00000  Uiso   1.00
C15    C     0.19404   0.19443   0.45377   0.00000  Uiso   1.00
C16    C     0.19402   0.13719   0.04679   0.00000  Uiso   1.00
C17    C     0.13881   0.19553   0.09225   0.00000  Uiso   1.00
C18    C     0.13860   0.13698   0.40717   0.00000  Uiso   1.00
C19    C     0.19452   0.19553   0.40775   0.00000  Uiso   1.00
C20    C     0.19473   0.13698   0.09283   0.00000  Uiso   1.00
C21    C     0.16681   0.16647   0.11628   0.00000  Uiso   1.00
C22    C     0.16652   0.16647   0.38372   0.00000  Uiso   1.00
C23    C     0.16659   0.16559   0.02392   0.00000  Uiso   1.00
C24    C     0.16674   0.16559   0.47608   0.00000  Uiso   1.00
C25    C     0.29059   0.16667   0.25004   0.00000  Uiso   1.00
C26    C     0.04274   0.16667   0.24996   0.00000  Uiso   1.00
Cu27   Cu    0.16667   0.21355   0.25000   0.00000  Uiso   1.00
Cu28   Cu    0.16667   0.11978   0.25000   0.00000  Uiso   1.00
H29    H     0.11370   0.04353   0.20913   0.00000  Uiso   1.00
H30    H     0.21996   0.28989   0.29037   0.00000  Uiso   1.00
H31    H     0.21964   0.04353   0.29087   0.00000  Uiso   1.00
H32    H     0.11338   0.28989   0.20963   0.00000  Uiso   1.00
H33    H     0.11801   0.21590   0.02737   0.00000  Uiso   1.00
H34    H     0.11797   0.11555   0.47165   0.00000  Uiso   1.00
H35    H     0.21533   0.21590   0.47263   0.00000  Uiso   1.00
H36    H     0.21536   0.11555   0.02835   0.00000  Uiso   1.00
H37    H     0.03731   0.09075   0.24894   0.00000  Uiso   1.00
H38    H     0.29601   0.24259   0.24904   0.00000  Uiso   1.00
H39    H     0.29602   0.09075   0.25106   0.00000  Uiso   1.00
H40    H     0.03732   0.24259   0.25096   0.00000  Uiso   1.00
N41    N     0.16667   0.28402   0.25000   0.00000  Uiso   1.00
N42    N     0.16667   0.04931   0.25000   0.00000  Uiso   1.00
O43    O     0.10655   0.20625   0.24999   0.00000  Uiso   1.00
O44    O     0.22679   0.12709   0.25000   0.00000  Uiso   1.00
O45    O     0.22679   0.20625   0.25000   0.00000  Uiso   1.00
O46    O     0.10655   0.12709   0.24999   0.00000  Uiso   1.00
O47    O     0.16666   0.20626   0.18573   0.00000  Uiso   1.00
O48    O     0.16667   0.12707   0.31427   0.00000  Uiso   1.00
O49    O     0.16667   0.20626   0.31427   0.00000  Uiso   1.00
O50    O     0.16666   0.12707   0.18573   0.00000  Uiso   1.00
C51    C     0.10668   0.22679   0.11349   0.00000  Uiso   1.00
C52    C     0.06941   0.19830   0.12900   0.00000  Uiso   1.00
C53    C     0.03415   0.23063   0.14250   0.00000  Uiso   1.00
H54    H     0.04449   0.25507   0.16878   0.00000  Uiso   1.00
H55    H     0.02324   0.25133   0.11374   0.00000  Uiso   1.00
H56    H     0.00796   0.20951   0.15493   0.00000  Uiso   1.00
H57    H     0.05838   0.17514   0.10194   0.00000  Uiso   1.00
H58    H     0.07832   0.17587   0.15734   0.00000  Uiso   1.00
H59    H     0.11991   0.24773   0.14071   0.00000  Uiso   1.00
H60    H     0.09572   0.25333   0.08924   0.00000  Uiso   1.00
C61    C     0.10597   0.10660   0.38532   0.00000  Uiso   1.00
C62    C     0.06862   0.13589   0.37107   0.00000  Uiso   1.00
C63    C     0.03260   0.10434   0.35794   0.00000  Uiso   1.00
H64    H     0.04208   0.07966   0.33157   0.00000  Uiso   1.00
H65    H     0.02186   0.08387   0.38683   0.00000  Uiso   1.00
H66    H     0.00656   0.12602   0.34578   0.00000  Uiso   1.00
H67    H     0.05858   0.15880   0.39867   0.00000  Uiso   1.00
H68    H     0.07707   0.15863   0.34285   0.00000  Uiso   1.00
H69    H     0.11845   0.08639   0.35726   0.00000  Uiso   1.00
H70    H     0.09530   0.07937   0.40895   0.00000  Uiso   1.00
C71    C     0.22665   0.22679   0.38651   0.00000  Uiso   1.00
C72    C     0.26392   0.19830   0.37100   0.00000  Uiso   1.00
C73    C     0.29918   0.23063   0.35750   0.00000  Uiso   1.00
H74    H     0.28884   0.25507   0.33122   0.00000  Uiso   1.00
H75    H     0.31009   0.25133   0.38626   0.00000  Uiso   1.00
H76    H     0.32537   0.20951   0.34507   0.00000  Uiso   1.00
H77    H     0.27496   0.17514   0.39806   0.00000  Uiso   1.00
H78    H     0.25501   0.17587   0.34266   0.00000  Uiso   1.00
H79    H     0.21342   0.24773   0.35929   0.00000  Uiso   1.00
H80    H     0.23761   0.25333   0.41076   0.00000  Uiso   1.00
C81    C     0.22736   0.10660   0.11468   0.00000  Uiso   1.00
C82    C     0.26471   0.13589   0.12893   0.00000  Uiso   1.00
C83    C     0.30073   0.10434   0.14206   0.00000  Uiso   1.00
H84    H     0.29125   0.07966   0.16843   0.00000  Uiso   1.00
H85    H     0.31148   0.08387   0.11317   0.00000  Uiso   1.00
H86    H     0.32677   0.12602   0.15422   0.00000  Uiso   1.00
H87    H     0.27475   0.15880   0.10133   0.00000  Uiso   1.00
H88    H     0.25626   0.15863   0.15714   0.00000  Uiso   1.00
H89    H     0.21488   0.08639   0.14274   0.00000  Uiso   1.00
H90    H     0.23803   0.07937   0.09105   0.00000  Uiso   1.00
C91    C     0.42068   0.16667   0.24997   0.00000  Uiso   1.00
C92    C     0.57932   0.16667   0.25003   0.00000  Uiso   1.00
C93    C     0.50007   0.16665   0.16485   0.00000  Uiso   1.00
C94    C     0.49993   0.16665   0.33515   0.00000  Uiso   1.00
C95    C     0.47056   0.02483   0.22735   0.00000  Uiso   1.00
C96    C     0.52953   0.30854   0.27250   0.00000  Uiso   1.00
C97    C     0.52944   0.02483   0.27265   0.00000  Uiso   1.00
C98    C     0.47047   0.30854   0.22750   0.00000  Uiso   1.00
C99    C     0.35462   0.12407   0.24950   0.00000  Uiso   1.00
C100   C     0.64537   0.20927   0.24956   0.00000  Uiso   1.00
C101   C     0.64538   0.12407   0.25050   0.00000  Uiso   1.00
C102   C     0.35463   0.20927   0.25044   0.00000  Uiso   1.00
C103   C     0.47263   0.19443   0.04623   0.00000  Uiso   1.00
C104   C     0.47264   0.13719   0.45321   0.00000  Uiso   1.00
C105   C     0.52737   0.19443   0.45377   0.00000  Uiso   1.00
C106   C     0.52735   0.13719   0.04679   0.00000  Uiso   1.00
C107   C     0.47215   0.19553   0.09225   0.00000  Uiso   1.00
C108   C     0.47193   0.13698   0.40717   0.00000  Uiso   1.00
C109   C     0.52785   0.19553   0.40775   0.00000  Uiso   1.00
C110   C     0.52807   0.13698   0.09283   0.00000  Uiso   1.00
C111   C     0.50014   0.16647   0.11628   0.00000  Uiso   1.00
C112   C     0.49986   0.16647   0.38372   0.00000  Uiso   1.00
C113   C     0.49992   0.16559   0.02392   0.00000  Uiso   1.00
C114   C     0.50008   0.16559   0.47608   0.00000  Uiso   1.00
C115   C     0.62393   0.16667   0.25004   0.00000  Uiso   1.00
C116   C     0.37607   0.16667   0.24996   0.00000  Uiso   1.00
Cu117  Cu    0.50000   0.21355   0.25000   0.00000  Uiso   1.00
Cu118  Cu    0.50000   0.11978   0.25000   0.00000  Uiso   1.00
H119   H     0.44703   0.04353   0.20913   0.00000  Uiso   1.00
H120   H     0.55329   0.28989   0.29037   0.00000  Uiso   1.00
H121   H     0.55297   0.04353   0.29087   0.00000  Uiso   1.00
H122   H     0.44671   0.28989   0.20963   0.00000  Uiso   1.00
H123   H     0.45134   0.21590   0.02737   0.00000  Uiso   1.00
H124   H     0.45130   0.11555   0.47165   0.00000  Uiso   1.00
H125   H     0.54866   0.21590   0.47263   0.00000  Uiso   1.00
H126   H     0.54870   0.11555   0.02835   0.00000  Uiso   1.00
H127   H     0.37064   0.09075   0.24894   0.00000  Uiso   1.00
H128   H     0.62935   0.24259   0.24904   0.00000  Uiso   1.00
H129   H     0.62936   0.09075   0.25106   0.00000  Uiso   1.00
H130   H     0.37065   0.24259   0.25096   0.00000  Uiso   1.00
N131   N     0.50000   0.28402   0.25000   0.00000  Uiso   1.00
N132   N     0.50000   0.04931   0.25000   0.00000  Uiso   1.00
O133   O     0.43988   0.20625   0.24999   0.00000  Uiso   1.00
O134   O     0.56012   0.12709   0.25000   0.00000  Uiso   1.00
O135   O     0.56012   0.20625   0.25000   0.00000  Uiso   1.00
O136   O     0.43988   0.12709   0.24999   0.00000  Uiso   1.00
O137   O     0.50000   0.20626   0.18573   0.00000  Uiso   1.00
O138   O     0.50000   0.12707   0.31427   0.00000  Uiso   1.00
O139   O     0.50000   0.20626   0.31427   0.00000  Uiso   1.00
O140   O     0.50000   0.12707   0.18573   0.00000  Uiso   1.00
C141   C     0.44001   0.22679   0.11349   0.00000  Uiso   1.00
C142   C     0.40275   0.19830   0.12900   0.00000  Uiso   1.00
C143   C     0.36749   0.23063   0.14250   0.00000  Uiso   1.00
H144   H     0.37782   0.25507   0.16878   0.00000  Uiso   1.00
H145   H     0.35658   0.25133   0.11374   0.00000  Uiso   1.00
H146   H     0.34129   0.20951   0.15493   0.00000  Uiso   1.00
H147   H     0.39171   0.17514   0.10194   0.00000  Uiso   1.00
H148   H     0.41166   0.17587   0.15734   0.00000  Uiso   1.00
H149   H     0.45324   0.24773   0.14071   0.00000  Uiso   1.00
H150   H     0.42906   0.25333   0.08924   0.00000  Uiso   1.00
C151   C     0.43930   0.10660   0.38532   0.00000  Uiso   1.00
C152   C     0.40196   0.13589   0.37107   0.00000  Uiso   1.00
C153   C     0.36594   0.10434   0.35794   0.00000  Uiso   1.00
H154   H     0.37541   0.07966   0.33157   0.00000  Uiso   1.00
H155   H     0.35519   0.08387   0.38683   0.00000  Uiso   1.00
H156   H     0.33989   0.12602   0.34578   0.00000  Uiso   1.00
H157   H     0.39191   0.15880   0.39867   0.00000  Uiso   1.00
H158   H     0.41041   0.15863   0.34285   0.00000  Uiso   1.00
H159   H     0.45178   0.08639   0.35726   0.00000  Uiso   1.00
H160   H     0.42864   0.07937   0.40895   0.00000  Uiso   1.00
C161   C     0.55999   0.22679   0.38651   0.00000  Uiso   1.00
C162   C     0.59725   0.19830   0.37100   0.00000  Uiso   1.00
C163   C     0.63251   0.23063   0.35750   0.00000  Uiso   1.00
H164   H     0.62218   0.25507   0.33122   0.00000  Uiso   1.00
H165   H     0.64342   0.25133   0.38626   0.00000  Uiso   1.00
H166   H     0.65871   0.20951   0.34507   0.00000  Uiso   1.00
H167   H     0.60829   0.17514   0.39806   0.00000  Uiso   1.00
H168   H     0.58834   0.17587   0.34266   0.00000  Uiso   1.00
H169   H     0.54676   0.24773   0.35929   0.00000  Uiso   1.00
H170   H     0.57094   0.25333   0.41076   0.00000  Uiso   1.00
C171   C     0.56070   0.10660   0.11468   0.00000  Uiso   1.00
C172   C     0.59804   0.13589   0.12893   0.00000  Uiso   1.00
C173   C     0.63406   0.10434   0.14206   0.00000  Uiso   1.00
H174   H     0.62458   0.07966   0.16843   0.00000  Uiso   1.00
H175   H     0.64481   0.08387   0.11317   0.00000  Uiso   1.00
H176   H     0.66011   0.12602   0.15422   0.00000  Uiso   1.00
H177   H     0.60809   0.15880   0.10133   0.00000  Uiso   1.00
H178   H     0.58959   0.15863   0.15714   0.00000  Uiso   1.00
H179   H     0.54822   0.08639   0.14274   0.00000  Uiso   1.00
H180   H     0.57136   0.07937   0.09105   0.00000  Uiso   1.00
C181   C     0.75401   0.16667   0.24997   0.00000  Uiso   1.00
C182   C     0.91266   0.16667   0.25003   0.00000  Uiso   1.00
C183   C     0.83341   0.16665   0.16485   0.00000  Uiso   1.00
C184   C     0.83326   0.16665   0.33515   0.00000  Uiso   1.00
C185   C     0.80389   0.02483   0.22735   0.00000  Uiso   1.00
C186   C     0.86286   0.30854   0.27250   0.00000  Uiso   1.00
C187   C     0.86277   0.02483   0.27265   0.00000  Uiso   1.00
C188   C     0.80380   0.30854   0.22750   0.00000  Uiso   1.00
C189   C     0.68796   0.12407   0.24950   0.00000  Uiso   1.00
C190   C     0.97871   0.20927   0.24956   0.00000  Uiso   1.00
C191   C     0.97871   0.12407   0.25050   0.00000  Uiso   1.00
C192   C     0.68796   0.20927   0.25044   0.00000  Uiso   1.00
C193   C     0.80596   0.19443   0.04623   0.00000  Uiso   1.00
C194   C     0.80598   0.13719   0.45321   0.00000  Uiso   1.00
C195   C     0.86071   0.19443   0.45377   0.00000  Uiso   1.00
C196   C     0.86069   0.13719   0.04679   0.00000  Uiso   1.00
C197   C     0.80548   0.19553   0.09225   0.00000  Uiso   1.00
C198   C     0.80527   0.13698   0.40717   0.00000  Uiso   1.00
C199   C     0.86119   0.19553   0.40775   0.00000  Uiso   1.00
C200   C     0.86140   0.13698   0.09283   0.00000  Uiso   1.00
C201   C     0.83348   0.16647   0.11628   0.00000  Uiso   1.00
C202   C     0.83319   0.16647   0.38372   0.00000  Uiso   1.00
C203   C     0.83326   0.16559   0.02392   0.00000  Uiso   1.00
C204   C     0.83341   0.16559   0.47608   0.00000  Uiso   1.00
C205   C     0.95726   0.16667   0.25004   0.00000  Uiso   1.00
C206   C     0.70940   0.16667   0.24996   0.00000  Uiso   1.00
Cu207  Cu    0.83333   0.21355   0.25000   0.00000  Uiso   1.00
Cu208  Cu    0.83333   0.11978   0.25000   0.00000  Uiso   1.00
H209   H     0.78036   0.04353   0.20913   0.00000  Uiso   1.00
H210   H     0.88662   0.28989   0.29037   0.00000  Uiso   1.00
H211   H     0.88630   0.04353   0.29087   0.00000  Uiso   1.00
H212   H     0.78004   0.28989   0.20963   0.00000  Uiso   1.00
H213   H     0.78467   0.21590   0.02737   0.00000  Uiso   1.00
H214   H     0.78464   0.11555   0.47165   0.00000  Uiso   1.00
H215   H     0.88199   0.21590   0.47263   0.00000  Uiso   1.00
H216   H     0.88203   0.11555   0.02835   0.00000  Uiso   1.00
H217   H     0.70398   0.09075   0.24894   0.00000  Uiso   1.00
H218   H     0.96268   0.24259   0.24904   0.00000  Uiso   1.00
H219   H     0.96269   0.09075   0.25106   0.00000  Uiso   1.00
H220   H     0.70399   0.24259   0.25096   0.00000  Uiso   1.00
N221   N     0.83333   0.28402   0.25000   0.00000  Uiso   1.00
N222   N     0.83333   0.04931   0.25000   0.00000  Uiso   1.00
O223   O     0.77321   0.20625   0.24999   0.00000  Uiso   1.00
O224   O     0.89345   0.12709   0.25000   0.00000  Uiso   1.00
O225   O     0.89345   0.20625   0.25000   0.00000  Uiso   1.00
O226   O     0.77321   0.12709   0.24999   0.00000  Uiso   1.00
O227   O     0.83333   0.20626   0.18573   0.00000  Uiso   1.00
O228   O     0.83334   0.12707   0.31427   0.00000  Uiso   1.00
O229   O     0.83334   0.20626   0.31427   0.00000  Uiso   1.00
O230   O     0.83333   0.12707   0.18573   0.00000  Uiso   1.00
C231   C     0.77335   0.22679   0.11349   0.00000  Uiso   1.00
C232   C     0.73608   0.19830   0.12900   0.00000  Uiso   1.00
C233   C     0.70082   0.23063   0.14250   0.00000  Uiso   1.00
H234   H     0.71116   0.25507   0.16878   0.00000  Uiso   1.00
H235   H     0.68991   0.25133   0.11374   0.00000  Uiso   1.00
H236   H     0.67463   0.20951   0.15493   0.00000  Uiso   1.00
H237   H     0.72504   0.17514   0.10194   0.00000  Uiso   1.00
H238   H     0.74499   0.17587   0.15734   0.00000  Uiso   1.00
H239   H     0.78658   0.24773   0.14071   0.00000  Uiso   1.00
H240   H     0.76239   0.25333   0.08924   0.00000  Uiso   1.00
C241   C     0.77264   0.10660   0.38532   0.00000  Uiso   1.00
C242   C     0.73529   0.13589   0.37107   0.00000  Uiso   1.00
C243   C     0.69927   0.10434   0.35794   0.00000  Uiso   1.00
H244   H     0.70875   0.07966   0.33157   0.00000  Uiso   1.00
H245   H     0.68852   0.08387   0.38683   0.00000  Uiso   1.00
H246   H     0.67323   0.12602   0.34578   0.00000  Uiso   1.00
H247   H     0.72525   0.15880   0.39867   0.00000  Uiso   1.00
H248   H     0.74374   0.15863   0.34285   0.00000  Uiso   1.00
H249   H     0.78512   0.08639   0.35726   0.00000  Uiso   1.00
H250   H     0.76197   0.07937   0.40895   0.00000  Uiso   1.00
C251   C     0.89332   0.22679   0.38651   0.00000  Uiso   1.00
C252   C     0.93059   0.19830   0.37100   0.00000  Uiso   1.00
C253   C     0.96585   0.23063   0.35750   0.00000  Uiso   1.00
H254   H     0.95551   0.25507   0.33122   0.00000  Uiso   1.00
H255   H     0.97675   0.25133   0.38626   0.00000  Uiso   1.00
H256   H     0.99204   0.20951   0.34507   0.00000  Uiso   1.00
H257   H     0.94162   0.17514   0.39806   0.00000  Uiso   1.00
H258   H     0.92167   0.17587   0.34266   0.00000  Uiso   1.00
H259   H     0.88009   0.24773   0.35929   0.00000  Uiso   1.00
H260   H     0.90428   0.25333   0.41076   0.00000  Uiso   1.00
C261   C     0.89403   0.10660   0.11468   0.00000  Uiso   1.00
C262   C     0.93137   0.13589   0.12893   0.00000  Uiso   1.00
C263   C     0.96739   0.10434   0.14206   0.00000  Uiso   1.00
H264   H     0.95792   0.07966   0.16843   0.00000  Uiso   1.00
H265   H     0.97814   0.08387   0.11317   0.00000  Uiso   1.00
H266   H     0.99344   0.12602   0.15422   0.00000  Uiso   1.00
H267   H     0.94142   0.15880   0.10133   0.00000  Uiso   1.00
H268   H     0.92292   0.15863   0.15714   0.00000  Uiso   1.00
H269   H     0.88155   0.08639   0.14274   0.00000  Uiso   1.00
H270   H     0.90470   0.07937   0.09105   0.00000  Uiso   1.00
C271   C     0.08734   0.50000   0.24997   0.00000  Uiso   1.00
C272   C     0.24599   0.50000   0.25003   0.00000  Uiso   1.00
C273   C     0.16674   0.49998   0.16485   0.00000  Uiso   1.00
C274   C     0.16659   0.49998   0.33515   0.00000  Uiso   1.00
C275   C     0.13723   0.35816   0.22735   0.00000  Uiso   1.00
C276   C     0.19620   0.64187   0.27250   0.00000  Uiso   1.00
C277   C     0.19611   0.35816   0.27265   0.00000  Uiso   1.00
C278   C     0.13714   0.64187   0.22750   0.00000  Uiso   1.00
C279   C     0.02129   0.45741   0.24950   0.00000  Uiso   1.00
C280   C     0.31204   0.54260   0.24956   0.00000  Uiso   1.00
C281   C     0.31204   0.45741   0.25050   0.00000  Uiso   1.00
C282   C     0.02129   0.54260   0.25044   0.00000  Uiso   1.00
C283   C     0.13929   0.52776   0.04623   0.00000  Uiso   1.00
C284   C     0.13931   0.47053   0.45321   0.00000  Uiso   1.00
C285   C     0.19404   0.52776   0.45377   0.00000  Uiso   1.00
C286   C     0.19402   0.47053   0.04679   0.00000  Uiso   1.00
C287   C     0.13881   0.52887   0.09225   0.00000  Uiso   1.00
C288   C     0.13860   0.47031   0.40717   0.00000  Uiso   1.00
C289   C     0.19452   0.52887   0.40775   0.00000  Uiso   1.00
C290   C     0.19473   0.47031   0.09283   0.00000  Uiso   1.00
C291   C     0.16681   0.49980   0.11628   0.00000  Uiso   1.00
C292   C     0.16652   0.49980   0.38372   0.00000  Uiso   1.00
C293   C     0.16659   0.49892   0.02392   0.00000  Uiso   1.00
C294   C     0.16674   0.49892   0.47608   0.00000  Uiso   1.00
C295   C     0.29059   0.50000   0.25004   0.00000  Uiso   1.00
C296   C     0.04274   0.50000   0.24996   0.00000  Uiso   1.00
Cu297  Cu    0.16667   0.54689   0.25000   0.00000  Uiso   1.00
Cu298  Cu    0.16667   0.45311   0.25000   0.00000  Uiso   1.00
H299   H     0.11370   0.37686   0.20913   0.00000  Uiso   1.00
H300   H     0.21996   0.62322   0.29037   0.00000  Uiso   1.00
H301   H     0.21964   0.37686   0.29087   0.00000  Uiso   1.00
H302   H     0.11338   0.62322   0.20963   0.00000  Uiso   1.00
H303   H     0.11801   0.54923   0.02737   0.00000  Uiso   1.00
H304   H     0.11797   0.44889   0.47165   0.00000  Uiso   1.00
H305   H     0.21533   0.54923   0.47263   0.00000  Uiso   1.00
H306   H     0.21536   0.44889   0.02835   0.00000  Uiso   1.00
H307   H     0.03731   0.42409   0.24894   0.00000  Uiso   1.00
H308   H     0.29601   0.57592   0.24904   0.00000  Uiso   1.00
H309   H     0.29602   0.42409   0.25106   0.00000  Uiso   1.00
H310   H     0.03732   0.57592   0.25096   0.00000  Uiso   1.00
N311   N     0.16667   0.61736   0.25000   0.00000  Uiso   1.00
N312   N     0.16667   0.38264   0.25000   0.00000  Uiso   1.00
O313   O     0.10655   0.53958   0.24999   0.00000  Uiso   1.00
O314   O     0.22679   0.46042   0.25000   0.00000  Uiso   1.00
O315   O     0.22679   0.53958   0.25000   0.00000  Uiso   1.00
O316   O     0.10655   0.46042   0.24999   0.00000  Uiso   1.00
O317   O     0.16666   0.53959   0.18573   0.00000  Uiso   1.00
O318   O     0.16667   0.46041   0.31427   0.00000  Uiso   1.00
O319   O     0.16667   0.53959   0.31427   0.00000  Uiso   1.00
O320   O     0.16666   0.46041   0.18573   0.00000  Uiso   1.00
C321   C     0.10668   0.56012   0.11349   0.00000  Uiso   1.00
C322   C     0.06941   0.53164   0.12900   0.00000  Uiso   1.00
C323   C     0.03415   0.56396   0.14250   0.00000  Uiso   1.00
H324   H     0.04449   0.58841   0.16878   0.00000  Uiso   1.00
H325   H     0.02324   0.58466   0.11374   0.00000  Uiso   1.00
H326   H     0.00796   0.54285   0.15493   0.00000  Uiso   1.00
H327   H     0.05838   0.50848   0.10194   0.00000  Uiso   1.00
H328   H     0.07832   0.50920   0.15734   0.00000  Uiso   1.00
H329   H     0.11991   0.58106   0.14071   0.00000  Uiso   1.00
H330   H     0.09572   0.58666   0.08924   0.00000  Uiso   1.00
C331   C     0.10597   0.43993   0.38532   0.00000  Uiso   1.00
C332   C     0.06862   0.46922   0.37107   0.00000  Uiso   1.00
C333   C     0.03260   0.43767   0.35794   0.00000  Uiso   1.00
H334   H     0.04208   0.41300   0.33157   0.00000  Uiso   1.00
H335   H     0.02186   0.41720   0.38683   0.00000  Uiso   1.00
H336   H     0.00656   0.45935   0.34578   0.00000  Uiso   1.00
H337   H     0.05858   0.49213   0.39867   0.00000  Uiso   1.00
H338   H     0.07707   0.49196   0.34285   0.00000  Uiso   1.00
H339   H     0.11845   0.41972   0.35726   0.00000  Uiso   1.00
H340   H     0.09530   0.41271   0.40895   0.00000  Uiso   1.00
C341   C     0.22665   0.56012   0.38651   0.00000  Uiso   1.00
C342   C     0.26392   0.53164   0.37100   0.00000  Uiso   1.00
C343   C     0.29918   0.56396   0.35750   0.00000  Uiso   1.00
H344   H     0.28884   0.58841   0.33122   0.00000  Uiso   1.00
H345   H     0.31009   0.58466   0.38626   0.00000  Uiso   1.00
H346   H     0.32537   0.54285   0.34507   0.00000  Uiso   1.00
H347   H     0.27496   0.50848   0.39806   0.00000  Uiso   1.00
H348   H     0.25501   0.50920   0.34266   0.00000  Uiso   1.00
H349   H     0.21342   0.58106   0.35929   0.00000  Uiso   1.00
H350   H     0.23761   0.58666   0.41076   0.00000  Uiso   1.00
C351   C     0.22736   0.43993   0.11468   0.00000  Uiso   1.00
C352   C     0.26471   0.46922   0.12893   0.00000  Uiso   1.00
C353   C     0.30073   0.43767   0.14206   0.00000  Uiso   1.00
H354   H     0.29125   0.41300   0.16843   0.00000  Uiso   1.00
H355   H     0.31148   0.41720   0.11317   0.00000  Uiso   1.00
H356   H     0.32677   0.45935   0.15422   0.00000  Uiso   1.00
H357   H     0.27475   0.49213   0.10133   0.00000  Uiso   1.00
H358   H     0.25626   0.49196   0.15714   0.00000  Uiso   1.00
H359   H     0.21488   0.41972   0.14274   0.00000  Uiso   1.00
H360   H     0.23803   0.41271   0.09105   0.00000  Uiso   1.00
C361   C     0.42068   0.50000   0.24997   0.00000  Uiso   1.00
C362   C     0.57932   0.50000   0.25003   0.00000  Uiso   1.00
C363   C     0.50007   0.49998   0.16485   0.00000  Uiso   1.00
C364   C     0.49993   0.49998   0.33515   0.00000  Uiso   1.00
C365   C     0.47056   0.35816   0.22735   0.00000  Uiso   1.00
C366   C     0.52953   0.64187   0.27250   0.00000  Uiso   1.00
C367   C     0.52944   0.35816   0.27265   0.00000  Uiso   1.00
C368   C     0.47047   0.64187   0.22750   0.00000  Uiso   1.00
C369   C     0.35462   0.45741   0.24950   0.00000  Uiso   1.00
C370   C     0.64537   0.54260   0.24956   0.00000  Uiso   1.00
C371   C     0.64538   0.45741   0.25050   0.00000  Uiso   1.00
C372   C     0.35463   0.54260   0.25044   0.00000  Uiso   1.00
C373   C     0.47263   0.52776   0.04623   0.00000  Uiso   1.00
C374   C     0.47264   0.47053   0.45321   0.00000  Uiso   1.00
C375   C     0.52737   0.52776   0.45377   0.00000  Uiso   1.00
C376   C     0.52735   0.47053   0.04679   0.00000  Uiso   1.00
C377   C     0.47215   0.52887   0.09225   0.00000  Uiso   1.00
C378   C     0.47193   0.47031   0.40717   0.00000  Uiso   1.00
C379   C     0.52785   0.52887   0.40775   0.00000  Uiso   1.00
C380   C     0.52807   0.47031   0.09283   0.00000  Uiso   1.00
C381   C     0.50014   0.49980   0.11628   0.00000  Uiso   1.00
C382   C     0.49986   0.49980   0.38372   0.00000  Uiso   1.00
C383   C     0.49992   0.49892   0.02392   0.00000  Uiso   1.00
C384   C     0.50008   0.49892   0.47608   0.00000  Uiso   1.00
C385   C     0.62393   0.50000   0.25004   0.00000  Uiso   1.00
C386   C     0.37607   0.50000   0.24996   0.00000  Uiso   1.00
Cu387  Cu    0.50000   0.54689   0.25000   0.00000  Uiso   1.00
Cu388  Cu    0.50000   0.45311   0.25000   0.00000  Uiso   1.00
H389   H     0.44703   0.37686   0.20913   0.00000  Uiso   1.00
H390   H     0.55329   0.62322   0.29037   0.00000  Uiso   1.00
H391   H     0.55297   0.37686   0.29087   0.00000  Uiso   1.00
H392   H     0.44671   0.62322   0.20963   0.00000  Uiso   1.00
H393   H     0.45134   0.54923   0.02737   0.00000  Uiso   1.00
H394   H     0.45130   0.44889   0.47165   0.00000  Uiso   1.00
H395   H     0.54866   0.54923   0.47263   0.00000  Uiso   1.00
H396   H     0.54870   0.44889   0.02835   0.00000  Uiso   1.00
H397   H     0.37064   0.42409   0.24894   0.00000  Uiso   1.00
H398   H     0.62935   0.57592   0.24904   0.00000  Uiso   1.00
H399   H     0.62936   0.42409   0.25106   0.00000  Uiso   1.00
H400   H     0.37065   0.57592   0.25096   0.00000  Uiso   1.00
N401   N     0.50000   0.61736   0.25000   0.00000  Uiso   1.00
N402   N     0.50000   0.38264   0.25000   0.00000  Uiso   1.00
O403   O     0.43988   0.53958   0.24999   0.00000  Uiso   1.00
O404   O     0.56012   0.46042   0.25000   0.00000  Uiso   1.00
O405   O     0.56012   0.53958   0.25000   0.00000  Uiso   1.00
O406   O     0.43988   0.46042   0.24999   0.00000  Uiso   1.00
O407   O     0.50000   0.53959   0.18573   0.00000  Uiso   1.00
O408   O     0.50000   0.46041   0.31427   0.00000  Uiso   1.00
O409   O     0.50000   0.53959   0.31427   0.00000  Uiso   1.00
O410   O     0.50000   0.46041   0.18573   0.00000  Uiso   1.00
C411   C     0.44001   0.56012   0.11349   0.00000  Uiso   1.00
C412   C     0.40275   0.53164   0.12900   0.00000  Uiso   1.00
C413   C     0.36749   0.56396   0.14250   0.00000  Uiso   1.00
H414   H     0.37782   0.58841   0.16878   0.00000  Uiso   1.00
H415   H     0.35658   0.58466   0.11374   0.00000  Uiso   1.00
H416   H     0.34129   0.54285   0.15493   0.00000  Uiso   1.00
H417   H     0.39171   0.50848   0.10194   0.00000  Uiso   1.00
H418   H     0.41166   0.50920   0.15734   0.00000  Uiso   1.00
H419   H     0.45324   0.58106   0.14071   0.00000  Uiso   1.00
H420   H     0.42906   0.58666   0.08924   0.00000  Uiso   1.00
C421   C     0.43930   0.43993   0.38532   0.00000  Uiso   1.00
C422   C     0.40196   0.46922   0.37107   0.00000  Uiso   1.00
C423   C     0.36594   0.43767   0.35794   0.00000  Uiso   1.00
H424   H     0.37541   0.41300   0.33157   0.00000  Uiso   1.00
H425   H     0.35519   0.41720   0.38683   0.00000  Uiso   1.00
H426   H     0.33989   0.45935   0.34578   0.00000  Uiso   1.00
H427   H     0.39191   0.49213   0.39867   0.00000  Uiso   1.00
H428   H     0.41041   0.49196   0.34285   0.00000  Uiso   1.00
H429   H     0.45178   0.41972   0.35726   0.00000  Uiso   1.00
H430   H     0.42864   0.41271   0.40895   0.00000  Uiso   1.00
C431   C     0.55999   0.56012   0.38651   0.00000  Uiso   1.00
C432   C     0.59725   0.53164   0.37100   0.00000  Uiso   1.00
C433   C     0.63251   0.56396   0.35750   0.00000  Uiso   1.00
H434   H     0.62218   0.58841   0.33122   0.00000  Uiso   1.00
H435   H     0.64342   0.58466   0.38626   0.00000  Uiso   1.00
H436   H     0.65871   0.54285   0.34507   0.00000  Uiso   1.00
H437   H     0.60829   0.50848   0.39806   0.00000  Uiso   1.00
H438   H     0.58834   0.50920   0.34266   0.00000  Uiso   1.00
H439   H     0.54676   0.58106   0.35929   0.00000  Uiso   1.00
H440   H     0.57094   0.58666   0.41076   0.00000  Uiso   1.00
C441   C     0.56070   0.43993   0.11468   0.00000  Uiso   1.00
C442   C     0.59804   0.46922   0.12893   0.00000  Uiso   1.00
C443   C     0.63406   0.43767   0.14206   0.00000  Uiso   1.00
H444   H     0.62458   0.41300   0.16843   0.00000  Uiso   1.00
H445   H     0.64481   0.41720   0.11317   0.00000  Uiso   1.00
H446   H     0.66011   0.45935   0.15422   0.00000  Uiso   1.00
H447   H     0.60809   0.49213   0.10133   0.00000  Uiso   1.00
H448   H     0.58959   0.49196   0.15714   0.00000  Uiso   1.00
H449   H     0.54822   0.41972   0.14274   0.00000  Uiso   1.00
H450   H     0.57136   0.41271   0.09105   0.00000  Uiso   1.00
C451   C     0.75401   0.50000   0.24997   0.00000  Uiso   1.00
C452   C     0.91266   0.50000   0.25003   0.00000  Uiso   1.00
C453   C     0.83341   0.49998   0.16485   0.00000  Uiso   1.00
C454   C     0.83326   0.49998   0.33515   0.00000  Uiso   1.00
C455   C     0.80389   0.35816   0.22735   0.00000  Uiso   1.00
C456   C     0.86286   0.64187   0.27250   0.00000  Uiso   1.00
C457   C     0.86277   0.35816   0.27265   0.00000  Uiso   1.00
C458   C     0.80380   0.64187   0.22750   0.00000  Uiso   1.00
C459   C     0.68796   0.45741   0.24950   0.00000  Uiso   1.00
C460   C     0.97871   0.54260   0.24956   0.00000  Uiso   1.00
C461   C     0.97871   0.45741   0.25050   0.00000  Uiso   1.00
C462   C     0.68796   0.54260   0.25044   0.00000  Uiso   1.00
C463   C     0.80596   0.52776   0.04623   0.00000  Uiso   1.00
C464   C     0.80598   0.47053   0.45321   0.00000  Uiso   1.00
C465   C     0.86071   0.52776   0.45377   0.00000  Uiso   1.00
C466   C     0.86069   0.47053   0.04679   0.00000  Uiso   1.00
C467   C     0.80548   0.52887   0.09225   0.00000  Uiso   1.00
C468   C     0.80527   0.47031   0.40717   0.00000  Uiso   1.00
C469   C     0.86119   0.52887   0.40775   0.00000  Uiso   1.00
C470   C     0.86140   0.47031   0.09283   0.00000  Uiso   1.00
C471   C     0.83348   0.49980   0.11628   0.00000  Uiso   1.00
C472   C     0.83319   0.49980   0.38372   0.00000  Uiso   1.00
C473   C     0.83326   0.49892   0.02392   0.00000  Uiso   1.00
C474   C     0.83341   0.49892   0.47608   0.00000  Uiso   1.00
C475   C     0.95726   0.50000   0.25004   0.00000  Uiso   1.00
C476   C     0.70940   0.50000   0.24996   0.00000  Uiso   1.00
Cu477  Cu    0.83333   0.54689   0.25000   0.00000  Uiso   1.00
Cu478  Cu    0.83333   0.45311   0.25000   0.00000  Uiso   1.00
H479   H     0.78036   0.37686   0.20913   0.00000  Uiso   1.00
H480   H     0.88662   0.62322   0.29037   0.00000  Uiso   1.00
H481   H     0.88630   0.37686   0.29087   0.00000  Uiso   1.00
H482   H     0.78004   0.62322   0.20963   0.00000  Uiso   1.00
H483   H     0.78467   0.54923   0.02737   0.00000  Uiso   1.00
H484   H     0.78464   0.44889   0.47165   0.00000  Uiso   1.00
H485   H     0.88199   0.54923   0.47263   0.00000  Uiso   1.00
H486   H     0.88203   0.44889   0.02835   0.00000  Uiso   1.00
H487   H     0.70398   0.42409   0.24894   0.00000  Uiso   1.00
H488   H     0.96268   0.57592   0.24904   0.00000  Uiso   1.00
H489   H     0.96269   0.42409   0.25106   0.00000  Uiso   1.00
H490   H     0.70399   0.57592   0.25096   0.00000  Uiso   1.00
N491   N     0.83333   0.61736   0.25000   0.00000  Uiso   1.00
N492   N     0.83333   0.38264   0.25000   0.00000  Uiso   1.00
O493   O     0.77321   0.53958   0.24999   0.00000  Uiso   1.00
O494   O     0.89345   0.46042   0.25000   0.00000  Uiso   1.00
O495   O     0.89345   0.53958   0.25000   0.00000  Uiso   1.00
O496   O     0.77321   0.46042   0.24999   0.00000  Uiso   1.00
O497   O     0.83333   0.53959   0.18573   0.00000  Uiso   1.00
O498   O     0.83334   0.46041   0.31427   0.00000  Uiso   1.00
O499   O     0.83334   0.53959   0.31427   0.00000  Uiso   1.00
O500   O     0.83333   0.46041   0.18573   0.00000  Uiso   1.00
C501   C     0.77335   0.56012   0.11349   0.00000  Uiso   1.00
C502   C     0.73608   0.53164   0.12900   0.00000  Uiso   1.00
C503   C     0.70082   0.56396   0.14250   0.00000  Uiso   1.00
H504   H     0.71116   0.58841   0.16878   0.00000  Uiso   1.00
H505   H     0.68991   0.58466   0.11374   0.00000  Uiso   1.00
H506   H     0.67463   0.54285   0.15493   0.00000  Uiso   1.00
H507   H     0.72504   0.50848   0.10194   0.00000  Uiso   1.00
H508   H     0.74499   0.50920   0.15734   0.00000  Uiso   1.00
H509   H     0.78658   0.58106   0.14071   0.00000  Uiso   1.00
H510   H     0.76239   0.58666   0.08924   0.00000  Uiso   1.00
C511   C     0.77264   0.43993   0.38532   0.00000  Uiso   1.00
C512   C     0.73529   0.46922   0.37107   0.00000  Uiso   1.00
C513   C     0.69927   0.43767   0.35794   0.00000  Uiso   1.00
H514   H     0.70875   0.41300   0.33157   0.00000  Uiso   1.00
H515   H     0.68852   0.41720   0.38683   0.00000  Uiso   1.00
H516   H     0.67323   0.45935   0.34578   0.00000  Uiso   1.00
H517   H     0.72525   0.49213   0.39867   0.00000  Uiso   1.00
H518   H     0.74374   0.49196   0.34285   0.00000  Uiso   1.00
H519   H     0.78512   0.41972   0.35726   0.00000  Uiso   1.00
H520   H     0.76197   0.41271   0.40895   0.00000  Uiso   1.00
C521   C     0.89332   0.56012   0.38651   0.00000  Uiso   1.00
C522   C     0.93059   0.53164   0.37100   0.00000  Uiso   1.00
C523   C     0.96585   0.56396   0.35750   0.00000  Uiso   1.00
H524   H     0.95551   0.58841   0.33122   0.00000  Uiso   1.00
H525   H     0.97675   0.58466   0.38626   0.00000  Uiso   1.00
H526   H     0.99204   0.54285   0.34507   0.00000  Uiso   1.00
H527   H     0.94162   0.50848   0.39806   0.00000  Uiso   1.00
H528   H     0.92167   0.50920   0.34266   0.00000  Uiso   1.00
H529   H     0.88009   0.58106   0.35929   0.00000  Uiso   1.00
H530   H     0.90428   0.58666   0.41076   0.00000  Uiso   1.00
C531   C     0.89403   0.43993   0.11468   0.00000  Uiso   1.00
C532   C     0.93137   0.46922   0.12893   0.00000  Uiso   1.00
C533   C     0.96739   0.43767   0.14206   0.00000  Uiso   1.00
H534   H     0.95792   0.41300   0.16843   0.00000  Uiso   1.00
H535   H     0.97814   0.41720   0.11317   0.00000  Uiso   1.00
H536   H     0.99344   0.45935   0.15422   0.00000  Uiso   1.00
H537   H     0.94142   0.49213   0.10133   0.00000  Uiso   1.00
H538   H     0.92292   0.49196   0.15714   0.00000  Uiso   1.00
H539   H     0.88155   0.41972   0.14274   0.00000  Uiso   1.00
H540   H     0.90470   0.41271   0.09105   0.00000  Uiso   1.00
C541   C     0.08734   0.83333   0.24997   0.00000  Uiso   1.00
C542   C     0.24599   0.83333   0.25003   0.00000  Uiso   1.00
C543   C     0.16674   0.83331   0.16485   0.00000  Uiso   1.00
C544   C     0.16659   0.83331   0.33515   0.00000  Uiso   1.00
C545   C     0.13723   0.69149   0.22735   0.00000  Uiso   1.00
C546   C     0.19620   0.97520   0.27250   0.00000  Uiso   1.00
C547   C     0.19611   0.69149   0.27265   0.00000  Uiso   1.00
C548   C     0.13714   0.97520   0.22750   0.00000  Uiso   1.00
C549   C     0.02129   0.79074   0.24950   0.00000  Uiso   1.00
C550   C     0.31204   0.87593   0.24956   0.00000  Uiso   1.00
C551   C     0.31204   0.79074   0.25050   0.00000  Uiso   1.00
C552   C     0.02129   0.87593   0.25044   0.00000  Uiso   1.00
C553   C     0.13929   0.86109   0.04623   0.00000  Uiso   1.00
C554   C     0.13931   0.80386   0.45321   0.00000  Uiso   1.00
C555   C     0.19404   0.86109   0.45377   0.00000  Uiso   1.00
C556   C     0.19402   0.80386   0.04679   0.00000  Uiso   1.00
C557   C     0.13881   0.86220   0.09225   0.00000  Uiso   1.00
C558   C     0.13860   0.80364   0.40717   0.00000  Uiso   1.00
C559   C     0.19452   0.86220   0.40775   0.00000  Uiso   1.00
C560   C     0.19473   0.80364   0.09283   0.00000  Uiso   1.00
C561   C     0.16681   0.83314   0.11628   0.00000  Uiso   1.00
C562   C     0.16652   0.83314   0.38372   0.00000  Uiso   1.00
C563   C     0.16659   0.83225   0.02392   0.00000  Uiso   1.00
C564   C     0.16674   0.83225   0.47608   0.00000  Uiso   1.00
C565   C     0.29059   0.83334   0.25004   0.00000  Uiso   1.00
C566   C     0.04274   0.83334   0.24996   0.00000  Uiso   1.00
Cu567  Cu    0.16667   0.88022   0.25000   0.00000  Uiso   1.00
Cu568  Cu    0.16667   0.78645   0.25000   0.00000  Uiso   1.00
H569   H     0.11370   0.71020   0.20913   0.00000  Uiso   1.00
H570   H     0.21996   0.95655   0.29037   0.00000  Uiso   1.00
H571   H     0.21964   0.71020   0.29087   0.00000  Uiso   1.00
H572   H     0.11338   0.95655   0.20963   0.00000  Uiso   1.00
H573   H     0.11801   0.88257   0.02737   0.00000  Uiso   1.00
H574   H     0.11797   0.78222   0.47165   0.00000  Uiso   1.00
H575   H     0.21533   0.88257   0.47263   0.00000  Uiso   1.00
H576   H     0.21536   0.78222   0.02835   0.00000  Uiso   1.00
H577   H     0.03731   0.75742   0.24894   0.00000  Uiso   1.00
H578   H     0.29601   0.90925   0.24904   0.00000  Uiso   1.00
H579   H     0.29602   0.75742   0.25106   0.00000  Uiso   1.00
H580   H     0.03732   0.90925   0.25096   0.00000  Uiso   1.00
N581   N     0.16667   0.95069   0.25000   0.00000  Uiso   1.00
N582   N     0.16667   0.71598   0.25000   0.00000  Uiso   1.00
O583   O     0.10655   0.87291   0.24999   0.00000  Uiso   1.00
O584   O     0.22679   0.79375   0.25000   0.00000  Uiso   1.00
O585   O     0.22679   0.87291   0.25000   0.00000  Uiso   1.00
O586   O     0.10655   0.79375   0.24999   0.00000  Uiso   1.00
O587   O     0.16666   0.87293   0.18573   0.00000  Uiso   1.00
O588   O     0.16667   0.79374   0.31427   0.00000  Uiso   1.00
O589   O     0.16667   0.87293   0.31427   0.00000  Uiso   1.00
O590   O     0.16666   0.79374   0.18573   0.00000  Uiso   1.00
C591   C     0.10668   0.89345   0.11349   0.00000  Uiso   1.00
C592   C     0.06941   0.86497   0.12900   0.00000  Uiso   1.00
C593   C     0.03415   0.89730   0.14250   0.00000  Uiso   1.00
H594   H     0.04449   0.92174   0.16878   0.00000  Uiso   1.00
H595   H     0.02324   0.91800   0.11374   0.00000  Uiso   1.00
H596   H     0.00796   0.87618   0.15493   0.00000  Uiso   1.00
H597   H     0.05838   0.84181   0.10194   0.00000  Uiso   1.00
H598   H     0.07832   0.84253   0.15734   0.00000  Uiso   1.00
H599   H     0.11991   0.91439   0.14071   0.00000  Uiso   1.00
H600   H     0.09572   0.91999   0.08924   0.00000  Uiso   1.00
C601   C     0.10597   0.77326   0.38532   0.00000  Uiso   1.00
C602   C     0.06862   0.80256   0.37107   0.00000  Uiso   1.00
C603   C     0.03260   0.77100   0.35794   0.00000  Uiso   1.00
H604   H     0.04208   0.74633   0.33157   0.00000  Uiso   1.00
H605   H     0.02186   0.75053   0.38683   0.00000  Uiso   1.00
H606   H     0.00656   0.79268   0.34578   0.00000  Uiso   1.00
H607   H     0.05858   0.82546   0.39867   0.00000  Uiso   1.00
H608   H     0.07707   0.82530   0.34285   0.00000  Uiso   1.00
H609   H     0.11845   0.75306   0.35726   0.00000  Uiso   1.00
H610   H     0.09530   0.74604   0.40895   0.00000  Uiso   1.00
C611   C     0.22665   0.89345   0.38651   0.00000  Uiso   1.00
C612   C     0.26392   0.86497   0.37100   0.00000  Uiso   1.00
C613   C     0.29918   0.89730   0.35750   0.00000  Uiso   1.00
H614   H     0.28884   0.92174   0.33122   0.00000  Uiso   1.00
H615   H     0.31009   0.91800   0.38626   0.00000  Uiso   1.00
H616   H     0.32537   0.87618   0.34507   0.00000  Uiso   1.00
H617   H     0.27496   0.84181   0.39806   0.00000  Uiso   1.00
H618   H     0.25501   0.84253   0.34266   0.00000  Uiso   1.00
H619   H     0.21342   0.91439   0.35929   0.00000  Uiso   1.00
H620   H     0.23761   0.92000   0.41076   0.00000  Uiso   1.00
C621   C     0.22736   0.77326   0.11468   0.00000  Uiso   1.00
C622   C     0.26471   0.80256   0.12893   0.00000  Uiso   1.00
C623   C     0.30073   0.77100   0.14206   0.00000  Uiso   1.00
H624   H     0.29125   0.74633   0.16843   0.00000  Uiso   1.00
H625   H     0.31148   0.75053   0.11317   0.00000  Uiso   1.00
H626   H     0.32677   0.79268   0.15422   0.00000  Uiso   1.00
H627   H     0.27475   0.82546   0.10133   0.00000  Uiso   1.00
H628   H     0.25626   0.82530   0.15714   0.00000  Uiso   1.00
H629   H     0.21488   0.75306   0.14274   0.00000  Uiso   1.00
H630   H     0.23803   0.74604   0.09105   0.00000  Uiso   1.00
C631   C     0.42068   0.83333   0.24997   0.00000  Uiso   1.00
C632   C     0.57932   0.83333   0.25003   0.00000  Uiso   1.00
C633   C     0.50007   0.83331   0.16485   0.00000  Uiso   1.00
C634   C     0.49993   0.83331   0.33515   0.00000  Uiso   1.00
C635   C     0.47056   0.69149   0.22735   0.00000  Uiso   1.00
C636   C     0.52953   0.97520   0.27250   0.00000  Uiso   1.00
C637   C     0.52944   0.69149   0.27265   0.00000  Uiso   1.00
C638   C     0.47047   0.97520   0.22750   0.00000  Uiso   1.00
C639   C     0.35462   0.79074   0.24950   0.00000  Uiso   1.00
C640   C     0.64537   0.87593   0.24956   0.00000  Uiso   1.00
C641   C     0.64538   0.79074   0.25050   0.00000  Uiso   1.00
C642   C     0.35463   0.87593   0.25044   0.00000  Uiso   1.00
C643   C     0.47263   0.86109   0.04623   0.00000  Uiso   1.00
C644   C     0.47264   0.80386   0.45321   0.00000  Uiso   1.00
C645   C     0.52737   0.86109   0.45377   0.00000  Uiso   1.00
C646   C     0.52735   0.80386   0.04679   0.00000  Uiso   1.00
C647   C     0.47215   0.86220   0.09225   0.00000  Uiso   1.00
C648   C     0.47193   0.80364   0.40717   0.00000  Uiso   1.00
C649   C     0.52785   0.86220   0.40775   0.00000  Uiso   1.00
C650   C     0.52807   0.80364   0.09283   0.00000  Uiso   1.00
C651   C     0.50014   0.83314   0.11628   0.00000  Uiso   1.00
C652   C     0.49986   0.83314   0.38372   0.00000  Uiso   1.00
C653   C     0.49992   0.83225   0.02392   0.00000  Uiso   1.00
C654   C     0.50008   0.83225   0.47608   0.00000  Uiso   1.00
C655   C     0.62393   0.83334   0.25004   0.00000  Uiso   1.00
C656   C     0.37607   0.83334   0.24996   0.00000  Uiso   1.00
Cu657  Cu    0.50000   0.88022   0.25000   0.00000  Uiso   1.00
Cu658  Cu    0.50000   0.78645   0.25000   0.00000  Uiso   1.00
H659   H     0.44703   0.71020   0.20913   0.00000  Uiso   1.00
H660   H     0.55329   0.95655   0.29037   0.00000  Uiso   1.00
H661   H     0.55297   0.71020   0.29087   0.00000  Uiso   1.00
H662   H     0.44671   0.95655   0.20963   0.00000  Uiso   1.00
H663   H     0.45134   0.88257   0.02737   0.00000  Uiso   1.00
H664   H     0.45130   0.78222   0.47165   0.00000  Uiso   1.00
H665   H     0.54866   0.88257   0.47263   0.00000  Uiso   1.00
H666   H     0.54870   0.78222   0.02835   0.00000  Uiso   1.00
H667   H     0.37064   0.75742   0.24894   0.00000  Uiso   1.00
H668   H     0.62935   0.90925   0.24904   0.00000  Uiso   1.00
H669   H     0.62936   0.75742   0.25106   0.00000  Uiso   1.00
H670   H     0.37065   0.90925   0.25096   0.00000  Uiso   1.00
N671   N     0.50000   0.95069   0.25000   0.00000  Uiso   1.00
N672   N     0.50000   0.71598   0.25000   0.00000  Uiso   1.00
O673   O     0.43988   0.87291   0.24999   0.00000  Uiso   1.00
O674   O     0.56012   0.79375   0.25000   0.00000  Uiso   1.00
O675   O     0.56012   0.87291   0.25000   0.00000  Uiso   1.00
O676   O     0.43988   0.79375   0.24999   0.00000  Uiso   1.00
O677   O     0.50000   0.87293   0.18573   0.00000  Uiso   1.00
O678   O     0.50000   0.79374   0.31427   0.00000  Uiso   1.00
O679   O     0.50000   0.87293   0.31427   0.00000  Uiso   1.00
O680   O     0.50000   0.79374   0.18573   0.00000  Uiso   1.00
C681   C     0.44001   0.89345   0.11349   0.00000  Uiso   1.00
C682   C     0.40275   0.86497   0.12900   0.00000  Uiso   1.00
C683   C     0.36749   0.89730   0.14250   0.00000  Uiso   1.00
H684   H     0.37782   0.92174   0.16878   0.00000  Uiso   1.00
H685   H     0.35658   0.91800   0.11374   0.00000  Uiso   1.00
H686   H     0.34129   0.87618   0.15493   0.00000  Uiso   1.00
H687   H     0.39171   0.84181   0.10194   0.00000  Uiso   1.00
H688   H     0.41166   0.84253   0.15734   0.00000  Uiso   1.00
H689   H     0.45324   0.91439   0.14071   0.00000  Uiso   1.00
H690   H     0.42906   0.91999   0.08924   0.00000  Uiso   1.00
C691   C     0.43930   0.77326   0.38532   0.00000  Uiso   1.00
C692   C     0.40196   0.80256   0.37107   0.00000  Uiso   1.00
C693   C     0.36594   0.77100   0.35794   0.00000  Uiso   1.00
H694   H     0.37541   0.74633   0.33157   0.00000  Uiso   1.00
H695   H     0.35519   0.75053   0.38683   0.00000  Uiso   1.00
H696   H     0.33989   0.79268   0.34578   0.00000  Uiso   1.00
H697   H     0.39191   0.82546   0.39867   0.00000  Uiso   1.00
H698   H     0.41041   0.82530   0.34285   0.00000  Uiso   1.00
H699   H     0.45178   0.75306   0.35726   0.00000  Uiso   1.00
H700   H     0.42864   0.74604   0.40895   0.00000  Uiso   1.00
C701   C     0.55999   0.89345   0.38651   0.00000  Uiso   1.00
C702   C     0.59725   0.86497   0.37100   0.00000  Uiso   1.00
C703   C     0.63251   0.89730   0.35750   0.00000  Uiso   1.00
H704   H     0.62218   0.92174   0.33122   0.00000  Uiso   1.00
H705   H     0.64342   0.91800   0.38626   0.00000  Uiso   1.00
H706   H     0.65871   0.87618   0.34507   0.00000  Uiso   1.00
H707   H     0.60829   0.84181   0.39806   0.00000  Uiso   1.00
H708   H     0.58834   0.84253   0.34266   0.00000  Uiso   1.00
H709   H     0.54676   0.91439   0.35929   0.00000  Uiso   1.00
H710   H     0.57094   0.92000   0.41076   0.00000  Uiso   1.00
C711   C     0.56070   0.77326   0.11468   0.00000  Uiso   1.00
C712   C     0.59804   0.80256   0.12893   0.00000  Uiso   1.00
C713   C     0.63406   0.77100   0.14206   0.00000  Uiso   1.00
H714   H     0.62458   0.74633   0.16843   0.00000  Uiso   1.00
H715   H     0.64481   0.75053   0.11317   0.00000  Uiso   1.00
H716   H     0.66011   0.79268   0.15422   0.00000  Uiso   1.00
H717   H     0.60809   0.82546   0.10133   0.00000  Uiso   1.00
H718   H     0.58959   0.82530   0.15714   0.00000  Uiso   1.00
H719   H     0.54822   0.75306   0.14274   0.00000  Uiso   1.00
H720   H     0.57136   0.74604   0.09105   0.00000  Uiso   1.00
C721   C     0.75401   0.83333   0.24997   0.00000  Uiso   1.00
C722   C     0.91266   0.83333   0.25003   0.00000  Uiso   1.00
C723   C     0.83341   0.83331   0.16485   0.00000  Uiso   1.00
C724   C     0.83326   0.83331   0.33515   0.00000  Uiso   1.00
C725   C     0.80389   0.69149   0.22735   0.00000  Uiso   1.00
C726   C     0.86286   0.97520   0.27250   0.00000  Uiso   1.00
C727   C     0.86277   0.69149   0.27265   0.00000  Uiso   1.00
C728   C     0.80380   0.97520   0.22750   0.00000  Uiso   1.00
C729   C     0.68796   0.79074   0.24950   0.00000  Uiso   1.00
C730   C     0.97871   0.87593   0.24956   0.00000  Uiso   1.00
C731   C     0.97871   0.79074   0.25050   0.00000  Uiso   1.00
C732   C     0.68796   0.87593   0.25044   0.00000  Uiso   1.00
C733   C     0.80596   0.86109   0.04623   0.00000  Uiso   1.00
C734   C     0.80598   0.80386   0.45321   0.00000  Uiso   1.00
C735   C     0.86071   0.86109   0.45377   0.00000  Uiso   1.00
C736   C     0.86069   0.80386   0.04679   0.00000  Uiso   1.00
C737   C     0.80548   0.86220   0.09225   0.00000  Uiso   1.00
C738   C     0.80527   0.80364   0.40717   0.00000  Uiso   1.00
C739   C     0.86119   0.86220   0.40775   0.00000  Uiso   1.00
C740   C     0.86140   0.80364   0.09283   0.00000  Uiso   1.00
C741   C     0.83348   0.83314   0.11628   0.00000  Uiso   1.00
C742   C     0.83319   0.83314   0.38372   0.00000  Uiso   1.00
C743   C     0.83326   0.83225   0.02392   0.00000  Uiso   1.00
C744   C     0.83341   0.83225   0.47608   0.00000  Uiso   1.00
C745   C     0.95726   0.83334   0.25004   0.00000  Uiso   1.00
C746   C     0.70940   0.83334   0.24996   0.00000  Uiso   1.00
Cu747  Cu    0.83333   0.88022   0.25000   0.00000  Uiso   1.00
Cu748  Cu    0.83333   0.78645   0.25000   0.00000  Uiso   1.00
H749   H     0.78036   0.71020   0.20913   0.00000  Uiso   1.00
H750   H     0.88662   0.95655   0.29037   0.00000  Uiso   1.00
H751   H     0.88630   0.71020   0.29087   0.00000  Uiso   1.00
H752   H     0.78004   0.95655   0.20963   0.00000  Uiso   1.00
H753   H     0.78467   0.88257   0.02737   0.00000  Uiso   1.00
H754   H     0.78464   0.78222   0.47165   0.00000  Uiso   1.00
H755   H     0.88199   0.88257   0.47263   0.00000  Uiso   1.00
H756   H     0.88203   0.78222   0.02835   0.00000  Uiso   1.00
H757   H     0.70398   0.75742   0.24894   0.00000  Uiso   1.00
H758   H     0.96268   0.90925   0.24904   0.00000  Uiso   1.00
H759   H     0.96269   0.75742   0.25106   0.00000  Uiso   1.00
H760   H     0.70399   0.90925   0.25096   0.00000  Uiso   1.00
N761   N     0.83333   0.95069   0.25000   0.00000  Uiso   1.00
N762   N     0.83333   0.71598   0.25000   0.00000  Uiso   1.00
O763   O     0.77321   0.87291   0.24999   0.00000  Uiso   1.00
O764   O     0.89345   0.79375   0.25000   0.00000  Uiso   1.00
O765   O     0.89345   0.87291   0.25000   0.00000  Uiso   1.00
O766   O     0.77321   0.79375   0.24999   0.00000  Uiso   1.00
O767   O     0.83333   0.87293   0.18573   0.00000  Uiso   1.00
O768   O     0.83334   0.79374   0.31427   0.00000  Uiso   1.00
O769   O     0.83334   0.87293   0.31427   0.00000  Uiso   1.00
O770   O     0.83333   0.79374   0.18573   0.00000  Uiso   1.00
C771   C     0.77335   0.89345   0.11349   0.00000  Uiso   1.00
C772   C     0.73608   0.86497   0.12900   0.00000  Uiso   1.00
C773   C     0.70082   0.89730   0.14250   0.00000  Uiso   1.00
H774   H     0.71116   0.92174   0.16878   0.00000  Uiso   1.00
H775   H     0.68991   0.91800   0.11374   0.00000  Uiso   1.00
H776   H     0.67463   0.87618   0.15493   0.00000  Uiso   1.00
H777   H     0.72504   0.84181   0.10194   0.00000  Uiso   1.00
H778   H     0.74499   0.84253   0.15734   0.00000  Uiso   1.00
H779   H     0.78658   0.91439   0.14071   0.00000  Uiso   1.00
H780   H     0.76239   0.91999   0.08924   0.00000  Uiso   1.00
C781   C     0.77264   0.77326   0.38532   0.00000  Uiso   1.00
C782   C     0.73529   0.80256   0.37107   0.00000  Uiso   1.00
C783   C     0.69927   0.77100   0.35794   0.00000  Uiso   1.00
H784   H     0.70875   0.74633   0.33157   0.00000  Uiso   1.00
H785   H     0.68852   0.75053   0.38683   0.00000  Uiso   1.00
H786   H     0.67323   0.79268   0.34578   0.00000  Uiso   1.00
H787   H     0.72525   0.82546   0.39867   0.00000  Uiso   1.00
H788   H     0.74374   0.82530   0.34285   0.00000  Uiso   1.00
H789   H     0.78512   0.75306   0.35726   0.00000  Uiso   1.00
H790   H     0.76197   0.74604   0.40895   0.00000  Uiso   1.00
C791   C     0.89332   0.89345   0.38651   0.00000  Uiso   1.00
C792   C     0.93059   0.86497   0.37100   0.00000  Uiso   1.00
C793   C     0.96585   0.89730   0.35750   0.00000  Uiso   1.00
H794   H     0.95551   0.92174   0.33122   0.00000  Uiso   1.00
H795   H     0.97675   0.91800   0.38626   0.00000  Uiso   1.00
H796   H     0.99204   0.87618   0.34507   0.00000  Uiso   1.00
H797   H     0.94162   0.84181   0.39806   0.00000  Uiso   1.00
H798   H     0.92167   0.84253   0.34266   0.00000  Uiso   1.00
H799   H     0.88009   0.91439   0.35929   0.00000  Uiso   1.00
H800   H     0.90428   0.92000   0.41076   0.00000  Uiso   1.00
C801   C     0.89403   0.77326   0.11468   0.00000  Uiso   1.00
C802   C     0.93137   0.80256   0.12893   0.00000  Uiso   1.00
C803   C     0.96739   0.77100   0.14206   0.00000  Uiso   1.00
H804   H     0.95792   0.74633   0.16843   0.00000  Uiso   1.00
H805   H     0.97814   0.75053   0.11317   0.00000  Uiso   1.00
H806   H     0.99344   0.79268   0.15422   0.00000  Uiso   1.00
H807   H     0.94142   0.82546   0.10133   0.00000  Uiso   1.00
H808   H     0.92292   0.82530   0.15714   0.00000  Uiso   1.00
H809   H     0.88155   0.75306   0.14274   0.00000  Uiso   1.00
H810   H     0.90470   0.74604   0.09105   0.00000  Uiso   1.00
C811   C     0.08734   0.16667   0.74997   0.00000  Uiso   1.00
C812   C     0.24599   0.16667   0.75003   0.00000  Uiso   1.00
C813   C     0.16674   0.16665   0.66485   0.00000  Uiso   1.00
C814   C     0.16659   0.16665   0.83515   0.00000  Uiso   1.00
C815   C     0.13723   0.02483   0.72735   0.00000  Uiso   1.00
C816   C     0.19620   0.30854   0.77250   0.00000  Uiso   1.00
C817   C     0.19611   0.02483   0.77265   0.00000  Uiso   1.00
C818   C     0.13714   0.30854   0.72750   0.00000  Uiso   1.00
C819   C     0.02129   0.12407   0.74950   0.00000  Uiso   1.00
C820   C     0.31204   0.20927   0.74956   0.00000  Uiso   1.00
C821   C     0.31204   0.12407   0.75050   0.00000  Uiso   1.00
C822   C     0.02129   0.20927   0.75044   0.00000  Uiso   1.00
C823   C     0.13929   0.19443   0.54623   0.00000  Uiso   1.00
C824   C     0.13931   0.13719   0.95321   0.00000  Uiso   1.00
C825   C     0.19404   0.19443   0.95377   0.00000  Uiso   1.00
C826   C     0.19402   0.13719   0.54679   0.00000  Uiso   1.00
C827   C     0.13881   0.19553   0.59225   0.00000  Uiso   1.00
C828   C     0.13860   0.13698   0.90717   0.00000  Uiso   1.00
C829   C     0.19452   0.19553   0.90775   0.00000  Uiso   1.00
C830   C     0.19473   0.13698   0.59283   0.00000  Uiso   1.00
C831   C     0.16681   0.16647   0.61628   0.00000  Uiso   1.00
C832   C     0.16652   0.16647   0.88372   0.00000  Uiso   1.00
C833   C     0.16659   0.16559   0.52392   0.00000  Uiso   1.00
C834   C     0.16674   0.16559   0.97608   0.00000  Uiso   1.00
C835   C     0.29059   0.16667   0.75004   0.00000  Uiso   1.00
C836   C     0.04274   0.16667   0.74996   0.00000  Uiso   1.00
Cu837  Cu    0.16667   0.21355   0.75000   0.00000  Uiso   1.00
Cu838  Cu    0.16667   0.11978   0.75000   0.00000  Uiso   1.00
H839   H     0.11370   0.04353   0.70913   0.00000  Uiso   1.00
H840   H     0.21996   0.28989   0.79037   0.00000  Uiso   1.00
H841   H     0.21964   0.04353   0.79087   0.00000  Uiso   1.00
H842   H     0.11338   0.28989   0.70963   0.00000  Uiso   1.00
H843   H     0.11801   0.21590   0.52737   0.00000  Uiso   1.00
H844   H     0.11797   0.11555   0.97165   0.00000  Uiso   1.00
H845   H     0.21533   0.21590   0.97263   0.00000  Uiso   1.00
H846   H     0.21536   0.11555   0.52835   0.00000  Uiso   1.00
H847   H     0.03731   0.09075   0.74894   0.00000  Uiso   1.00
H848   H     0.29601   0.24259   0.74904   0.00000  Uiso   1.00
H849   H     0.29602   0.09075   0.75106   0.00000  Uiso   1.00
H850   H     0.03732   0.24259   0.75096   0.00000  Uiso   1.00
N851   N     0.16667   0.28402   0.75000   0.00000  Uiso   1.00
N852   N     0.16667   0.04931   0.75000   0.00000  Uiso   1.00
O853   O     0.10655   0.20625   0.74999   0.00000  Uiso   1.00
O854   O     0.22679   0.12709   0.75000   0.00000  Uiso   1.00
O855   O     0.22679   0.20625   0.75000   0.00000  Uiso   1.00
O856   O     0.10655   0.12709   0.74999   0.00000  Uiso   1.00
O857   O     0.16666   0.20626   0.68573   0.00000  Uiso   1.00
O858   O     0.16667   0.12707   0.81427   0.00000  Uiso   1.00
O859   O     0.16667   0.20626   0.81427   0.00000  Uiso   1.00
O860   O     0.16666   0.12707   0.68573   0.00000  Uiso   1.00
C861   C     0.10668   0.22679   0.61349   0.00000  Uiso   1.00
C862   C     0.06941   0.19830   0.62900   0.00000  Uiso   1.00
C863   C     0.03415   0.23063   0.64250   0.00000  Uiso   1.00
H864   H     0.04449   0.25507   0.66878   0.00000  Uiso   1.00
H865   H     0.02324   0.25133   0.61374   0.00000  Uiso   1.00
H866   H     0.00796   0.20951   0.65493   0.00000  Uiso   1.00
H867   H     0.05838   0.17514   0.60194   0.00000  Uiso   1.00
H868   H     0.07832   0.17587   0.65734   0.00000  Uiso   1.00
H869   H     0.11991   0.24773   0.64071   0.00000  Uiso   1.00
H870   H     0.09572   0.25333   0.58924   0.00000  Uiso   1.00
C871   C     0.10597   0.10660   0.88532   0.00000  Uiso   1.00
C872   C     0.06862   0.13589   0.87107   0.00000  Uiso   1.00
C873   C     0.03260   0.10434   0.85794   0.00000  Uiso   1.00
H874   H     0.04208   0.07966   0.83157   0.00000  Uiso   1.00
H875   H     0.02186   0.08387   0.88683   0.00000  Uiso   1.00
H876   H     0.00656   0.12602   0.84578   0.00000  Uiso   1.00
H877   H     0.05858   0.15880   0.89867   0.00000  Uiso   1.00
H878   H     0.07707   0.15863   0.84285   0.00000  Uiso   1.00
H879   H     0.11845   0.08639   0.85726   0.00000  Uiso   1.00
H880   H     0.09530   0.07937   0.90895   0.00000  Uiso   1.00
C881   C     0.22665   0.22679   0.88651   0.00000  Uiso   1.00
C882   C     0.26392   0.19830   0.87100   0.00000  Uiso   1.00
C883   C     0.29918   0.23063   0.85750   0.00000  Uiso   1.00
H884   H     0.28884   0.25507   0.83122   0.00000  Uiso   1.00
H885   H     0.31009   0.25133   0.88626   0.00000  Uiso   1.00
H886   H     0.32537   0.20951   0.84507   0.00000  Uiso   1.00
H887   H     0.27496   0.17514   0.89806   0.00000  Uiso   1.00
H888   H     0.25501   0.17587   0.84266   0.00000  Uiso   1.00
H889   H     0.21342   0.24773   0.85929   0.00000  Uiso   1.00
H890   H     0.23761   0.25333   0.91076   0.00000  Uiso   1.00
C891   C     0.22736   0.10660   0.61468   0.00000  Uiso   1.00
C892   C     0.26471   0.13589   0.62893   0.00000  Uiso   1.00
C893   C     0.30073   0.10434   0.64206   0.00000  Uiso   1.00
H894   H     0.29125   0.07966   0.66843   0.00000  Uiso   1.00
H895   H     0.31148   0.08387   0.61317   0.00000  Uiso   1.00
H896   H     0.32677   0.12602   0.65422   0.00000  Uiso   1.00
H897   H     0.27475   0.15880   0.60133   0.00000  Uiso   1.00
H898   H     0.25626   0.15863   0.65714   0.00000  Uiso   1.00
H899   H     0.21488   0.08639   0.64274   0.00000  Uiso   1.00
H900   H     0.23803   0.07937   0.59105   0.00000  Uiso   1.00
C901   C     0.42068   0.16667   0.74997   0.00000  Uiso   1.00
C902   C     0.57932   0.16667   0.75003   0.00000  Uiso   1.00
C903   C     0.50007   0.16665   0.66485   0.00000  Uiso   1.00
C904   C     0.49993   0.16665   0.83515   0.00000  Uiso   1.00
C905   C     0.47056   0.02483   0.72735   0.00000  Uiso   1.00
C906   C     0.52953   0.30854   0.77250   0.00000  Uiso   1.00
C907   C     0.52944   0.02483   0.77265   0.00000  Uiso   1.00
C908   C     0.47047   0.30854   0.72750   0.00000  Uiso   1.00
C909   C     0.35462   0.12407   0.74950   0.00000  Uiso   1.00
C910   C     0.64537   0.20927   0.74956   0.00000  Uiso   1.00
C911   C     0.64538   0.12407   0.75050   0.00000  Uiso   1.00
C912   C     0.35463   0.20927   0.75044   0.00000  Uiso   1.00
C913   C     0.47263   0.19443   0.54623   0.00000  Uiso   1.00
C914   C     0.47264   0.13719   0.95321   0.00000  Uiso   1.00
C915   C     0.52737   0.19443   0.95377   0.00000  Uiso   1.00
C916   C     0.52735   0.13719   0.54679   0.00000  Uiso   1.00
C917   C     0.47215   0.19553   0.59225   0.00000  Uiso   1.00
C918   C     0.47193   0.13698   0.90717   0.00000  Uiso   1.00
C919   C     0.52785   0.19553   0.90775   0.00000  Uiso   1.00
C920   C     0.52807   0.13698   0.59283   0.00000  Uiso   1.00
C921   C     0.50014   0.16647   0.61628   0.00000  Uiso   1.00
C922   C     0.49986   0.16647   0.88372   0.00000  Uiso   1.00
C923   C     0.49992   0.16559   0.52392   0.00000  Uiso   1.00
C924   C     0.50008   0.16559   0.97608   0.00000  Uiso   1.00
C925   C     0.62393   0.16667   0.75004   0.00000  Uiso   1.00
C926   C     0.37607   0.16667   0.74996   0.00000  Uiso   1.00
Cu927  Cu    0.50000   0.21355   0.75000   0.00000  Uiso   1.00
Cu928  Cu    0.50000   0.11978   0.75000   0.00000  Uiso   1.00
H929   H     0.44703   0.04353   0.70913   0.00000  Uiso   1.00
H930   H     0.55329   0.28989   0.79037   0.00000  Uiso   1.00
H931   H     0.55297   0.04353   0.79087   0.00000  Uiso   1.00
H932   H     0.44671   0.28989   0.70963   0.00000  Uiso   1.00
H933   H     0.45134   0.21590   0.52737   0.00000  Uiso   1.00
H934   H     0.45130   0.11555   0.97165   0.00000  Uiso   1.00
H935   H     0.54866   0.21590   0.97263   0.00000  Uiso   1.00
H936   H     0.54870   0.11555   0.52835   0.00000  Uiso   1.00
H937   H     0.37064   0.09075   0.74894   0.00000  Uiso   1.00
H938   H     0.62935   0.24259   0.74904   0.00000  Uiso   1.00
H939   H     0.62936   0.09075   0.75106   0.00000  Uiso   1.00
H940   H     0.37065   0.24259   0.75096   0.00000  Uiso   1.00
N941   N     0.50000   0.28402   0.75000   0.00000  Uiso   1.00
N942   N     0.50000   0.04931   0.75000   0.00000  Uiso   1.00
O943   O     0.43988   0.20625   0.74999   0.00000  Uiso   1.00
O944   O     0.56012   0.12709   0.75000   0.00000  Uiso   1.00
O945   O     0.56012   0.20625   0.75000   0.00000  Uiso   1.00
O946   O     0.43988   0.12709   0.74999   0.00000  Uiso   1.00
O947   O     0.50000   0.20626   0.68573   0.00000  Uiso   1.00
O948   O     0.50000   0.12707   0.81427   0.00000  Uiso   1.00
O949   O     0.50000   0.20626   0.81427   0.00000  Uiso   1.00
O950   O     0.50000   0.12707   0.68573   0.00000  Uiso   1.00
C951   C     0.44001   0.22679   0.61349   0.00000  Uiso   1.00
C952   C     0.40275   0.19830   0.62900   0.00000  Uiso   1.00
C953   C     0.36749   0.23063   0.64250   0.00000  Uiso   1.00
H954   H     0.37782   0.25507   0.66878   0.00000  Uiso   1.00
H955   H     0.35658   0.25133   0.61374   0.00000  Uiso   1.00
H956   H     0.34129   0.20951   0.65493   0.00000  Uiso   1.00
H957   H     0.39171   0.17514   0.60194   0.00000  Uiso   1.00
H958   H     0.41166   0.17587   0.65734   0.00000  Uiso   1.00
H959   H     0.45324   0.24773   0.64071   0.00000  Uiso   1.00
H960   H     0.42906   0.25333   0.58924   0.00000  Uiso   1.00
C961   C     0.43930   0.10660   0.88532   0.00000  Uiso   1.00
C962   C     0.40196   0.13589   0.87107   0.00000  Uiso   1.00
C963   C     0.36594   0.10434   0.85794   0.00000  Uiso   1.00
H964   H     0.37541   0.07966   0.83157   0.00000  Uiso   1.00
H965   H     0.35519   0.08387   0.88683   0.00000  Uiso   1.00
H966   H     0.33989   0.12602   0.84578   0.00000  Uiso   1.00
H967   H     0.39191   0.15880   0.89867   0.00000  Uiso   1.00
H968   H     0.41041   0.15863   0.84285   0.00000  Uiso   1.00
H969   H     0.45178   0.08639   0.85726   0.00000  Uiso   1.00
H970   H     0.42864   0.07937   0.90895   0.00000  Uiso   1.00
C971   C     0.55999   0.22679   0.88651   0.00000  Uiso   1.00
C972   C     0.59725   0.19830   0.87100   0.00000  Uiso   1.00
C973   C     0.63251   0.23063   0.85750   0.00000  Uiso   1.00
H974   H     0.62218   0.25507   0.83122   0.00000  Uiso   1.00
H975   H     0.64342   0.25133   0.88626   0.00000  Uiso   1.00
H976   H     0.65871   0.20951   0.84507   0.00000  Uiso   1.00
H977   H     0.60829   0.17514   0.89806   0.00000  Uiso   1.00
H978   H     0.58834   0.17587   0.84266   0.00000  Uiso   1.00
H979   H     0.54676   0.24773   0.85929   0.00000  Uiso   1.00
H980   H     0.57094   0.25333   0.91076   0.00000  Uiso   1.00
C981   C     0.56070   0.10660   0.61468   0.00000  Uiso   1.00
C982   C     0.59804   0.13589   0.62893   0.00000  Uiso   1.00
C983   C     0.63406   0.10434   0.64206   0.00000  Uiso   1.00
H984   H     0.62458   0.07966   0.66843   0.00000  Uiso   1.00
H985   H     0.64481   0.08387   0.61317   0.00000  Uiso   1.00
H986   H     0.66011   0.12602   0.65422   0.00000  Uiso   1.00
H987   H     0.60809   0.15880   0.60133   0.00000  Uiso   1.00
H988   H     0.58959   0.15863   0.65714   0.00000  Uiso   1.00
H989   H     0.54822   0.08639   0.64274   0.00000  Uiso   1.00
H990   H     0.57136   0.07937   0.59105   0.00000  Uiso   1.00
C991   C     0.75401   0.16667   0.74997   0.00000  Uiso   1.00
C992   C     0.91266   0.16667   0.75003   0.00000  Uiso   1.00
C993   C     0.83341   0.16665   0.66485   0.00000  Uiso   1.00
C994   C     0.83326   0.16665   0.83515   0.00000  Uiso   1.00
C995   C     0.80389   0.02483   0.72735   0.00000  Uiso   1.00
C996   C     0.86286   0.30854   0.77250   0.00000  Uiso   1.00
C997   C     0.86277   0.02483   0.77265   0.00000  Uiso   1.00
C998   C     0.80380   0.30854   0.72750   0.00000  Uiso   1.00
C999   C     0.68796   0.12407   0.74950   0.00000  Uiso   1.00
C1000  C     0.97871   0.20927   0.74956   0.00000  Uiso   1.00
C1001  C     0.97871   0.12407   0.75050   0.00000  Uiso   1.00
C1002  C     0.68796   0.20927   0.75044   0.00000  Uiso   1.00
C1003  C     0.80596   0.19443   0.54623   0.00000  Uiso   1.00
C1004  C     0.80598   0.13719   0.95321   0.00000  Uiso   1.00
C1005  C     0.86071   0.19443   0.95377   0.00000  Uiso   1.00
C1006  C     0.86069   0.13719   0.54679   0.00000  Uiso   1.00
C1007  C     0.80548   0.19553   0.59225   0.00000  Uiso   1.00
C1008  C     0.80527   0.13698   0.90717   0.00000  Uiso   1.00
C1009  C     0.86119   0.19553   0.90775   0.00000  Uiso   1.00
C1010  C     0.86140   0.13698   0.59283   0.00000  Uiso   1.00
C1011  C     0.83348   0.16647   0.61628   0.00000  Uiso   1.00
C1012  C     0.83319   0.16647   0.88372   0.00000  Uiso   1.00
C1013  C     0.83326   0.16559   0.52392   0.00000  Uiso   1.00
C1014  C     0.83341   0.16559   0.97608   0.00000  Uiso   1.00
C1015  C     0.95726   0.16667   0.75004   0.00000  Uiso   1.00
C1016  C     0.70940   0.16667   0.74996   0.00000  Uiso   1.00
Cu1017 Cu    0.83333   0.21355   0.75000   0.00000  Uiso   1.00
Cu1018 Cu    0.83333   0.11978   0.75000   0.00000  Uiso   1.00
H1019  H     0.78036   0.04353   0.70913   0.00000  Uiso   1.00
H1020  H     0.88662   0.28989   0.79037   0.00000  Uiso   1.00
H1021  H     0.88630   0.04353   0.79087   0.00000  Uiso   1.00
H1022  H     0.78004   0.28989   0.70963   0.00000  Uiso   1.00
H1023  H     0.78467   0.21590   0.52737   0.00000  Uiso   1.00
H1024  H     0.78464   0.11555   0.97165   0.00000  Uiso   1.00
H1025  H     0.88199   0.21590   0.97263   0.00000  Uiso   1.00
H1026  H     0.88203   0.11555   0.52835   0.00000  Uiso   1.00
H1027  H     0.70398   0.09075   0.74894   0.00000  Uiso   1.00
H1028  H     0.96268   0.24259   0.74904   0.00000  Uiso   1.00
H1029  H     0.96269   0.09075   0.75106   0.00000  Uiso   1.00
H1030  H     0.70399   0.24259   0.75096   0.00000  Uiso   1.00
N1031  N     0.83333   0.28402   0.75000   0.00000  Uiso   1.00
N1032  N     0.83333   0.04931   0.75000   0.00000  Uiso   1.00
O1033  O     0.77321   0.20625   0.74999   0.00000  Uiso   1.00
O1034  O     0.89345   0.12709   0.75000   0.00000  Uiso   1.00
O1035  O     0.89345   0.20625   0.75000   0.00000  Uiso   1.00
O1036  O     0.77321   0.12709   0.74999   0.00000  Uiso   1.00
O1037  O     0.83333   0.20626   0.68573   0.00000  Uiso   1.00
O1038  O     0.83334   0.12707   0.81427   0.00000  Uiso   1.00
O1039  O     0.83334   0.20626   0.81427   0.00000  Uiso   1.00
O1040  O     0.83333   0.12707   0.68573   0.00000  Uiso   1.00
C1041  C     0.77335   0.22679   0.61349   0.00000  Uiso   1.00
C1042  C     0.73608   0.19830   0.62900   0.00000  Uiso   1.00
C1043  C     0.70082   0.23063   0.64250   0.00000  Uiso   1.00
H1044  H     0.71116   0.25507   0.66878   0.00000  Uiso   1.00
H1045  H     0.68991   0.25133   0.61374   0.00000  Uiso   1.00
H1046  H     0.67463   0.20951   0.65493   0.00000  Uiso   1.00
H1047  H     0.72504   0.17514   0.60194   0.00000  Uiso   1.00
H1048  H     0.74499   0.17587   0.65734   0.00000  Uiso   1.00
H1049  H     0.78658   0.24773   0.64071   0.00000  Uiso   1.00
H1050  H     0.76239   0.25333   0.58924   0.00000  Uiso   1.00
C1051  C     0.77264   0.10660   0.88532   0.00000  Uiso   1.00
C1052  C     0.73529   0.13589   0.87107   0.00000  Uiso   1.00
C1053  C     0.69927   0.10434   0.85794   0.00000  Uiso   1.00
H1054  H     0.70875   0.07966   0.83157   0.00000  Uiso   1.00
H1055  H     0.68852   0.08387   0.88683   0.00000  Uiso   1.00
H1056  H     0.67323   0.12602   0.84578   0.00000  Uiso   1.00
H1057  H     0.72525   0.15880   0.89867   0.00000  Uiso   1.00
H1058  H     0.74374   0.15863   0.84285   0.00000  Uiso   1.00
H1059  H     0.78512   0.08639   0.85726   0.00000  Uiso   1.00
H1060  H     0.76197   0.07937   0.90895   0.00000  Uiso   1.00
C1061  C     0.89332   0.22679   0.88651   0.00000  Uiso   1.00
C1062  C     0.93059   0.19830   0.87100   0.00000  Uiso   1.00
C1063  C     0.96585   0.23063   0.85750   0.00000  Uiso   1.00
H1064  H     0.95551   0.25507   0.83122   0.00000  Uiso   1.00
H1065  H     0.97675   0.25133   0.88626   0.00000  Uiso   1.00
H1066  H     0.99204   0.20951   0.84507   0.00000  Uiso   1.00
H1067  H     0.94162   0.17514   0.89806   0.00000  Uiso   1.00
H1068  H     0.92167   0.17587   0.84266   0.00000  Uiso   1.00
H1069  H     0.88009   0.24773   0.85929   0.00000  Uiso   1.00
H1070  H     0.90428   0.25333   0.91076   0.00000  Uiso   1.00
C1071  C     0.89403   0.10660   0.61468   0.00000  Uiso   1.00
C1072  C     0.93137   0.13589   0.62893   0.00000  Uiso   1.00
C1073  C     0.96739   0.10434   0.64206   0.00000  Uiso   1.00
H1074  H     0.95792   0.07966   0.66843   0.00000  Uiso   1.00
H1075  H     0.97814   0.08387   0.61317   0.00000  Uiso   1.00
H1076  H     0.99344   0.12602   0.65422   0.00000  Uiso   1.00
H1077  H     0.94142   0.15880   0.60133   0.00000  Uiso   1.00
H1078  H     0.92292   0.15863   0.65714   0.00000  Uiso   1.00
H1079  H     0.88155   0.08639   0.64274   0.00000  Uiso   1.00
H1080  H     0.90470   0.07937   0.59105   0.00000  Uiso   1.00
C1081  C     0.08734   0.50000   0.74997   0.00000  Uiso   1.00
C1082  C     0.24599   0.50000   0.75003   0.00000  Uiso   1.00
C1083  C     0.16674   0.49998   0.66485   0.00000  Uiso   1.00
C1084  C     0.16659   0.49998   0.83515   0.00000  Uiso   1.00
C1085  C     0.13723   0.35816   0.72735   0.00000  Uiso   1.00
C1086  C     0.19620   0.64187   0.77250   0.00000  Uiso   1.00
C1087  C     0.19611   0.35816   0.77265   0.00000  Uiso   1.00
C1088  C     0.13714   0.64187   0.72750   0.00000  Uiso   1.00
C1089  C     0.02129   0.45741   0.74950   0.00000  Uiso   1.00
C1090  C     0.31204   0.54260   0.74956   0.00000  Uiso   1.00
C1091  C     0.31204   0.45741   0.75050   0.00000  Uiso   1.00
C1092  C     0.02129   0.54260   0.75044   0.00000  Uiso   1.00
C1093  C     0.13929   0.52776   0.54623   0.00000  Uiso   1.00
C1094  C     0.13931   0.47053   0.95321   0.00000  Uiso   1.00
C1095  C     0.19404   0.52776   0.95377   0.00000  Uiso   1.00
C1096  C     0.19402   0.47053   0.54679   0.00000  Uiso   1.00
C1097  C     0.13881   0.52887   0.59225   0.00000  Uiso   1.00
C1098  C     0.13860   0.47031   0.90717   0.00000  Uiso   1.00
C1099  C     0.19452   0.52887   0.90775   0.00000  Uiso   1.00
C1100  C     0.19473   0.47031   0.59283   0.00000  Uiso   1.00
C1101  C     0.16681   0.49980   0.61628   0.00000  Uiso   1.00
C1102  C     0.16652   0.49980   0.88372   0.00000  Uiso   1.00
C1103  C     0.16659   0.49892   0.52392   0.00000  Uiso   1.00
C1104  C     0.16674   0.49892   0.97608   0.00000  Uiso   1.00
C1105  C     0.29059   0.50000   0.75004   0.00000  Uiso   1.00
C1106  C     0.04274   0.50000   0.74996   0.00000  Uiso   1.00
Cu1107 Cu    0.16667   0.54689   0.75000   0.00000  Uiso   1.00
Cu1108 Cu    0.16667   0.45311   0.75000   0.00000  Uiso   1.00
H1109  H     0.11370   0.37686   0.70913   0.00000  Uiso   1.00
H1110  H     0.21996   0.62322   0.79037   0.00000  Uiso   1.00
H1111  H     0.21964   0.37686   0.79087   0.00000  Uiso   1.00
H1112  H     0.11338   0.62322   0.70963   0.00000  Uiso   1.00
H1113  H     0.11801   0.54923   0.52737   0.00000  Uiso   1.00
H1114  H     0.11797   0.44889   0.97165   0.00000  Uiso   1.00
H1115  H     0.21533   0.54923   0.97263   0.00000  Uiso   1.00
H1116  H     0.21536   0.44889   0.52835   0.00000  Uiso   1.00
H1117  H     0.03731   0.42409   0.74894   0.00000  Uiso   1.00
H1118  H     0.29601   0.57592   0.74904   0.00000  Uiso   1.00
H1119  H     0.29602   0.42409   0.75106   0.00000  Uiso   1.00
H1120  H     0.03732   0.57592   0.75096   0.00000  Uiso   1.00
N1121  N     0.16667   0.61736   0.75000   0.00000  Uiso   1.00
N1122  N     0.16667   0.38264   0.75000   0.00000  Uiso   1.00
O1123  O     0.10655   0.53958   0.74999   0.00000  Uiso   1.00
O1124  O     0.22679   0.46042   0.75000   0.00000  Uiso   1.00
O1125  O     0.22679   0.53958   0.75000   0.00000  Uiso   1.00
O1126  O     0.10655   0.46042   0.74999   0.00000  Uiso   1.00
O1127  O     0.16666   0.53959   0.68573   0.00000  Uiso   1.00
O1128  O     0.16667   0.46041   0.81427   0.00000  Uiso   1.00
O1129  O     0.16667   0.53959   0.81427   0.00000  Uiso   1.00
O1130  O     0.16666   0.46041   0.68573   0.00000  Uiso   1.00
C1131  C     0.10668   0.56012   0.61349   0.00000  Uiso   1.00
C1132  C     0.06941   0.53164   0.62900   0.00000  Uiso   1.00
C1133  C     0.03415   0.56396   0.64250   0.00000  Uiso   1.00
H1134  H     0.04449   0.58841   0.66878   0.00000  Uiso   1.00
H1135  H     0.02324   0.58466   0.61374   0.00000  Uiso   1.00
H1136  H     0.00796   0.54285   0.65493   0.00000  Uiso   1.00
H1137  H     0.05838   0.50848   0.60194   0.00000  Uiso   1.00
H1138  H     0.07832   0.50920   0.65734   0.00000  Uiso   1.00
H1139  H     0.11991   0.58106   0.64071   0.00000  Uiso   1.00
H1140  H     0.09572   0.58666   0.58924   0.00000  Uiso   1.00
C1141  C     0.10597   0.43993   0.88532   0.00000  Uiso   1.00
C1142  C     0.06862   0.46922   0.87107   0.00000  Uiso   1.00
C1143  C     0.03260   0.43767   0.85794   0.00000  Uiso   1.00
H1144  H     0.04208   0.41300   0.83157   0.00000  Uiso   1.00
H1145  H     0.02186   0.41720   0.88683   0.00000  Uiso   1.00
H1146  H     0.00656   0.45935   0.84578   0.00000  Uiso   1.00
H1147  H     0.05858   0.49213   0.89867   0.00000  Uiso   1.00
H1148  H     0.07707   0.49196   0.84285   0.00000  Uiso   1.00
H1149  H     0.11845   0.41972   0.85726   0.00000  Uiso   1.00
H1150  H     0.09530   0.41271   0.90895   0.00000  Uiso   1.00
C1151  C     0.22665   0.56012   0.88651   0.00000  Uiso   1.00
C1152  C     0.26392   0.53164   0.87100   0.00000  Uiso   1.00
C1153  C     0.29918   0.56396   0.85750   0.00000  Uiso   1.00
H1154  H     0.28884   0.58841   0.83122   0.00000  Uiso   1.00
H1155  H     0.31009   0.58466   0.88626   0.00000  Uiso   1.00
H1156  H     0.32537   0.54285   0.84507   0.00000  Uiso   1.00
H1157  H     0.27496   0.50848   0.89806   0.00000  Uiso   1.00
H1158  H     0.25501   0.50920   0.84266   0.00000  Uiso   1.00
H1159  H     0.21342   0.58106   0.85929   0.00000  Uiso   1.00
H1160  H     0.23761   0.58666   0.91076   0.00000  Uiso   1.00
C1161  C     0.22736   0.43993   0.61468   0.00000  Uiso   1.00
C1162  C     0.26471   0.46922   0.62893   0.00000  Uiso   1.00
C1163  C     0.30073   0.43767   0.64206   0.00000  Uiso   1.00
H1164  H     0.29125   0.41300   0.66843   0.00000  Uiso   1.00
H1165  H     0.31148   0.41720   0.61317   0.00000  Uiso   1.00
H1166  H     0.32677   0.45935   0.65422   0.00000  Uiso   1.00
H1167  H     0.27475   0.49213   0.60133   0.00000  Uiso   1.00
H1168  H     0.25626   0.49196   0.65714   0.00000  Uiso   1.00
H1169  H     0.21488   0.41972   0.64274   0.00000  Uiso   1.00
H1170  H     0.23803   0.41271   0.59105   0.00000  Uiso   1.00
C1171  C     0.42068   0.50000   0.74997   0.00000  Uiso   1.00
C1172  C     0.57932   0.50000   0.75003   0.00000  Uiso   1.00
C1173  C     0.50007   0.49998   0.66485   0.00000  Uiso   1.00
C1174  C     0.49993   0.49998   0.83515   0.00000  Uiso   1.00
C1175  C     0.47056   0.35816   0.72735   0.00000  Uiso   1.00
C1176  C     0.52953   0.64187   0.77250   0.00000  Uiso   1.00
C1177  C     0.52944   0.35816   0.77265   0.00000  Uiso   1.00
C1178  C     0.47047   0.64187   0.72750   0.00000  Uiso   1.00
C1179  C     0.35462   0.45741   0.74950   0.00000  Uiso   1.00
C1180  C     0.64537   0.54260   0.74956   0.00000  Uiso   1.00
C1181  C     0.64538   0.45741   0.75050   0.00000  Uiso   1.00
C1182  C     0.35463   0.54260   0.75044   0.00000  Uiso   1.00
C1183  C     0.47263   0.52776   0.54623   0.00000  Uiso   1.00
C1184  C     0.47264   0.47053   0.95321   0.00000  Uiso   1.00
C1185  C     0.52737   0.52776   0.95377   0.00000  Uiso   1.00
C1186  C     0.52735   0.47053   0.54679   0.00000  Uiso   1.00
C1187  C     0.47215   0.52887   0.59225   0.00000  Uiso   1.00
C1188  C     0.47193   0.47031   0.90717   0.00000  Uiso   1.00
C1189  C     0.52785   0.52887   0.90775   0.00000  Uiso   1.00
C1190  C     0.52807   0.47031   0.59283   0.00000  Uiso   1.00
C1191  C     0.50014   0.49980   0.61628   0.00000  Uiso   1.00
C1192  C     0.49986   0.49980   0.88372   0.00000  Uiso   1.00
C1193  C     0.49992   0.49892   0.52392   0.00000  Uiso   1.00
C1194  C     0.50008   0.49892   0.97608   0.00000  Uiso   1.00
C1195  C     0.62393   0.50000   0.75004   0.00000  Uiso   1.00
C1196  C     0.37607   0.50000   0.74996   0.00000  Uiso   1.00
Cu1197 Cu    0.50000   0.54689   0.75000   0.00000  Uiso   1.00
Cu1198 Cu    0.50000   0.45311   0.75000   0.00000  Uiso   1.00
H1199  H     0.44703   0.37686   0.70913   0.00000  Uiso   1.00
H1200  H     0.55329   0.62322   0.79037   0.00000  Uiso   1.00
H1201  H     0.55297   0.37686   0.79087   0.00000  Uiso   1.00
H1202  H     0.44671   0.62322   0.70963   0.00000  Uiso   1.00
H1203  H     0.45134   0.54923   0.52737   0.00000  Uiso   1.00
H1204  H     0.45130   0.44889   0.97165   0.00000  Uiso   1.00
H1205  H     0.54866   0.54923   0.97263   0.00000  Uiso   1.00
H1206  H     0.54870   0.44889   0.52835   0.00000  Uiso   1.00
H1207  H     0.37064   0.42409   0.74894   0.00000  Uiso   1.00
H1208  H     0.62935   0.57592   0.74904   0.00000  Uiso   1.00
H1209  H     0.62936   0.42409   0.75106   0.00000  Uiso   1.00
H1210  H     0.37065   0.57592   0.75096   0.00000  Uiso   1.00
N1211  N     0.50000   0.61736   0.75000   0.00000  Uiso   1.00
N1212  N     0.50000   0.38264   0.75000   0.00000  Uiso   1.00
O1213  O     0.43988   0.53958   0.74999   0.00000  Uiso   1.00
O1214  O     0.56012   0.46042   0.75000   0.00000  Uiso   1.00
O1215  O     0.56012   0.53958   0.75000   0.00000  Uiso   1.00
O1216  O     0.43988   0.46042   0.74999   0.00000  Uiso   1.00
O1217  O     0.50000   0.53959   0.68573   0.00000  Uiso   1.00
O1218  O     0.50000   0.46041   0.81427   0.00000  Uiso   1.00
O1219  O     0.50000   0.53959   0.81427   0.00000  Uiso   1.00
O1220  O     0.50000   0.46041   0.68573   0.00000  Uiso   1.00
C1221  C     0.44001   0.56012   0.61349   0.00000  Uiso   1.00
C1222  C     0.40275   0.53164   0.62900   0.00000  Uiso   1.00
C1223  C     0.36749   0.56396   0.64250   0.00000  Uiso   1.00
H1224  H     0.37782   0.58841   0.66878   0.00000  Uiso   1.00
H1225  H     0.35658   0.58466   0.61374   0.00000  Uiso   1.00
H1226  H     0.34129   0.54285   0.65493   0.00000  Uiso   1.00
H1227  H     0.39171   0.50848   0.60194   0.00000  Uiso   1.00
H1228  H     0.41166   0.50920   0.65734   0.00000  Uiso   1.00
H1229  H     0.45324   0.58106   0.64071   0.00000  Uiso   1.00
H1230  H     0.42906   0.58666   0.58924   0.00000  Uiso   1.00
C1231  C     0.43930   0.43993   0.88532   0.00000  Uiso   1.00
C1232  C     0.40196   0.46922   0.87107   0.00000  Uiso   1.00
C1233  C     0.36594   0.43767   0.85794   0.00000  Uiso   1.00
H1234  H     0.37541   0.41300   0.83157   0.00000  Uiso   1.00
H1235  H     0.35519   0.41720   0.88683   0.00000  Uiso   1.00
H1236  H     0.33989   0.45935   0.84578   0.00000  Uiso   1.00
H1237  H     0.39191   0.49213   0.89867   0.00000  Uiso   1.00
H1238  H     0.41041   0.49196   0.84285   0.00000  Uiso   1.00
H1239  H     0.45178   0.41972   0.85726   0.00000  Uiso   1.00
H1240  H     0.42864   0.41271   0.90895   0.00000  Uiso   1.00
C1241  C     0.55999   0.56012   0.88651   0.00000  Uiso   1.00
C1242  C     0.59725   0.53164   0.87100   0.00000  Uiso   1.00
C1243  C     0.63251   0.56396   0.85750   0.00000  Uiso   1.00
H1244  H     0.62218   0.58841   0.83122   0.00000  Uiso   1.00
H1245  H     0.64342   0.58466   0.88626   0.00000  Uiso   1.00
H1246  H     0.65871   0.54285   0.84507   0.00000  Uiso   1.00
H1247  H     0.60829   0.50848   0.89806   0.00000  Uiso   1.00
H1248  H     0.58834   0.50920   0.84266   0.00000  Uiso   1.00
H1249  H     0.54676   0.58106   0.85929   0.00000  Uiso   1.00
H1250  H     0.57094   0.58666   0.91076   0.00000  Uiso   1.00
C1251  C     0.56070   0.43993   0.61468   0.00000  Uiso   1.00
C1252  C     0.59804   0.46922   0.62893   0.00000  Uiso   1.00
C1253  C     0.63406   0.43767   0.64206   0.00000  Uiso   1.00
H1254  H     0.62458   0.41300   0.66843   0.00000  Uiso   1.00
H1255  H     0.64481   0.41720   0.61317   0.00000  Uiso   1.00
H1256  H     0.66011   0.45935   0.65422   0.00000  Uiso   1.00
H1257  H     0.60809   0.49213   0.60133   0.00000  Uiso   1.00
H1258  H     0.58959   0.49196   0.65714   0.00000  Uiso   1.00
H1259  H     0.54822   0.41972   0.64274   0.00000  Uiso   1.00
H1260  H     0.57136   0.41271   0.59105   0.00000  Uiso   1.00
C1261  C     0.75401   0.50000   0.74997   0.00000  Uiso   1.00
C1262  C     0.91266   0.50000   0.75003   0.00000  Uiso   1.00
C1263  C     0.83341   0.49998   0.66485   0.00000  Uiso   1.00
C1264  C     0.83326   0.49998   0.83515   0.00000  Uiso   1.00
C1265  C     0.80389   0.35816   0.72735   0.00000  Uiso   1.00
C1266  C     0.86286   0.64187   0.77250   0.00000  Uiso   1.00
C1267  C     0.86277   0.35816   0.77265   0.00000  Uiso   1.00
C1268  C     0.80380   0.64187   0.72750   0.00000  Uiso   1.00
C1269  C     0.68796   0.45741   0.74950   0.00000  Uiso   1.00
C1270  C     0.97871   0.54260   0.74956   0.00000  Uiso   1.00
C1271  C     0.97871   0.45741   0.75050   0.00000  Uiso   1.00
C1272  C     0.68796   0.54260   0.75044   0.00000  Uiso   1.00
C1273  C     0.80596   0.52776   0.54623   0.00000  Uiso   1.00
C1274  C     0.80598   0.47053   0.95321   0.00000  Uiso   1.00
C1275  C     0.86071   0.52776   0.95377   0.00000  Uiso   1.00
C1276  C     0.86069   0.47053   0.54679   0.00000  Uiso   1.00
C1277  C     0.80548   0.52887   0.59225   0.00000  Uiso   1.00
C1278  C     0.80527   0.47031   0.90717   0.00000  Uiso   1.00
C1279  C     0.86119   0.52887   0.90775   0.00000  Uiso   1.00
C1280  C     0.86140   0.47031   0.59283   0.00000  Uiso   1.00
C1281  C     0.83348   0.49980   0.61628   0.00000  Uiso   1.00
C1282  C     0.83319   0.49980   0.88372   0.00000  Uiso   1.00
C1283  C     0.83326   0.49892   0.52392   0.00000  Uiso   1.00
C1284  C     0.83341   0.49892   0.97608   0.00000  Uiso   1.00
C1285  C     0.95726   0.50000   0.75004   0.00000  Uiso   1.00
C1286  C     0.70940   0.50000   0.74996   0.00000  Uiso   1.00
Cu1287 Cu    0.83333   0.54689   0.75000   0.00000  Uiso   1.00
Cu1288 Cu    0.83333   0.45311   0.75000   0.00000  Uiso   1.00
H1289  H     0.78036   0.37686   0.70913   0.00000  Uiso   1.00
H1290  H     0.88662   0.62322   0.79037   0.00000  Uiso   1.00
H1291  H     0.88630   0.37686   0.79087   0.00000  Uiso   1.00
H1292  H     0.78004   0.62322   0.70963   0.00000  Uiso   1.00
H1293  H     0.78467   0.54923   0.52737   0.00000  Uiso   1.00
H1294  H     0.78464   0.44889   0.97165   0.00000  Uiso   1.00
H1295  H     0.88199   0.54923   0.97263   0.00000  Uiso   1.00
H1296  H     0.88203   0.44889   0.52835   0.00000  Uiso   1.00
H1297  H     0.70398   0.42409   0.74894   0.00000  Uiso   1.00
H1298  H     0.96268   0.57592   0.74904   0.00000  Uiso   1.00
H1299  H     0.96269   0.42409   0.75106   0.00000  Uiso   1.00
H1300  H     0.70399   0.57592   0.75096   0.00000  Uiso   1.00
N1301  N     0.83333   0.61736   0.75000   0.00000  Uiso   1.00
N1302  N     0.83333   0.38264   0.75000   0.00000  Uiso   1.00
O1303  O     0.77321   0.53958   0.74999   0.00000  Uiso   1.00
O1304  O     0.89345   0.46042   0.75000   0.00000  Uiso   1.00
O1305  O     0.89345   0.53958   0.75000   0.00000  Uiso   1.00
O1306  O     0.77321   0.46042   0.74999   0.00000  Uiso   1.00
O1307  O     0.83333   0.53959   0.68573   0.00000  Uiso   1.00
O1308  O     0.83334   0.46041   0.81427   0.00000  Uiso   1.00
O1309  O     0.83334   0.53959   0.81427   0.00000  Uiso   1.00
O1310  O     0.83333   0.46041   0.68573   0.00000  Uiso   1.00
C1311  C     0.77335   0.56012   0.61349   0.00000  Uiso   1.00
C1312  C     0.73608   0.53164   0.62900   0.00000  Uiso   1.00
C1313  C     0.70082   0.56396   0.64250   0.00000  Uiso   1.00
H1314  H     0.71116   0.58841   0.66878   0.00000  Uiso   1.00
H1315  H     0.68991   0.58466   0.61374   0.00000  Uiso   1.00
H1316  H     0.67463   0.54285   0.65493   0.00000  Uiso   1.00
H1317  H     0.72504   0.50848   0.60194   0.00000  Uiso   1.00
H1318  H     0.74499   0.50920   0.65734   0.00000  Uiso   1.00
H1319  H     0.78658   0.58106   0.64071   0.00000  Uiso   1.00
H1320  H     0.76239   0.58666   0.58924   0.00000  Uiso   1.00
C1321  C     0.77264   0.43993   0.88532   0.00000  Uiso   1.00
C1322  C     0.73529   0.46922   0.87107   0.00000  Uiso   1.00
C1323  C     0.69927   0.43767   0.85794   0.00000  Uiso   1.00
H1324  H     0.70875   0.41300   0.83157   0.00000  Uiso   1.00
H1325  H     0.68852   0.41720   0.88683   0.00000  Uiso   1.00
H1326  H     0.67323   0.45935   0.84578   0.00000  Uiso   1.00
H1327  H     0.72525   0.49213   0.89867   0.00000  Uiso   1.00
H1328  H     0.74374   0.49196   0.84285   0.00000  Uiso   1.00
H1329  H     0.78512   0.41972   0.85726   0.00000  Uiso   1.00
H1330  H     0.76197   0.41271   0.90895   0.00000  Uiso   1.00
C1331  C     0.89332   0.56012   0.88651   0.00000  Uiso   1.00
C1332  C     0.93059   0.53164   0.87100   0.00000  Uiso   1.00
C1333  C     0.96585   0.56396   0.85750   0.00000  Uiso   1.00
H1334  H     0.95551   0.58841   0.83122   0.00000  Uiso   1.00
H1335  H     0.97675   0.58466   0.88626   0.00000  Uiso   1.00
H1336  H     0.99204   0.54285   0.84507   0.00000  Uiso   1.00
H1337  H     0.94162   0.50848   0.89806   0.00000  Uiso   1.00
H1338  H     0.92167   0.50920   0.84266   0.00000  Uiso   1.00
H1339  H     0.88009   0.58106   0.85929   0.00000  Uiso   1.00
H1340  H     0.90428   0.58666   0.91076   0.00000  Uiso   1.00
C1341  C     0.89403   0.43993   0.61468   0.00000  Uiso   1.00
C1342  C     0.93137   0.46922   0.62893   0.00000  Uiso   1.00
C1343  C     0.96739   0.43767   0.64206   0.00000  Uiso   1.00
H1344  H     0.95792   0.41300   0.66843   0.00000  Uiso   1.00
H1345  H     0.97814   0.41720   0.61317   0.00000  Uiso   1.00
H1346  H     0.99344   0.45935   0.65422   0.00000  Uiso   1.00
H1347  H     0.94142   0.49213   0.60133   0.00000  Uiso   1.00
H1348  H     0.92292   0.49196   0.65714   0.00000  Uiso   1.00
H1349  H     0.88155   0.41972   0.64274   0.00000  Uiso   1.00
H1350  H     0.90470   0.41271   0.59105   0.00000  Uiso   1.00
C1351  C     0.08734   0.83333   0.74997   0.00000  Uiso   1.00
C1352  C     0.24599   0.83333   0.75003   0.00000  Uiso   1.00
C1353  C     0.16674   0.83331   0.66485   0.00000  Uiso   1.00
C1354  C     0.16659   0.83331   0.83515   0.00000  Uiso   1.00
C1355  C     0.13723   0.69149   0.72735   0.00000  Uiso   1.00
C1356  C     0.19620   0.97520   0.77250   0.00000  Uiso   1.00
C1357  C     0.19611   0.69149   0.77265   0.00000  Uiso   1.00
C1358  C     0.13714   0.97520   0.72750   0.00000  Uiso   1.00
C1359  C     0.02129   0.79074   0.74950   0.00000  Uiso   1.00
C1360  C     0.31204   0.87593   0.74956   0.00000  Uiso   1.00
C1361  C     0.31204   0.79074   0.75050   0.00000  Uiso   1.00
C1362  C     0.02129   0.87593   0.75044   0.00000  Uiso   1.00
C1363  C     0.13929   0.86109   0.54623   0.00000  Uiso   1.00
C1364  C     0.13931   0.80386   0.95321   0.00000  Uiso   1.00
C1365  C     0.19404   0.86109   0.95377   0.00000  Uiso   1.00
C1366  C     0.19402   0.80386   0.54679   0.00000  Uiso   1.00
C1367  C     0.13881   0.86220   0.59225   0.00000  Uiso   1.00
C1368  C     0.13860   0.80364   0.90717   0.00000  Uiso   1.00
C1369  C     0.19452   0.86220   0.90775   0.00000  Uiso   1.00
C1370  C     0.19473   0.80364   0.59283   0.00000  Uiso   1.00
C1371  C     0.16681   0.83314   0.61628   0.00000  Uiso   1.00
C1372  C     0.16652   0.83314   0.88372   0.00000  Uiso   1.00
C1373  C     0.16659   0.83225   0.52392   0.00000  Uiso   1.00
C1374  C     0.16674   0.83225   0.97608   0.00000  Uiso   1.00
C1375  C     0.29059   0.83334   0.75004   0.00000  Uiso   1.00
C1376  C     0.04274   0.83334   0.74996   0.00000  Uiso   1.00
Cu1377 Cu    0.16667   0.88022   0.75000   0.00000  Uiso   1.00
Cu1378 Cu    0.16667   0.78645   0.75000   0.00000  Uiso   1.00
H1379  H     0.11370   0.71020   0.70913   0.00000  Uiso   1.00
H1380  H     0.21996   0.95655   0.79037   0.00000  Uiso   1.00
H1381  H     0.21964   0.71020   0.79087   0.00000  Uiso   1.00
H1382  H     0.11338   0.95655   0.70963   0.00000  Uiso   1.00
H1383  H     0.11801   0.88257   0.52737   0.00000  Uiso   1.00
H1384  H     0.11797   0.78222   0.97165   0.00000  Uiso   1.00
H1385  H     0.21533   0.88257   0.97263   0.00000  Uiso   1.00
H1386  H     0.21536   0.78222   0.52835   0.00000  Uiso   1.00
H1387  H     0.03731   0.75742   0.74894   0.00000  Uiso   1.00
H1388  H     0.29601   0.90925   0.74904   0.00000  Uiso   1.00
H1389  H     0.29602   0.75742   0.75106   0.00000  Uiso   1.00
H1390  H     0.03732   0.90925   0.75096   0.00000  Uiso   1.00
N1391  N     0.16667   0.95069   0.75000   0.00000  Uiso   1.00
N1392  N     0.16667   0.71598   0.75000   0.00000  Uiso   1.00
O1393  O     0.10655   0.87291   0.74999   0.00000  Uiso   1.00
O1394  O     0.22679   0.79375   0.75000   0.00000  Uiso   1.00
O1395  O     0.22679   0.87291   0.75000   0.00000  Uiso   1.00
O1396  O     0.10655   0.79375   0.74999   0.00000  Uiso   1.00
O1397  O     0.16666   0.87293   0.68573   0.00000  Uiso   1.00
O1398  O     0.16667   0.79374   0.81427   0.00000  Uiso   1.00
O1399  O     0.16667   0.87293   0.81427   0.00000  Uiso   1.00
O1400  O     0.16666   0.79374   0.68573   0.00000  Uiso   1.00
C1401  C     0.10668   0.89345   0.61349   0.00000  Uiso   1.00
C1402  C     0.06941   0.86497   0.62900   0.00000  Uiso   1.00
C1403  C     0.03415   0.89730   0.64250   0.00000  Uiso   1.00
H1404  H     0.04449   0.92174   0.66878   0.00000  Uiso   1.00
H1405  H     0.02324   0.91800   0.61374   0.00000  Uiso   1.00
H1406  H     0.00796   0.87618   0.65493   0.00000  Uiso   1.00
H1407  H     0.05838   0.84181   0.60194   0.00000  Uiso   1.00
H1408  H     0.07832   0.84253   0.65734   0.00000  Uiso   1.00
H1409  H     0.11991   0.91439   0.64071   0.00000  Uiso   1.00
H1410  H     0.09572   0.91999   0.58924   0.00000  Uiso   1.00
C1411  C     0.10597   0.77326   0.88532   0.00000  Uiso   1.00
C1412  C     0.06862   0.80256   0.87107   0.00000  Uiso   1.00
C1413  C     0.03260   0.77100   0.85794   0.00000  Uiso   1.00
H1414  H     0.04208   0.74633   0.83157   0.00000  Uiso   1.00
H1415  H     0.02186   0.75053   0.88683   0.00000  Uiso   1.00
H1416  H     0.00656   0.79268   0.84578   0.00000  Uiso   1.00
H1417  H     0.05858   0.82546   0.89867   0.00000  Uiso   1.00
H1418  H     0.07707   0.82530   0.84285   0.00000  Uiso   1.00
H1419  H     0.11845   0.75306   0.85726   0.00000  Uiso   1.00
H1420  H     0.09530   0.74604   0.90895   0.00000  Uiso   1.00
C1421  C     0.22665   0.89345   0.88651   0.00000  Uiso   1.00
C1422  C     0.26392   0.86497   0.87100   0.00000  Uiso   1.00
C1423  C     0.29918   0.89730   0.85750   0.00000  Uiso   1.00
H1424  H     0.28884   0.92174   0.83122   0.00000  Uiso   1.00
H1425  H     0.31009   0.91800   0.88626   0.00000  Uiso   1.00
H1426  H     0.32537   0.87618   0.84507   0.00000  Uiso   1.00
H1427  H     0.27496   0.84181   0.89806   0.00000  Uiso   1.00
H1428  H     0.25501   0.84253   0.84266   0.00000  Uiso   1.00
H1429  H     0.21342   0.91439   0.85929   0.00000  Uiso   1.00
H1430  H     0.23761   0.92000   0.91076   0.00000  Uiso   1.00
C1431  C     0.22736   0.77326   0.61468   0.00000  Uiso   1.00
C1432  C     0.26471   0.80256   0.62893   0.00000  Uiso   1.00
C1433  C     0.30073   0.77100   0.64206   0.00000  Uiso   1.00
H1434  H     0.29125   0.74633   0.66843   0.00000  Uiso   1.00
H1435  H     0.31148   0.75053   0.61317   0.00000  Uiso   1.00
H1436  H     0.32677   0.79268   0.65422   0.00000  Uiso   1.00
H1437  H     0.27475   0.82546   0.60133   0.00000  Uiso   1.00
H1438  H     0.25626   0.82530   0.65714   0.00000  Uiso   1.00
H1439  H     0.21488   0.75306   0.64274   0.00000  Uiso   1.00
H1440  H     0.23803   0.74604   0.59105   0.00000  Uiso   1.00
C1441  C     0.42068   0.83333   0.74997   0.00000  Uiso   1.00
C1442  C     0.57932   0.83333   0.75003   0.00000  Uiso   1.00
C1443  C     0.50007   0.83331   0.66485   0.00000  Uiso   1.00
C1444  C     0.49993   0.83331   0.83515   0.00000  Uiso   1.00
C1445  C     0.47056   0.69149   0.72735   0.00000  Uiso   1.00
C1446  C     0.52953   0.97520   0.77250   0.00000  Uiso   1.00
C1447  C     0.52944   0.69149   0.77265   0.00000  Uiso   1.00
C1448  C     0.47047   0.97520   0.72750   0.00000  Uiso   1.00
C1449  C     0.35462   0.79074   0.74950   0.00000  Uiso   1.00
C1450  C     0.64537   0.87593   0.74956   0.00000  Uiso   1.00
C1451  C     0.64538   0.79074   0.75050   0.00000  Uiso   1.00
C1452  C     0.35463   0.87593   0.75044   0.00000  Uiso   1.00
C1453  C     0.47263   0.86109   0.54623   0.00000  Uiso   1.00
C1454  C     0.47264   0.80386   0.95321   0.00000  Uiso   1.00
C1455  C     0.52737   0.86109   0.95377   0.00000  Uiso   1.00
C1456  C     0.52735   0.80386   0.54679   0.00000  Uiso   1.00
C1457  C     0.47215   0.86220   0.59225   0.00000  Uiso   1.00
C1458  C     0.47193   0.80364   0.90717   0.00000  Uiso   1.00
C1459  C     0.52785   0.86220   0.90775   0.00000  Uiso   1.00
C1460  C     0.52807   0.80364   0.59283   0.00000  Uiso   1.00
C1461  C     0.50014   0.83314   0.61628   0.00000  Uiso   1.00
C1462  C     0.49986   0.83314   0.88372   0.00000  Uiso   1.00
C1463  C     0.49992   0.83225   0.52392   0.00000  Uiso   1.00
C1464  C     0.50008   0.83225   0.97608   0.00000  Uiso   1.00
C1465  C     0.62393   0.83334   0.75004   0.00000  Uiso   1.00
C1466  C     0.37607   0.83334   0.74996   0.00000  Uiso   1.00
Cu1467 Cu    0.50000   0.88022   0.75000   0.00000  Uiso   1.00
Cu1468 Cu    0.50000   0.78645   0.75000   0.00000  Uiso   1.00
H1469  H     0.44703   0.71020   0.70913   0.00000  Uiso   1.00
H1470  H     0.55329   0.95655   0.79037   0.00000  Uiso   1.00
H1471  H     0.55297   0.71020   0.79087   0.00000  Uiso   1.00
H1472  H     0.44671   0.95655   0.70963   0.00000  Uiso   1.00
H1473  H     0.45134   0.88257   0.52737   0.00000  Uiso   1.00
H1474  H     0.45130   0.78222   0.97165   0.00000  Uiso   1.00
H1475  H     0.54866   0.88257   0.97263   0.00000  Uiso   1.00
H1476  H     0.54870   0.78222   0.52835   0.00000  Uiso   1.00
H1477  H     0.37064   0.75742   0.74894   0.00000  Uiso   1.00
H1478  H     0.62935   0.90925   0.74904   0.00000  Uiso   1.00
H1479  H     0.62936   0.75742   0.75106   0.00000  Uiso   1.00
H1480  H     0.37065   0.90925   0.75096   0.00000  Uiso   1.00
N1481  N     0.50000   0.95069   0.75000   0.00000  Uiso   1.00
N1482  N     0.50000   0.71598   0.75000   0.00000  Uiso   1.00
O1483  O     0.43988   0.87291   0.74999   0.00000  Uiso   1.00
O1484  O     0.56012   0.79375   0.75000   0.00000  Uiso   1.00
O1485  O     0.56012   0.87291   0.75000   0.00000  Uiso   1.00
O1486  O     0.43988   0.79375   0.74999   0.00000  Uiso   1.00
O1487  O     0.50000   0.87293   0.68573   0.00000  Uiso   1.00
O1488  O     0.50000   0.79374   0.81427   0.00000  Uiso   1.00
O1489  O     0.50000   0.87293   0.81427   0.00000  Uiso   1.00
O1490  O     0.50000   0.79374   0.68573   0.00000  Uiso   1.00
C1491  C     0.44001   0.89345   0.61349   0.00000  Uiso   1.00
C1492  C     0.40275   0.86497   0.62900   0.00000  Uiso   1.00
C1493  C     0.36749   0.89730   0.64250   0.00000  Uiso   1.00
H1494  H     0.37782   0.92174   0.66878   0.00000  Uiso   1.00
H1495  H     0.35658   0.91800   0.61374   0.00000  Uiso   1.00
H1496  H     0.34129   0.87618   0.65493   0.00000  Uiso   1.00
H1497  H     0.39171   0.84181   0.60194   0.00000  Uiso   1.00
H1498  H     0.41166   0.84253   0.65734   0.00000  Uiso   1.00
H1499  H     0.45324   0.91439   0.64071   0.00000  Uiso   1.00
H1500  H     0.42906   0.91999   0.58924   0.00000  Uiso   1.00
C1501  C     0.43930   0.77326   0.88532   0.00000  Uiso   1.00
C1502  C     0.40196   0.80256   0.87107   0.00000  Uiso   1.00
C1503  C     0.36594   0.77100   0.85794   0.00000  Uiso   1.00
H1504  H     0.37541   0.74633   0.83157   0.00000  Uiso   1.00
H1505  H     0.35519   0.75053   0.88683   0.00000  Uiso   1.00
H1506  H     0.33989   0.79268   0.84578   0.00000  Uiso   1.00
H1507  H     0.39191   0.82546   0.89867   0.00000  Uiso   1.00
H1508  H     0.41041   0.82530   0.84285   0.00000  Uiso   1.00
H1509  H     0.45178   0.75306   0.85726   0.00000  Uiso   1.00
H1510  H     0.42864   0.74604   0.90895   0.00000  Uiso   1.00
C1511  C     0.55999   0.89345   0.88651   0.00000  Uiso   1.00
C1512  C     0.59725   0.86497   0.87100   0.00000  Uiso   1.00
C1513  C     0.63251   0.89730   0.85750   0.00000  Uiso   1.00
H1514  H     0.62218   0.92174   0.83122   0.00000  Uiso   1.00
H1515  H     0.64342   0.91800   0.88626   0.00000  Uiso   1.00
H1516  H     0.65871   0.87618   0.84507   0.00000  Uiso   1.00
H1517  H     0.60829   0.84181   0.89806   0.00000  Uiso   1.00
H1518  H     0.58834   0.84253   0.84266   0.00000  Uiso   1.00
H1519  H     0.54676   0.91439   0.85929   0.00000  Uiso   1.00
H1520  H     0.57094   0.92000   0.91076   0.00000  Uiso   1.00
C1521  C     0.56070   0.77326   0.61468   0.00000  Uiso   1.00
C1522  C     0.59804   0.80256   0.62893   0.00000  Uiso   1.00
C1523  C     0.63406   0.77100   0.64206   0.00000  Uiso   1.00
H1524  H     0.62458   0.74633   0.66843   0.00000  Uiso   1.00
H1525  H     0.64481   0.75053   0.61317   0.00000  Uiso   1.00
H1526  H     0.66011   0.79268   0.65422   0.00000  Uiso   1.00
H1527  H     0.60809   0.82546   0.60133   0.00000  Uiso   1.00
H1528  H     0.58959   0.82530   0.65714   0.00000  Uiso   1.00
H1529  H     0.54822   0.75306   0.64274   0.00000  Uiso   1.00
H1530  H     0.57136   0.74604   0.59105   0.00000  Uiso   1.00
C1531  C     0.75401   0.83333   0.74997   0.00000  Uiso   1.00
C1532  C     0.91266   0.83333   0.75003   0.00000  Uiso   1.00
C1533  C     0.83341   0.83331   0.66485   0.00000  Uiso   1.00
C1534  C     0.83326   0.83331   0.83515   0.00000  Uiso   1.00
C1535  C     0.80389   0.69149   0.72735   0.00000  Uiso   1.00
C1536  C     0.86286   0.97520   0.77250   0.00000  Uiso   1.00
C1537  C     0.86277   0.69149   0.77265   0.00000  Uiso   1.00
C1538  C     0.80380   0.97520   0.72750   0.00000  Uiso   1.00
C1539  C     0.68796   0.79074   0.74950   0.00000  Uiso   1.00
C1540  C     0.97871   0.87593   0.74956   0.00000  Uiso   1.00
C1541  C     0.97871   0.79074   0.75050   0.00000  Uiso   1.00
C1542  C     0.68796   0.87593   0.75044   0.00000  Uiso   1.00
C1543  C     0.80596   0.86109   0.54623   0.00000  Uiso   1.00
C1544  C     0.80598   0.80386   0.95321   0.00000  Uiso   1.00
C1545  C     0.86071   0.86109   0.95377   0.00000  Uiso   1.00
C1546  C     0.86069   0.80386   0.54679   0.00000  Uiso   1.00
C1547  C     0.80548   0.86220   0.59225   0.00000  Uiso   1.00
C1548  C     0.80527   0.80364   0.90717   0.00000  Uiso   1.00
C1549  C     0.86119   0.86220   0.90775   0.00000  Uiso   1.00
C1550  C     0.86140   0.80364   0.59283   0.00000  Uiso   1.00
C1551  C     0.83348   0.83314   0.61628   0.00000  Uiso   1.00
C1552  C     0.83319   0.83314   0.88372   0.00000  Uiso   1.00
C1553  C     0.83326   0.83225   0.52392   0.00000  Uiso   1.00
C1554  C     0.83341   0.83225   0.97608   0.00000  Uiso   1.00
C1555  C     0.95726   0.83334   0.75004   0.00000  Uiso   1.00
C1556  C     0.70940   0.83334   0.74996   0.00000  Uiso   1.00
Cu1557 Cu    0.83333   0.88022   0.75000   0.00000  Uiso   1.00
Cu1558 Cu    0.83333   0.78645   0.75000   0.00000  Uiso   1.00
H1559  H     0.78036   0.71020   0.70913   0.00000  Uiso   1.00
H1560  H     0.88662   0.95655   0.79037   0.00000  Uiso   1.00
H1561  H     0.88630   0.71020   0.79087   0.00000  Uiso   1.00
H1562  H     0.78004   0.95655   0.70963   0.00000  Uiso   1.00
H1563  H     0.78467   0.88257   0.52737   0.00000  Uiso   1.00
H1564  H     0.78464   0.78222   0.97165   0.00000  Uiso   1.00
H1565  H     0.88199   0.88257   0.97263   0.00000  Uiso   1.00
H1566  H     0.88203   0.78222   0.52835   0.00000  Uiso   1.00
H1567  H     0.70398   0.75742   0.74894   0.00000  Uiso   1.00
H1568  H     0.96268   0.90925   0.74904   0.00000  Uiso   1.00
H1569  H     0.96269   0.75742   0.75106   0.00000  Uiso   1.00
H1570  H     0.70399   0.90925   0.75096   0.00000  Uiso   1.00
N1571  N     0.83333   0.95069   0.75000   0.00000  Uiso   1.00
N1572  N     0.83333   0.71598   0.75000   0.00000  Uiso   1.00
O1573  O     0.77321   0.87291   0.74999   0.00000  Uiso   1.00
O1574  O     0.89345   0.79375   0.75000   0.00000  Uiso   1.00
O1575  O     0.89345   0.87291   0.75000   0.00000  Uiso   1.00
O1576  O     0.77321   0.79375   0.74999   0.00000  Uiso   1.00
O1577  O     0.83333   0.87293   0.68573   0.00000  Uiso   1.00
O1578  O     0.83334   0.79374   0.81427   0.00000  Uiso   1.00
O1579  O     0.83334   0.87293   0.81427   0.00000  Uiso   1.00
O1580  O     0.83333   0.79374   0.68573   0.00000  Uiso   1.00
C1581  C     0.77335   0.89345   0.61349   0.00000  Uiso   1.00
C1582  C     0.73608   0.86497   0.62900   0.00000  Uiso   1.00
C1583  C     0.70082   0.89730   0.64250   0.00000  Uiso   1.00
H1584  H     0.71116   0.92174   0.66878   0.00000  Uiso   1.00
H1585  H     0.68991   0.91800   0.61374   0.00000  Uiso   1.00
H1586  H     0.67463   0.87618   0.65493   0.00000  Uiso   1.00
H1587  H     0.72504   0.84181   0.60194   0.00000  Uiso   1.00
H1588  H     0.74499   0.84253   0.65734   0.00000  Uiso   1.00
H1589  H     0.78658   0.91439   0.64071   0.00000  Uiso   1.00
H1590  H     0.76239   0.91999   0.58924   0.00000  Uiso   1.00
C1591  C     0.77264   0.77326   0.88532   0.00000  Uiso   1.00
C1592  C     0.73529   0.80256   0.87107   0.00000  Uiso   1.00
C1593  C     0.69927   0.77100   0.85794   0.00000  Uiso   1.00
H1594  H     0.70875   0.74633   0.83157   0.00000  Uiso   1.00
H1595  H     0.68852   0.75053   0.88683   0.00000  Uiso   1.00
H1596  H     0.67323   0.79268   0.84578   0.00000  Uiso   1.00
H1597  H     0.72525   0.82546   0.89867   0.00000  Uiso   1.00
H1598  H     0.74374   0.82530   0.84285   0.00000  Uiso   1.00
H1599  H     0.78512   0.75306   0.85726   0.00000  Uiso   1.00
H1600  H     0.76197   0.74604   0.90895   0.00000  Uiso   1.00
C1601  C     0.89332   0.89345   0.88651   0.00000  Uiso   1.00
C1602  C     0.93059   0.86497   0.87100   0.00000  Uiso   1.00
C1603  C     0.96585   0.89730   0.85750   0.00000  Uiso   1.00
H1604  H     0.95551   0.92174   0.83122   0.00000  Uiso   1.00
H1605  H     0.97675   0.91800   0.88626   0.00000  Uiso   1.00
H1606  H     0.99204   0.87618   0.84507   0.00000  Uiso   1.00
H1607  H     0.94162   0.84181   0.89806   0.00000  Uiso   1.00
H1608  H     0.92167   0.84253   0.84266   0.00000  Uiso   1.00
H1609  H     0.88009   0.91439   0.85929   0.00000  Uiso   1.00
H1610  H     0.90428   0.92000   0.91076   0.00000  Uiso   1.00
C1611  C     0.89403   0.77326   0.61468   0.00000  Uiso   1.00
C1612  C     0.93137   0.80256   0.62893   0.00000  Uiso   1.00
C1613  C     0.96739   0.77100   0.64206   0.00000  Uiso   1.00
H1614  H     0.95792   0.74633   0.66843   0.00000  Uiso   1.00
H1615  H     0.97814   0.75053   0.61317   0.00000  Uiso   1.00
H1616  H     0.99344   0.79268   0.65422   0.00000  Uiso   1.00
H1617  H     0.94142   0.82546   0.60133   0.00000  Uiso   1.00
H1618  H     0.92292   0.82530   0.65714   0.00000  Uiso   1.00
H1619  H     0.88155   0.75306   0.64274   0.00000  Uiso   1.00
H1620  H     0.90470   0.74604   0.59105   0.00000  Uiso   1.00
loop_
_geom_bond_atom_site_label_1
_geom_bond_atom_site_label_2
_geom_bond_distance
_geom_bond_site_symmetry_2
_ccdc_geom_bond_type
C1     O46     1.289   .     A
C1     O43     1.289   .     A
C1     C26     1.447   .     S
C2     O44     1.289   .     A
C2     O45     1.289   .     A
C2     C25     1.447   .     S
C3     O47     1.295   .     A
C3     O50     1.294   .     A
C3     C21     1.474   .     S
C4     C22     1.474   .     S
C4     O48     1.294   .     A
C4     O49     1.295   .     A
C5     N42     1.366   .     A
C5     H29     1.082   .     S
C5     C548    1.415   1_545 S
C6     N41     1.367   .     A
C6     H30     1.081   .     S
C6     C277    1.415   .     S
C7     N42     1.366   .     A
C7     H31     1.082   .     S
C7     C546    1.415   1_545 S
C8     H32     1.081   .     S
C8     N41     1.367   .     A
C8     C275    1.415   .     S
C9     C26     1.400   .     A
C9     H37     1.083   .     S
C9     C191    1.382   1_455 S
C10    C25     1.400   .     A
C10    H38     1.083   .     S
C10    C102    1.382   .     S
C11    C25     1.400   .     A
C11    H39     1.083   .     S
C11    C99     1.382   .     S
C12    C26     1.400   .     A
C12    H40     1.083   .     S
C12    C190    1.382   1_455 S
C13    C23     1.387   .     A
C13    H33     1.085   .     S
C13    C17     1.398   .     A
C14    C18     1.398   .     A
C14    C24     1.387   .     A
C14    H34     1.085   .     S
C15    C19     1.398   .     A
C15    H35     1.085   .     S
C15    C24     1.387   .     A
C16    C20     1.398   .     A
C16    C23     1.387   .     A
C16    H36     1.085   .     S
C17    C51     1.517   .     S
C17    C21     1.428   .     A
C18    C22     1.428   .     A
C18    C61     1.518   .     S
C19    C71     1.517   .     S
C19    C22     1.428   .     A
C20    C81     1.518   .     S
C20    C21     1.428   .     A
C23    C834    1.452   1_554 S
C24    C833    1.452   .     S
Cu27   O47     1.962   .     S
Cu27   O45     1.962   .     S
Cu27   N41     2.009   .     S
Cu27   O43     1.962   .     S
Cu27   Cu28    2.674   .     S
Cu27   O49     1.962   .     S
Cu28   O46     1.962   .     S
Cu28   O50     1.962   .     S
Cu28   O44     1.962   .     S
Cu28   O48     1.962   .     S
Cu28   N42     2.009   .     S
C51    C52     1.532   .     S
C51    H59     1.105   .     S
C51    H60     1.113   .     S
C52    H58     1.109   .     S
C52    C53     1.526   .     S
C52    H57     1.112   .     S
C53    H54     1.110   .     S
C53    H55     1.111   .     S
C53    H56     1.109   .     S
C61    H70     1.113   .     S
C61    H69     1.106   .     S
C61    C62     1.533   .     S
C62    C63     1.527   .     S
C62    H67     1.112   .     S
C62    H68     1.110   .     S
C63    H65     1.111   .     S
C63    H66     1.109   .     S
C63    H64     1.110   .     S
C71    H79     1.105   .     S
C71    H80     1.113   .     S
C71    C72     1.532   .     S
C72    H78     1.109   .     S
C72    H77     1.112   .     S
C72    C73     1.526   .     S
C73    H74     1.110   .     S
C73    H75     1.111   .     S
C73    H76     1.109   .     S
C81    C82     1.533   .     S
C81    H89     1.106   .     S
C81    H90     1.113   .     S
C82    H87     1.112   .     S
C82    H88     1.110   .     S
C82    C83     1.527   .     S
C83    H84     1.110   .     S
C83    H85     1.111   .     S
C83    H86     1.109   .     S
C91    O136    1.289   .     A
C91    O133    1.289   .     A
C91    C116    1.447   .     S
C92    O134    1.289   .     A
C92    O135    1.289   .     A
C92    C115    1.447   .     S
C93    O137    1.295   .     A
C93    O140    1.294   .     A
C93    C111    1.474   .     S
C94    C112    1.474   .     S
C94    O138    1.294   .     A
C94    O139    1.295   .     A
C95    N132    1.366   .     A
C95    H119    1.082   .     S
C95    C638    1.415   1_545 S
C96    N131    1.367   .     A
C96    H120    1.081   .     S
C96    C367    1.415   .     S
C97    N132    1.366   .     A
C97    H121    1.082   .     S
C97    C636    1.415   1_545 S
C98    H122    1.081   .     S
C98    N131    1.367   .     A
C98    C365    1.415   .     S
C99    C116    1.400   .     A
C99    H127    1.083   .     S
C100   C115    1.400   .     A
C100   H128    1.083   .     S
C100   C192    1.382   .     S
C101   C115    1.400   .     A
C101   H129    1.083   .     S
C101   C189    1.382   .     S
C102   C116    1.400   .     A
C102   H130    1.083   .     S
C103   C113    1.387   .     A
C103   H123    1.085   .     S
C103   C107    1.398   .     A
C104   C108    1.398   .     A
C104   C114    1.387   .     A
C104   H124    1.085   .     S
C105   C109    1.398   .     A
C105   H125    1.085   .     S
C105   C114    1.387   .     A
C106   C110    1.398   .     A
C106   C113    1.387   .     A
C106   H126    1.085   .     S
C107   C141    1.517   .     S
C107   C111    1.428   .     A
C108   C112    1.428   .     A
C108   C151    1.518   .     S
C109   C161    1.517   .     S
C109   C112    1.428   .     A
C110   C171    1.518   .     S
C110   C111    1.428   .     A
C113   C924    1.452   1_554 S
C114   C923    1.452   .     S
Cu117  O137    1.962   .     S
Cu117  O135    1.962   .     S
Cu117  N131    2.009   .     S
Cu117  O133    1.962   .     S
Cu117  Cu118   2.674   .     S
Cu117  O139    1.962   .     S
Cu118  O136    1.962   .     S
Cu118  O140    1.962   .     S
Cu118  O134    1.962   .     S
Cu118  O138    1.962   .     S
Cu118  N132    2.009   .     S
C141   C142    1.532   .     S
C141   H149    1.105   .     S
C141   H150    1.113   .     S
C142   H148    1.109   .     S
C142   C143    1.526   .     S
C142   H147    1.112   .     S
C143   H144    1.110   .     S
C143   H145    1.111   .     S
C143   H146    1.109   .     S
C151   H160    1.113   .     S
C151   H159    1.106   .     S
C151   C152    1.533   .     S
C152   C153    1.527   .     S
C152   H157    1.112   .     S
C152   H158    1.110   .     S
C153   H155    1.111   .     S
C153   H156    1.109   .     S
C153   H154    1.110   .     S
C161   H169    1.105   .     S
C161   H170    1.113   .     S
C161   C162    1.532   .     S
C162   H168    1.109   .     S
C162   H167    1.112   .     S
C162   C163    1.526   .     S
C163   H164    1.110   .     S
C163   H165    1.111   .     S
C163   H166    1.109   .     S
C171   C172    1.533   .     S
C171   H179    1.106   .     S
C171   H180    1.113   .     S
C172   H177    1.112   .     S
C172   H178    1.110   .     S
C172   C173    1.527   .     S
C173   H174    1.110   .     S
C173   H175    1.111   .     S
C173   H176    1.109   .     S
C181   O226    1.289   .     A
C181   O223    1.289   .     A
C181   C206    1.447   .     S
C182   O224    1.289   .     A
C182   O225    1.289   .     A
C182   C205    1.447   .     S
C183   O227    1.295   .     A
C183   O230    1.294   .     A
C183   C201    1.474   .     S
C184   C202    1.474   .     S
C184   O228    1.294   .     A
C184   O229    1.295   .     A
C185   N222    1.366   .     A
C185   H209    1.082   .     S
C185   C728    1.415   1_545 S
C186   N221    1.367   .     A
C186   H210    1.081   .     S
C186   C457    1.415   .     S
C187   N222    1.366   .     A
C187   H211    1.082   .     S
C187   C726    1.415   1_545 S
C188   H212    1.081   .     S
C188   N221    1.367   .     A
C188   C455    1.415   .     S
C189   C206    1.400   .     A
C189   H217    1.083   .     S
C190   C205    1.400   .     A
C190   H218    1.083   .     S
C190   C12     1.382   1_655 S
C191   C205    1.400   .     A
C191   H219    1.083   .     S
C191   C9      1.382   1_655 S
C192   C206    1.400   .     A
C192   H220    1.083   .     S
C193   C203    1.387   .     A
C193   H213    1.085   .     S
C193   C197    1.398   .     A
C194   C198    1.398   .     A
C194   C204    1.387   .     A
C194   H214    1.085   .     S
C195   C199    1.398   .     A
C195   H215    1.085   .     S
C195   C204    1.387   .     A
C196   C200    1.398   .     A
C196   C203    1.387   .     A
C196   H216    1.085   .     S
C197   C231    1.517   .     S
C197   C201    1.428   .     A
C198   C202    1.428   .     A
C198   C241    1.518   .     S
C199   C251    1.517   .     S
C199   C202    1.428   .     A
C200   C261    1.518   .     S
C200   C201    1.428   .     A
C203   C1014   1.452   1_554 S
C204   C1013   1.452   .     S
Cu207  O227    1.962   .     S
Cu207  O225    1.962   .     S
Cu207  N221    2.009   .     S
Cu207  O223    1.962   .     S
Cu207  Cu208   2.674   .     S
Cu207  O229    1.962   .     S
Cu208  O226    1.962   .     S
Cu208  O230    1.962   .     S
Cu208  O224    1.962   .     S
Cu208  O228    1.962   .     S
Cu208  N222    2.009   .     S
C231   C232    1.532   .     S
C231   H239    1.105   .     S
C231   H240    1.113   .     S
C232   H238    1.109   .     S
C232   C233    1.526   .     S
C232   H237    1.112   .     S
C233   H234    1.110   .     S
C233   H235    1.111   .     S
C233   H236    1.109   .     S
C241   H250    1.113   .     S
C241   H249    1.106   .     S
C241   C242    1.533   .     S
C242   C243    1.527   .     S
C242   H247    1.112   .     S
C242   H248    1.110   .     S
C243   H245    1.111   .     S
C243   H246    1.109   .     S
C243   H244    1.110   .     S
C251   H259    1.105   .     S
C251   H260    1.113   .     S
C251   C252    1.532   .     S
C252   H258    1.109   .     S
C252   H257    1.112   .     S
C252   C253    1.526   .     S
C253   H254    1.110   .     S
C253   H255    1.111   .     S
C253   H256    1.109   .     S
C261   C262    1.533   .     S
C261   H269    1.106   .     S
C261   H270    1.113   .     S
C262   H267    1.112   .     S
C262   H268    1.110   .     S
C262   C263    1.527   .     S
C263   H264    1.110   .     S
C263   H265    1.111   .     S
C263   H266    1.109   .     S
C271   O316    1.289   .     A
C271   O313    1.289   .     A
C271   C296    1.447   .     S
C272   O314    1.289   .     A
C272   O315    1.289   .     A
C272   C295    1.447   .     S
C273   O317    1.295   .     A
C273   O320    1.294   .     A
C273   C291    1.474   .     S
C274   C292    1.474   .     S
C274   O318    1.294   .     A
C274   O319    1.295   .     A
C275   N312    1.366   .     A
C275   H299    1.082   .     S
C276   N311    1.367   .     A
C276   H300    1.081   .     S
C276   C547    1.415   .     S
C277   N312    1.366   .     A
C277   H301    1.082   .     S
C278   H302    1.081   .     S
C278   N311    1.367   .     A
C278   C545    1.415   .     S
C279   C296    1.400   .     A
C279   H307    1.083   .     S
C279   C461    1.382   1_455 S
C280   C295    1.400   .     A
C280   H308    1.083   .     S
C280   C372    1.382   .     S
C281   C295    1.400   .     A
C281   H309    1.083   .     S
C281   C369    1.382   .     S
C282   C296    1.400   .     A
C282   H310    1.083   .     S
C282   C460    1.382   1_455 S
C283   C293    1.387   .     A
C283   H303    1.085   .     S
C283   C287    1.398   .     A
C284   C288    1.398   .     A
C284   C294    1.387   .     A
C284   H304    1.085   .     S
C285   C289    1.398   .     A
C285   H305    1.085   .     S
C285   C294    1.387   .     A
C286   C290    1.398   .     A
C286   C293    1.387   .     A
C286   H306    1.085   .     S
C287   C321    1.517   .     S
C287   C291    1.428   .     A
C288   C292    1.428   .     A
C288   C331    1.518   .     S
C289   C341    1.517   .     S
C289   C292    1.428   .     A
C290   C351    1.518   .     S
C290   C291    1.428   .     A
C293   C1104   1.452   1_554 S
C294   C1103   1.452   .     S
Cu297  O317    1.962   .     S
Cu297  O315    1.962   .     S
Cu297  N311    2.009   .     S
Cu297  O313    1.962   .     S
Cu297  Cu298   2.674   .     S
Cu297  O319    1.962   .     S
Cu298  O316    1.962   .     S
Cu298  O320    1.962   .     S
Cu298  O314    1.962   .     S
Cu298  O318    1.962   .     S
Cu298  N312    2.009   .     S
C321   C322    1.532   .     S
C321   H329    1.105   .     S
C321   H330    1.113   .     S
C322   H328    1.109   .     S
C322   C323    1.526   .     S
C322   H327    1.112   .     S
C323   H324    1.110   .     S
C323   H325    1.111   .     S
C323   H326    1.109   .     S
C331   H340    1.113   .     S
C331   H339    1.106   .     S
C331   C332    1.533   .     S
C332   C333    1.527   .     S
C332   H337    1.112   .     S
C332   H338    1.110   .     S
C333   H335    1.111   .     S
C333   H336    1.109   .     S
C333   H334    1.110   .     S
C341   H349    1.105   .     S
C341   H350    1.113   .     S
C341   C342    1.532   .     S
C342   H348    1.109   .     S
C342   H347    1.112   .     S
C342   C343    1.526   .     S
C343   H344    1.110   .     S
C343   H345    1.111   .     S
C343   H346    1.109   .     S
C351   C352    1.533   .     S
C351   H359    1.106   .     S
C351   H360    1.113   .     S
C352   H357    1.112   .     S
C352   H358    1.110   .     S
C352   C353    1.527   .     S
C353   H354    1.110   .     S
C353   H355    1.111   .     S
C353   H356    1.109   .     S
C361   O406    1.289   .     A
C361   O403    1.289   .     A
C361   C386    1.447   .     S
C362   O404    1.289   .     A
C362   O405    1.289   .     A
C362   C385    1.447   .     S
C363   O407    1.295   .     A
C363   O410    1.294   .     A
C363   C381    1.474   .     S
C364   C382    1.474   .     S
C364   O408    1.294   .     A
C364   O409    1.295   .     A
C365   N402    1.366   .     A
C365   H389    1.082   .     S
C366   N401    1.367   .     A
C366   H390    1.081   .     S
C366   C637    1.415   .     S
C367   N402    1.366   .     A
C367   H391    1.082   .     S
C368   H392    1.081   .     S
C368   N401    1.367   .     A
C368   C635    1.415   .     S
C369   C386    1.400   .     A
C369   H397    1.083   .     S
C370   C385    1.400   .     A
C370   H398    1.083   .     S
C370   C462    1.382   .     S
C371   C385    1.400   .     A
C371   H399    1.083   .     S
C371   C459    1.382   .     S
C372   C386    1.400   .     A
C372   H400    1.083   .     S
C373   C383    1.387   .     A
C373   H393    1.085   .     S
C373   C377    1.398   .     A
C374   C378    1.398   .     A
C374   C384    1.387   .     A
C374   H394    1.085   .     S
C375   C379    1.398   .     A
C375   H395    1.085   .     S
C375   C384    1.387   .     A
C376   C380    1.398   .     A
C376   C383    1.387   .     A
C376   H396    1.085   .     S
C377   C411    1.517   .     S
C377   C381    1.428   .     A
C378   C382    1.428   .     A
C378   C421    1.518   .     S
C379   C431    1.517   .     S
C379   C382    1.428   .     A
C380   C441    1.518   .     S
C380   C381    1.428   .     A
C383   C1194   1.452   1_554 S
C384   C1193   1.452   .     S
Cu387  O407    1.962   .     S
Cu387  O405    1.962   .     S
Cu387  N401    2.009   .     S
Cu387  O403    1.962   .     S
Cu387  Cu388   2.674   .     S
Cu387  O409    1.962   .     S
Cu388  O406    1.962   .     S
Cu388  O410    1.962   .     S
Cu388  O404    1.962   .     S
Cu388  O408    1.962   .     S
Cu388  N402    2.009   .     S
C411   C412    1.532   .     S
C411   H419    1.105   .     S
C411   H420    1.113   .     S
C412   H418    1.109   .     S
C412   C413    1.526   .     S
C412   H417    1.112   .     S
C413   H414    1.110   .     S
C413   H415    1.111   .     S
C413   H416    1.109   .     S
C421   H430    1.113   .     S
C421   H429    1.106   .     S
C421   C422    1.533   .     S
C422   C423    1.527   .     S
C422   H427    1.112   .     S
C422   H428    1.110   .     S
C423   H425    1.111   .     S
C423   H426    1.109   .     S
C423   H424    1.110   .     S
C431   H439    1.105   .     S
C431   H440    1.113   .     S
C431   C432    1.532   .     S
C432   H438    1.109   .     S
C432   H437    1.112   .     S
C432   C433    1.526   .     S
C433   H434    1.110   .     S
C433   H435    1.111   .     S
C433   H436    1.109   .     S
C441   C442    1.533   .     S
C441   H449    1.106   .     S
C441   H450    1.113   .     S
C442   H447    1.112   .     S
C442   H448    1.110   .     S
C442   C443    1.527   .     S
C443   H444    1.110   .     S
C443   H445    1.111   .     S
C443   H446    1.109   .     S
C451   O496    1.289   .     A
C451   O493    1.289   .     A
C451   C476    1.447   .     S
C452   O494    1.289   .     A
C452   O495    1.289   .     A
C452   C475    1.447   .     S
C453   O497    1.295   .     A
C453   O500    1.294   .     A
C453   C471    1.474   .     S
C454   C472    1.474   .     S
C454   O498    1.294   .     A
C454   O499    1.295   .     A
C455   N492    1.366   .     A
C455   H479    1.082   .     S
C456   N491    1.367   .     A
C456   H480    1.081   .     S
C456   C727    1.415   .     S
C457   N492    1.366   .     A
C457   H481    1.082   .     S
C458   H482    1.081   .     S
C458   N491    1.367   .     A
C458   C725    1.415   .     S
C459   C476    1.400   .     A
C459   H487    1.083   .     S
C460   C475    1.400   .     A
C460   H488    1.083   .     S
C460   C282    1.382   1_655 S
C461   C475    1.400   .     A
C461   H489    1.083   .     S
C461   C279    1.382   1_655 S
C462   C476    1.400   .     A
C462   H490    1.083   .     S
C463   C473    1.387   .     A
C463   H483    1.085   .     S
C463   C467    1.398   .     A
C464   C468    1.398   .     A
C464   C474    1.387   .     A
C464   H484    1.085   .     S
C465   C469    1.398   .     A
C465   H485    1.085   .     S
C465   C474    1.387   .     A
C466   C470    1.398   .     A
C466   C473    1.387   .     A
C466   H486    1.085   .     S
C467   C501    1.517   .     S
C467   C471    1.428   .     A
C468   C472    1.428   .     A
C468   C511    1.518   .     S
C469   C521    1.517   .     S
C469   C472    1.428   .     A
C470   C531    1.518   .     S
C470   C471    1.428   .     A
C473   C1284   1.452   1_554 S
C474   C1283   1.452   .     S
Cu477  O497    1.962   .     S
Cu477  O495    1.962   .     S
Cu477  N491    2.009   .     S
Cu477  O493    1.962   .     S
Cu477  Cu478   2.674   .     S
Cu477  O499    1.962   .     S
Cu478  O496    1.962   .     S
Cu478  O500    1.962   .     S
Cu478  O494    1.962   .     S
Cu478  O498    1.962   .     S
Cu478  N492    2.009   .     S
C501   C502    1.532   .     S
C501   H509    1.105   .     S
C501   H510    1.113   .     S
C502   H508    1.109   .     S
C502   C503    1.526   .     S
C502   H507    1.112   .     S
C503   H504    1.110   .     S
C503   H505    1.111   .     S
C503   H506    1.109   .     S
C511   H520    1.113   .     S
C511   H519    1.106   .     S
C511   C512    1.533   .     S
C512   C513    1.527   .     S
C512   H517    1.112   .     S
C512   H518    1.110   .     S
C513   H515    1.111   .     S
C513   H516    1.109   .     S
C513   H514    1.110   .     S
C521   H529    1.105   .     S
C521   H530    1.113   .     S
C521   C522    1.532   .     S
C522   H528    1.109   .     S
C522   H527    1.112   .     S
C522   C523    1.526   .     S
C523   H524    1.110   .     S
C523   H525    1.111   .     S
C523   H526    1.109   .     S
C531   C532    1.533   .     S
C531   H539    1.106   .     S
C531   H540    1.113   .     S
C532   H537    1.112   .     S
C532   H538    1.110   .     S
C532   C533    1.527   .     S
C533   H534    1.110   .     S
C533   H535    1.111   .     S
C533   H536    1.109   .     S
C541   O586    1.289   .     A
C541   O583    1.289   .     A
C541   C566    1.447   .     S
C542   O584    1.289   .     A
C542   O585    1.289   .     A
C542   C565    1.447   .     S
C543   O587    1.295   .     A
C543   O590    1.294   .     A
C543   C561    1.474   .     S
C544   C562    1.474   .     S
C544   O588    1.294   .     A
C544   O589    1.295   .     A
C545   N582    1.366   .     A
C545   H569    1.082   .     S
C546   N581    1.367   .     A
C546   H570    1.081   .     S
C546   C7      1.415   1_565 S
C547   N582    1.366   .     A
C547   H571    1.082   .     S
C548   H572    1.081   .     S
C548   N581    1.367   .     A
C548   C5      1.415   1_565 S
C549   C566    1.400   .     A
C549   H577    1.083   .     S
C549   C731    1.382   1_455 S
C550   C565    1.400   .     A
C550   H578    1.083   .     S
C550   C642    1.382   .     S
C551   C565    1.400   .     A
C551   H579    1.083   .     S
C551   C639    1.382   .     S
C552   C566    1.400   .     A
C552   H580    1.083   .     S
C552   C730    1.382   1_455 S
C553   C563    1.387   .     A
C553   H573    1.085   .     S
C553   C557    1.398   .     A
C554   C558    1.398   .     A
C554   C564    1.387   .     A
C554   H574    1.085   .     S
C555   C559    1.398   .     A
C555   H575    1.085   .     S
C555   C564    1.387   .     A
C556   C560    1.398   .     A
C556   C563    1.387   .     A
C556   H576    1.085   .     S
C557   C591    1.517   .     S
C557   C561    1.428   .     A
C558   C562    1.428   .     A
C558   C601    1.518   .     S
C559   C611    1.517   .     S
C559   C562    1.428   .     A
C560   C621    1.518   .     S
C560   C561    1.428   .     A
C563   C1374   1.452   1_554 S
C564   C1373   1.452   .     S
Cu567  O587    1.962   .     S
Cu567  O585    1.962   .     S
Cu567  N581    2.009   .     S
Cu567  O583    1.962   .     S
Cu567  Cu568   2.674   .     S
Cu567  O589    1.962   .     S
Cu568  O586    1.962   .     S
Cu568  O590    1.962   .     S
Cu568  O584    1.962   .     S
Cu568  O588    1.962   .     S
Cu568  N582    2.009   .     S
C591   C592    1.532   .     S
C591   H599    1.105   .     S
C591   H600    1.113   .     S
C592   H598    1.109   .     S
C592   C593    1.526   .     S
C592   H597    1.112   .     S
C593   H594    1.110   .     S
C593   H595    1.111   .     S
C593   H596    1.109   .     S
C601   H610    1.113   .     S
C601   H609    1.106   .     S
C601   C602    1.533   .     S
C602   C603    1.527   .     S
C602   H607    1.112   .     S
C602   H608    1.110   .     S
C603   H605    1.111   .     S
C603   H606    1.109   .     S
C603   H604    1.110   .     S
C611   H619    1.105   .     S
C611   H620    1.113   .     S
C611   C612    1.532   .     S
C612   H618    1.109   .     S
C612   H617    1.112   .     S
C612   C613    1.526   .     S
C613   H614    1.110   .     S
C613   H615    1.111   .     S
C613   H616    1.109   .     S
C621   C622    1.533   .     S
C621   H629    1.106   .     S
C621   H630    1.113   .     S
C622   H627    1.112   .     S
C622   H628    1.110   .     S
C622   C623    1.527   .     S
C623   H624    1.110   .     S
C623   H625    1.111   .     S
C623   H626    1.109   .     S
C631   O676    1.289   .     A
C631   O673    1.289   .     A
C631   C656    1.447   .     S
C632   O674    1.289   .     A
C632   O675    1.289   .     A
C632   C655    1.447   .     S
C633   O677    1.295   .     A
C633   O680    1.294   .     A
C633   C651    1.474   .     S
C634   C652    1.474   .     S
C634   O678    1.294   .     A
C634   O679    1.295   .     A
C635   N672    1.366   .     A
C635   H659    1.082   .     S
C636   N671    1.367   .     A
C636   H660    1.081   .     S
C636   C97     1.415   1_565 S
C637   N672    1.366   .     A
C637   H661    1.082   .     S
C638   H662    1.081   .     S
C638   N671    1.367   .     A
C638   C95     1.415   1_565 S
C639   C656    1.400   .     A
C639   H667    1.083   .     S
C640   C655    1.400   .     A
C640   H668    1.083   .     S
C640   C732    1.382   .     S
C641   C655    1.400   .     A
C641   H669    1.083   .     S
C641   C729    1.382   .     S
C642   C656    1.400   .     A
C642   H670    1.083   .     S
C643   C653    1.387   .     A
C643   H663    1.085   .     S
C643   C647    1.398   .     A
C644   C648    1.398   .     A
C644   C654    1.387   .     A
C644   H664    1.085   .     S
C645   C649    1.398   .     A
C645   H665    1.085   .     S
C645   C654    1.387   .     A
C646   C650    1.398   .     A
C646   C653    1.387   .     A
C646   H666    1.085   .     S
C647   C681    1.517   .     S
C647   C651    1.428   .     A
C648   C652    1.428   .     A
C648   C691    1.518   .     S
C649   C701    1.517   .     S
C649   C652    1.428   .     A
C650   C711    1.518   .     S
C650   C651    1.428   .     A
C653   C1464   1.452   1_554 S
C654   C1463   1.452   .     S
Cu657  O677    1.962   .     S
Cu657  O675    1.962   .     S
Cu657  N671    2.009   .     S
Cu657  O673    1.962   .     S
Cu657  Cu658   2.674   .     S
Cu657  O679    1.962   .     S
Cu658  O676    1.962   .     S
Cu658  O680    1.962   .     S
Cu658  O674    1.962   .     S
Cu658  O678    1.962   .     S
Cu658  N672    2.009   .     S
C681   C682    1.532   .     S
C681   H689    1.105   .     S
C681   H690    1.113   .     S
C682   H688    1.109   .     S
C682   C683    1.526   .     S
C682   H687    1.112   .     S
C683   H684    1.110   .     S
C683   H685    1.111   .     S
C683   H686    1.109   .     S
C691   H700    1.113   .     S
C691   H699    1.106   .     S
C691   C692    1.533   .     S
C692   C693    1.527   .     S
C692   H697    1.112   .     S
C692   H698    1.110   .     S
C693   H695    1.111   .     S
C693   H696    1.109   .     S
C693   H694    1.110   .     S
C701   H709    1.105   .     S
C701   H710    1.113   .     S
C701   C702    1.532   .     S
C702   H708    1.109   .     S
C702   H707    1.112   .     S
C702   C703    1.526   .     S
C703   H704    1.110   .     S
C703   H705    1.111   .     S
C703   H706    1.109   .     S
C711   C712    1.533   .     S
C711   H719    1.106   .     S
C711   H720    1.113   .     S
C712   H717    1.112   .     S
C712   H718    1.110   .     S
C712   C713    1.527   .     S
C713   H714    1.110   .     S
C713   H715    1.111   .     S
C713   H716    1.109   .     S
C721   O766    1.289   .     A
C721   O763    1.289   .     A
C721   C746    1.447   .     S
C722   O764    1.289   .     A
C722   O765    1.289   .     A
C722   C745    1.447   .     S
C723   O767    1.295   .     A
C723   O770    1.294   .     A
C723   C741    1.474   .     S
C724   C742    1.474   .     S
C724   O768    1.294   .     A
C724   O769    1.295   .     A
C725   N762    1.366   .     A
C725   H749    1.082   .     S
C726   N761    1.367   .     A
C726   H750    1.081   .     S
C726   C187    1.415   1_565 S
C727   N762    1.366   .     A
C727   H751    1.082   .     S
C728   H752    1.081   .     S
C728   N761    1.367   .     A
C728   C185    1.415   1_565 S
C729   C746    1.400   .     A
C729   H757    1.083   .     S
C730   C745    1.400   .     A
C730   H758    1.083   .     S
C730   C552    1.382   1_655 S
C731   C745    1.400   .     A
C731   H759    1.083   .     S
C731   C549    1.382   1_655 S
C732   C746    1.400   .     A
C732   H760    1.083   .     S
C733   C743    1.387   .     A
C733   H753    1.085   .     S
C733   C737    1.398   .     A
C734   C738    1.398   .     A
C734   C744    1.387   .     A
C734   H754    1.085   .     S
C735   C739    1.398   .     A
C735   H755    1.085   .     S
C735   C744    1.387   .     A
C736   C740    1.398   .     A
C736   C743    1.387   .     A
C736   H756    1.085   .     S
C737   C771    1.517   .     S
C737   C741    1.428   .     A
C738   C742    1.428   .     A
C738   C781    1.518   .     S
C739   C791    1.517   .     S
C739   C742    1.428   .     A
C740   C801    1.518   .     S
C740   C741    1.428   .     A
C743   C1554   1.452   1_554 S
C744   C1553   1.452   .     S
Cu747  O767    1.962   .     S
Cu747  O765    1.962   .     S
Cu747  N761    2.009   .     S
Cu747  O763    1.962   .     S
Cu747  Cu748   2.674   .     S
Cu747  O769    1.962   .     S
Cu748  O766    1.962   .     S
Cu748  O770    1.962   .     S
Cu748  O764    1.962   .     S
Cu748  O768    1.962   .     S
Cu748  N762    2.009   .     S
C771   C772    1.532   .     S
C771   H779    1.105   .     S
C771   H780    1.113   .     S
C772   H778    1.109   .     S
C772   C773    1.526   .     S
C772   H777    1.112   .     S
C773   H774    1.110   .     S
C773   H775    1.111   .     S
C773   H776    1.109   .     S
C781   H790    1.113   .     S
C781   H789    1.106   .     S
C781   C782    1.533   .     S
C782   C783    1.527   .     S
C782   H787    1.112   .     S
C782   H788    1.110   .     S
C783   H785    1.111   .     S
C783   H786    1.109   .     S
C783   H784    1.110   .     S
C791   H799    1.105   .     S
C791   H800    1.113   .     S
C791   C792    1.532   .     S
C792   H798    1.109   .     S
C792   H797    1.112   .     S
C792   C793    1.526   .     S
C793   H794    1.110   .     S
C793   H795    1.111   .     S
C793   H796    1.109   .     S
C801   C802    1.533   .     S
C801   H809    1.106   .     S
C801   H810    1.113   .     S
C802   H807    1.112   .     S
C802   H808    1.110   .     S
C802   C803    1.527   .     S
C803   H804    1.110   .     S
C803   H805    1.111   .     S
C803   H806    1.109   .     S
C811   O856    1.289   .     A
C811   O853    1.289   .     A
C811   C836    1.447   .     S
C812   O854    1.289   .     A
C812   O855    1.289   .     A
C812   C835    1.447   .     S
C813   O857    1.295   .     A
C813   O860    1.294   .     A
C813   C831    1.474   .     S
C814   C832    1.474   .     S
C814   O858    1.294   .     A
C814   O859    1.295   .     A
C815   N852    1.366   .     A
C815   H839    1.082   .     S
C815   C1358   1.415   1_545 S
C816   N851    1.367   .     A
C816   H840    1.081   .     S
C816   C1087   1.415   .     S
C817   N852    1.366   .     A
C817   H841    1.082   .     S
C817   C1356   1.415   1_545 S
C818   H842    1.081   .     S
C818   N851    1.367   .     A
C818   C1085   1.415   .     S
C819   C836    1.400   .     A
C819   H847    1.083   .     S
C819   C1001   1.382   1_455 S
C820   C835    1.400   .     A
C820   H848    1.083   .     S
C820   C912    1.382   .     S
C821   C835    1.400   .     A
C821   H849    1.083   .     S
C821   C909    1.382   .     S
C822   C836    1.400   .     A
C822   H850    1.083   .     S
C822   C1000   1.382   1_455 S
C823   C833    1.387   .     A
C823   H843    1.085   .     S
C823   C827    1.398   .     A
C824   C828    1.398   .     A
C824   C834    1.387   .     A
C824   H844    1.085   .     S
C825   C829    1.398   .     A
C825   H845    1.085   .     S
C825   C834    1.387   .     A
C826   C830    1.398   .     A
C826   C833    1.387   .     A
C826   H846    1.085   .     S
C827   C861    1.517   .     S
C827   C831    1.428   .     A
C828   C832    1.428   .     A
C828   C871    1.518   .     S
C829   C881    1.517   .     S
C829   C832    1.428   .     A
C830   C891    1.518   .     S
C830   C831    1.428   .     A
C834   C23     1.452   1_556 S
Cu837  O857    1.962   .     S
Cu837  O855    1.962   .     S
Cu837  N851    2.009   .     S
Cu837  O853    1.962   .     S
Cu837  Cu838   2.674   .     S
Cu837  O859    1.962   .     S
Cu838  O856    1.962   .     S
Cu838  O860    1.962   .     S
Cu838  O854    1.962   .     S
Cu838  O858    1.962   .     S
Cu838  N852    2.009   .     S
C861   C862    1.532   .     S
C861   H869    1.105   .     S
C861   H870    1.113   .     S
C862   H868    1.109   .     S
C862   C863    1.526   .     S
C862   H867    1.112   .     S
C863   H864    1.110   .     S
C863   H865    1.111   .     S
C863   H866    1.109   .     S
C871   H880    1.113   .     S
C871   H879    1.106   .     S
C871   C872    1.533   .     S
C872   C873    1.527   .     S
C872   H877    1.112   .     S
C872   H878    1.110   .     S
C873   H875    1.111   .     S
C873   H876    1.109   .     S
C873   H874    1.110   .     S
C881   H889    1.105   .     S
C881   H890    1.113   .     S
C881   C882    1.532   .     S
C882   H888    1.109   .     S
C882   H887    1.112   .     S
C882   C883    1.526   .     S
C883   H884    1.110   .     S
C883   H885    1.111   .     S
C883   H886    1.109   .     S
C891   C892    1.533   .     S
C891   H899    1.106   .     S
C891   H900    1.113   .     S
C892   H897    1.112   .     S
C892   H898    1.110   .     S
C892   C893    1.527   .     S
C893   H894    1.110   .     S
C893   H895    1.111   .     S
C893   H896    1.109   .     S
C901   O946    1.289   .     A
C901   O943    1.289   .     A
C901   C926    1.447   .     S
C902   O944    1.289   .     A
C902   O945    1.289   .     A
C902   C925    1.447   .     S
C903   O947    1.295   .     A
C903   O950    1.294   .     A
C903   C921    1.474   .     S
C904   C922    1.474   .     S
C904   O948    1.294   .     A
C904   O949    1.295   .     A
C905   N942    1.366   .     A
C905   H929    1.082   .     S
C905   C1448   1.415   1_545 S
C906   N941    1.367   .     A
C906   H930    1.081   .     S
C906   C1177   1.415   .     S
C907   N942    1.366   .     A
C907   H931    1.082   .     S
C907   C1446   1.415   1_545 S
C908   H932    1.081   .     S
C908   N941    1.367   .     A
C908   C1175   1.415   .     S
C909   C926    1.400   .     A
C909   H937    1.083   .     S
C910   C925    1.400   .     A
C910   H938    1.083   .     S
C910   C1002   1.382   .     S
C911   C925    1.400   .     A
C911   H939    1.083   .     S
C911   C999    1.382   .     S
C912   C926    1.400   .     A
C912   H940    1.083   .     S
C913   C923    1.387   .     A
C913   H933    1.085   .     S
C913   C917    1.398   .     A
C914   C918    1.398   .     A
C914   C924    1.387   .     A
C914   H934    1.085   .     S
C915   C919    1.398   .     A
C915   H935    1.085   .     S
C915   C924    1.387   .     A
C916   C920    1.398   .     A
C916   C923    1.387   .     A
C916   H936    1.085   .     S
C917   C951    1.517   .     S
C917   C921    1.428   .     A
C918   C922    1.428   .     A
C918   C961    1.518   .     S
C919   C971    1.517   .     S
C919   C922    1.428   .     A
C920   C981    1.518   .     S
C920   C921    1.428   .     A
C924   C113    1.452   1_556 S
Cu927  O947    1.962   .     S
Cu927  O945    1.962   .     S
Cu927  N941    2.009   .     S
Cu927  O943    1.962   .     S
Cu927  Cu928   2.674   .     S
Cu927  O949    1.962   .     S
Cu928  O946    1.962   .     S
Cu928  O950    1.962   .     S
Cu928  O944    1.962   .     S
Cu928  O948    1.962   .     S
Cu928  N942    2.009   .     S
C951   C952    1.532   .     S
C951   H959    1.105   .     S
C951   H960    1.113   .     S
C952   H958    1.109   .     S
C952   C953    1.526   .     S
C952   H957    1.112   .     S
C953   H954    1.110   .     S
C953   H955    1.111   .     S
C953   H956    1.109   .     S
C961   H970    1.113   .     S
C961   H969    1.106   .     S
C961   C962    1.533   .     S
C962   C963    1.527   .     S
C962   H967    1.112   .     S
C962   H968    1.110   .     S
C963   H965    1.111   .     S
C963   H966    1.109   .     S
C963   H964    1.110   .     S
C971   H979    1.105   .     S
C971   H980    1.113   .     S
C971   C972    1.532   .     S
C972   H978    1.109   .     S
C972   H977    1.112   .     S
C972   C973    1.526   .     S
C973   H974    1.110   .     S
C973   H975    1.111   .     S
C973   H976    1.109   .     S
C981   C982    1.533   .     S
C981   H989    1.106   .     S
C981   H990    1.113   .     S
C982   H987    1.112   .     S
C982   H988    1.110   .     S
C982   C983    1.527   .     S
C983   H984    1.110   .     S
C983   H985    1.111   .     S
C983   H986    1.109   .     S
C991   O1036   1.289   .     A
C991   O1033   1.289   .     A
C991   C1016   1.447   .     S
C992   O1034   1.289   .     A
C992   O1035   1.289   .     A
C992   C1015   1.447   .     S
C993   O1037   1.295   .     A
C993   O1040   1.294   .     A
C993   C1011   1.474   .     S
C994   C1012   1.474   .     S
C994   O1038   1.294   .     A
C994   O1039   1.295   .     A
C995   N1032   1.366   .     A
C995   H1019   1.082   .     S
C995   C1538   1.415   1_545 S
C996   N1031   1.367   .     A
C996   H1020   1.081   .     S
C996   C1267   1.415   .     S
C997   N1032   1.366   .     A
C997   H1021   1.082   .     S
C997   C1536   1.415   1_545 S
C998   H1022   1.081   .     S
C998   N1031   1.367   .     A
C998   C1265   1.415   .     S
C999   C1016   1.400   .     A
C999   H1027   1.083   .     S
C1000  C1015   1.400   .     A
C1000  H1028   1.083   .     S
C1000  C822    1.382   1_655 S
C1001  C1015   1.400   .     A
C1001  H1029   1.083   .     S
C1001  C819    1.382   1_655 S
C1002  C1016   1.400   .     A
C1002  H1030   1.083   .     S
C1003  C1013   1.387   .     A
C1003  H1023   1.085   .     S
C1003  C1007   1.398   .     A
C1004  C1008   1.398   .     A
C1004  C1014   1.387   .     A
C1004  H1024   1.085   .     S
C1005  C1009   1.398   .     A
C1005  H1025   1.085   .     S
C1005  C1014   1.387   .     A
C1006  C1010   1.398   .     A
C1006  C1013   1.387   .     A
C1006  H1026   1.085   .     S
C1007  C1041   1.517   .     S
C1007  C1011   1.428   .     A
C1008  C1012   1.428   .     A
C1008  C1051   1.518   .     S
C1009  C1061   1.517   .     S
C1009  C1012   1.428   .     A
C1010  C1071   1.518   .     S
C1010  C1011   1.428   .     A
C1014  C203    1.452   1_556 S
Cu1017 O1037   1.962   .     S
Cu1017 O1035   1.962   .     S
Cu1017 N1031   2.009   .     S
Cu1017 O1033   1.962   .     S
Cu1017 Cu1018  2.674   .     S
Cu1017 O1039   1.962   .     S
Cu1018 O1036   1.962   .     S
Cu1018 O1040   1.962   .     S
Cu1018 O1034   1.962   .     S
Cu1018 O1038   1.962   .     S
Cu1018 N1032   2.009   .     S
C1041  C1042   1.532   .     S
C1041  H1049   1.105   .     S
C1041  H1050   1.113   .     S
C1042  H1048   1.109   .     S
C1042  C1043   1.526   .     S
C1042  H1047   1.112   .     S
C1043  H1044   1.110   .     S
C1043  H1045   1.111   .     S
C1043  H1046   1.109   .     S
C1051  H1060   1.113   .     S
C1051  H1059   1.106   .     S
C1051  C1052   1.533   .     S
C1052  C1053   1.527   .     S
C1052  H1057   1.112   .     S
C1052  H1058   1.110   .     S
C1053  H1055   1.111   .     S
C1053  H1056   1.109   .     S
C1053  H1054   1.110   .     S
C1061  H1069   1.105   .     S
C1061  H1070   1.113   .     S
C1061  C1062   1.532   .     S
C1062  H1068   1.109   .     S
C1062  H1067   1.112   .     S
C1062  C1063   1.526   .     S
C1063  H1064   1.110   .     S
C1063  H1065   1.111   .     S
C1063  H1066   1.109   .     S
C1071  C1072   1.533   .     S
C1071  H1079   1.106   .     S
C1071  H1080   1.113   .     S
C1072  H1077   1.112   .     S
C1072  H1078   1.110   .     S
C1072  C1073   1.527   .     S
C1073  H1074   1.110   .     S
C1073  H1075   1.111   .     S
C1073  H1076   1.109   .     S
C1081  O1126   1.289   .     A
C1081  O1123   1.289   .     A
C1081  C1106   1.447   .     S
C1082  O1124   1.289   .     A
C1082  O1125   1.289   .     A
C1082  C1105   1.447   .     S
C1083  O1127   1.295   .     A
C1083  O1130   1.294   .     A
C1083  C1101   1.474   .     S
C1084  C1102   1.474   .     S
C1084  O1128   1.294   .     A
C1084  O1129   1.295   .     A
C1085  N1122   1.366   .     A
C1085  H1109   1.082   .     S
C1086  N1121   1.367   .     A
C1086  H1110   1.081   .     S
C1086  C1357   1.415   .     S
C1087  N1122   1.366   .     A
C1087  H1111   1.082   .     S
C1088  H1112   1.081   .     S
C1088  N1121   1.367   .     A
C1088  C1355   1.415   .     S
C1089  C1106   1.400   .     A
C1089  H1117   1.083   .     S
C1089  C1271   1.382   1_455 S
C1090  C1105   1.400   .     A
C1090  H1118   1.083   .     S
C1090  C1182   1.382   .     S
C1091  C1105   1.400   .     A
C1091  H1119   1.083   .     S
C1091  C1179   1.382   .     S
C1092  C1106   1.400   .     A
C1092  H1120   1.083   .     S
C1092  C1270   1.382   1_455 S
C1093  C1103   1.387   .     A
C1093  H1113   1.085   .     S
C1093  C1097   1.398   .     A
C1094  C1098   1.398   .     A
C1094  C1104   1.387   .     A
C1094  H1114   1.085   .     S
C1095  C1099   1.398   .     A
C1095  H1115   1.085   .     S
C1095  C1104   1.387   .     A
C1096  C1100   1.398   .     A
C1096  C1103   1.387   .     A
C1096  H1116   1.085   .     S
C1097  C1131   1.517   .     S
C1097  C1101   1.428   .     A
C1098  C1102   1.428   .     A
C1098  C1141   1.518   .     S
C1099  C1151   1.517   .     S
C1099  C1102   1.428   .     A
C1100  C1161   1.518   .     S
C1100  C1101   1.428   .     A
C1104  C293    1.452   1_556 S
Cu1107 O1127   1.962   .     S
Cu1107 O1125   1.962   .     S
Cu1107 N1121   2.009   .     S
Cu1107 O1123   1.962   .     S
Cu1107 Cu1108  2.674   .     S
Cu1107 O1129   1.962   .     S
Cu1108 O1126   1.962   .     S
Cu1108 O1130   1.962   .     S
Cu1108 O1124   1.962   .     S
Cu1108 O1128   1.962   .     S
Cu1108 N1122   2.009   .     S
C1131  C1132   1.532   .     S
C1131  H1139   1.105   .     S
C1131  H1140   1.113   .     S
C1132  H1138   1.109   .     S
C1132  C1133   1.526   .     S
C1132  H1137   1.112   .     S
C1133  H1134   1.110   .     S
C1133  H1135   1.111   .     S
C1133  H1136   1.109   .     S
C1141  H1150   1.113   .     S
C1141  H1149   1.106   .     S
C1141  C1142   1.533   .     S
C1142  C1143   1.527   .     S
C1142  H1147   1.112   .     S
C1142  H1148   1.110   .     S
C1143  H1145   1.111   .     S
C1143  H1146   1.109   .     S
C1143  H1144   1.110   .     S
C1151  H1159   1.105   .     S
C1151  H1160   1.113   .     S
C1151  C1152   1.532   .     S
C1152  H1158   1.109   .     S
C1152  H1157   1.112   .     S
C1152  C1153   1.526   .     S
C1153  H1154   1.110   .     S
C1153  H1155   1.111   .     S
C1153  H1156   1.109   .     S
C1161  C1162   1.533   .     S
C1161  H1169   1.106   .     S
C1161  H1170   1.113   .     S
C1162  H1167   1.112   .     S
C1162  H1168   1.110   .     S
C1162  C1163   1.527   .     S
C1163  H1164   1.110   .     S
C1163  H1165   1.111   .     S
C1163  H1166   1.109   .     S
C1171  O1216   1.289   .     A
C1171  O1213   1.289   .     A
C1171  C1196   1.447   .     S
C1172  O1214   1.289   .     A
C1172  O1215   1.289   .     A
C1172  C1195   1.447   .     S
C1173  O1217   1.295   .     A
C1173  O1220   1.294   .     A
C1173  C1191   1.474   .     S
C1174  C1192   1.474   .     S
C1174  O1218   1.294   .     A
C1174  O1219   1.295   .     A
C1175  N1212   1.366   .     A
C1175  H1199   1.082   .     S
C1176  N1211   1.367   .     A
C1176  H1200   1.081   .     S
C1176  C1447   1.415   .     S
C1177  N1212   1.366   .     A
C1177  H1201   1.082   .     S
C1178  H1202   1.081   .     S
C1178  N1211   1.367   .     A
C1178  C1445   1.415   .     S
C1179  C1196   1.400   .     A
C1179  H1207   1.083   .     S
C1180  C1195   1.400   .     A
C1180  H1208   1.083   .     S
C1180  C1272   1.382   .     S
C1181  C1195   1.400   .     A
C1181  H1209   1.083   .     S
C1181  C1269   1.382   .     S
C1182  C1196   1.400   .     A
C1182  H1210   1.083   .     S
C1183  C1193   1.387   .     A
C1183  H1203   1.085   .     S
C1183  C1187   1.398   .     A
C1184  C1188   1.398   .     A
C1184  C1194   1.387   .     A
C1184  H1204   1.085   .     S
C1185  C1189   1.398   .     A
C1185  H1205   1.085   .     S
C1185  C1194   1.387   .     A
C1186  C1190   1.398   .     A
C1186  C1193   1.387   .     A
C1186  H1206   1.085   .     S
C1187  C1221   1.517   .     S
C1187  C1191   1.428   .     A
C1188  C1192   1.428   .     A
C1188  C1231   1.518   .     S
C1189  C1241   1.517   .     S
C1189  C1192   1.428   .     A
C1190  C1251   1.518   .     S
C1190  C1191   1.428   .     A
C1194  C383    1.452   1_556 S
Cu1197 O1217   1.962   .     S
Cu1197 O1215   1.962   .     S
Cu1197 N1211   2.009   .     S
Cu1197 O1213   1.962   .     S
Cu1197 Cu1198  2.674   .     S
Cu1197 O1219   1.962   .     S
Cu1198 O1216   1.962   .     S
Cu1198 O1220   1.962   .     S
Cu1198 O1214   1.962   .     S
Cu1198 O1218   1.962   .     S
Cu1198 N1212   2.009   .     S
C1221  C1222   1.532   .     S
C1221  H1229   1.105   .     S
C1221  H1230   1.113   .     S
C1222  H1228   1.109   .     S
C1222  C1223   1.526   .     S
C1222  H1227   1.112   .     S
C1223  H1224   1.110   .     S
C1223  H1225   1.111   .     S
C1223  H1226   1.109   .     S
C1231  H1240   1.113   .     S
C1231  H1239   1.106   .     S
C1231  C1232   1.533   .     S
C1232  C1233   1.527   .     S
C1232  H1237   1.112   .     S
C1232  H1238   1.110   .     S
C1233  H1235   1.111   .     S
C1233  H1236   1.109   .     S
C1233  H1234   1.110   .     S
C1241  H1249   1.105   .     S
C1241  H1250   1.113   .     S
C1241  C1242   1.532   .     S
C1242  H1248   1.109   .     S
C1242  H1247   1.112   .     S
C1242  C1243   1.526   .     S
C1243  H1244   1.110   .     S
C1243  H1245   1.111   .     S
C1243  H1246   1.109   .     S
C1251  C1252   1.533   .     S
C1251  H1259   1.106   .     S
C1251  H1260   1.113   .     S
C1252  H1257   1.112   .     S
C1252  H1258   1.110   .     S
C1252  C1253   1.527   .     S
C1253  H1254   1.110   .     S
C1253  H1255   1.111   .     S
C1253  H1256   1.109   .     S
C1261  O1306   1.289   .     A
C1261  O1303   1.289   .     A
C1261  C1286   1.447   .     S
C1262  O1304   1.289   .     A
C1262  O1305   1.289   .     A
C1262  C1285   1.447   .     S
C1263  O1307   1.295   .     A
C1263  O1310   1.294   .     A
C1263  C1281   1.474   .     S
C1264  C1282   1.474   .     S
C1264  O1308   1.294   .     A
C1264  O1309   1.295   .     A
C1265  N1302   1.366   .     A
C1265  H1289   1.082   .     S
C1266  N1301   1.367   .     A
C1266  H1290   1.081   .     S
C1266  C1537   1.415   .     S
C1267  N1302   1.366   .     A
C1267  H1291   1.082   .     S
C1268  H1292   1.081   .     S
C1268  N1301   1.367   .     A
C1268  C1535   1.415   .     S
C1269  C1286   1.400   .     A
C1269  H1297   1.083   .     S
C1270  C1285   1.400   .     A
C1270  H1298   1.083   .     S
C1270  C1092   1.382   1_655 S
C1271  C1285   1.400   .     A
C1271  H1299   1.083   .     S
C1271  C1089   1.382   1_655 S
C1272  C1286   1.400   .     A
C1272  H1300   1.083   .     S
C1273  C1283   1.387   .     A
C1273  H1293   1.085   .     S
C1273  C1277   1.398   .     A
C1274  C1278   1.398   .     A
C1274  C1284   1.387   .     A
C1274  H1294   1.085   .     S
C1275  C1279   1.398   .     A
C1275  H1295   1.085   .     S
C1275  C1284   1.387   .     A
C1276  C1280   1.398   .     A
C1276  C1283   1.387   .     A
C1276  H1296   1.085   .     S
C1277  C1311   1.517   .     S
C1277  C1281   1.428   .     A
C1278  C1282   1.428   .     A
C1278  C1321   1.518   .     S
C1279  C1331   1.517   .     S
C1279  C1282   1.428   .     A
C1280  C1341   1.518   .     S
C1280  C1281   1.428   .     A
C1284  C473    1.452   1_556 S
Cu1287 O1307   1.962   .     S
Cu1287 O1305   1.962   .     S
Cu1287 N1301   2.009   .     S
Cu1287 O1303   1.962   .     S
Cu1287 Cu1288  2.674   .     S
Cu1287 O1309   1.962   .     S
Cu1288 O1306   1.962   .     S
Cu1288 O1310   1.962   .     S
Cu1288 O1304   1.962   .     S
Cu1288 O1308   1.962   .     S
Cu1288 N1302   2.009   .     S
C1311  C1312   1.532   .     S
C1311  H1319   1.105   .     S
C1311  H1320   1.113   .     S
C1312  H1318   1.109   .     S
C1312  C1313   1.526   .     S
C1312  H1317   1.112   .     S
C1313  H1314   1.110   .     S
C1313  H1315   1.111   .     S
C1313  H1316   1.109   .     S
C1321  H1330   1.113   .     S
C1321  H1329   1.106   .     S
C1321  C1322   1.533   .     S
C1322  C1323   1.527   .     S
C1322  H1327   1.112   .     S
C1322  H1328   1.110   .     S
C1323  H1325   1.111   .     S
C1323  H1326   1.109   .     S
C1323  H1324   1.110   .     S
C1331  H1339   1.105   .     S
C1331  H1340   1.113   .     S
C1331  C1332   1.532   .     S
C1332  H1338   1.109   .     S
C1332  H1337   1.112   .     S
C1332  C1333   1.526   .     S
C1333  H1334   1.110   .     S
C1333  H1335   1.111   .     S
C1333  H1336   1.109   .     S
C1341  C1342   1.533   .     S
C1341  H1349   1.106   .     S
C1341  H1350   1.113   .     S
C1342  H1347   1.112   .     S
C1342  H1348   1.110   .     S
C1342  C1343   1.527   .     S
C1343  H1344   1.110   .     S
C1343  H1345   1.111   .     S
C1343  H1346   1.109   .     S
C1351  O1396   1.289   .     A
C1351  O1393   1.289   .     A
C1351  C1376   1.447   .     S
C1352  O1394   1.289   .     A
C1352  O1395   1.289   .     A
C1352  C1375   1.447   .     S
C1353  O1397   1.295   .     A
C1353  O1400   1.294   .     A
C1353  C1371   1.474   .     S
C1354  C1372   1.474   .     S
C1354  O1398   1.294   .     A
C1354  O1399   1.295   .     A
C1355  N1392   1.366   .     A
C1355  H1379   1.082   .     S
C1356  N1391   1.367   .     A
C1356  H1380   1.081   .     S
C1356  C817    1.415   1_565 S
C1357  N1392   1.366   .     A
C1357  H1381   1.082   .     S
C1358  H1382   1.081   .     S
C1358  N1391   1.367   .     A
C1358  C815    1.415   1_565 S
C1359  C1376   1.400   .     A
C1359  H1387   1.083   .     S
C1359  C1541   1.382   1_455 S
C1360  C1375   1.400   .     A
C1360  H1388   1.083   .     S
C1360  C1452   1.382   .     S
C1361  C1375   1.400   .     A
C1361  H1389   1.083   .     S
C1361  C1449   1.382   .     S
C1362  C1376   1.400   .     A
C1362  H1390   1.083   .     S
C1362  C1540   1.382   1_455 S
C1363  C1373   1.387   .     A
C1363  H1383   1.085   .     S
C1363  C1367   1.398   .     A
C1364  C1368   1.398   .     A
C1364  C1374   1.387   .     A
C1364  H1384   1.085   .     S
C1365  C1369   1.398   .     A
C1365  H1385   1.085   .     S
C1365  C1374   1.387   .     A
C1366  C1370   1.398   .     A
C1366  C1373   1.387   .     A
C1366  H1386   1.085   .     S
C1367  C1401   1.517   .     S
C1367  C1371   1.428   .     A
C1368  C1372   1.428   .     A
C1368  C1411   1.518   .     S
C1369  C1421   1.517   .     S
C1369  C1372   1.428   .     A
C1370  C1431   1.518   .     S
C1370  C1371   1.428   .     A
C1374  C563    1.452   1_556 S
Cu1377 O1397   1.962   .     S
Cu1377 O1395   1.962   .     S
Cu1377 N1391   2.009   .     S
Cu1377 O1393   1.962   .     S
Cu1377 Cu1378  2.674   .     S
Cu1377 O1399   1.962   .     S
Cu1378 O1396   1.962   .     S
Cu1378 O1400   1.962   .     S
Cu1378 O1394   1.962   .     S
Cu1378 O1398   1.962   .     S
Cu1378 N1392   2.009   .     S
C1401  C1402   1.532   .     S
C1401  H1409   1.105   .     S
C1401  H1410   1.113   .     S
C1402  H1408   1.109   .     S
C1402  C1403   1.526   .     S
C1402  H1407   1.112   .     S
C1403  H1404   1.110   .     S
C1403  H1405   1.111   .     S
C1403  H1406   1.109   .     S
C1411  H1420   1.113   .     S
C1411  H1419   1.106   .     S
C1411  C1412   1.533   .     S
C1412  C1413   1.527   .     S
C1412  H1417   1.112   .     S
C1412  H1418   1.110   .     S
C1413  H1415   1.111   .     S
C1413  H1416   1.109   .     S
C1413  H1414   1.110   .     S
C1421  H1429   1.105   .     S
C1421  H1430   1.113   .     S
C1421  C1422   1.532   .     S
C1422  H1428   1.109   .     S
C1422  H1427   1.112   .     S
C1422  C1423   1.526   .     S
C1423  H1424   1.110   .     S
C1423  H1425   1.111   .     S
C1423  H1426   1.109   .     S
C1431  C1432   1.533   .     S
C1431  H1439   1.106   .     S
C1431  H1440   1.113   .     S
C1432  H1437   1.112   .     S
C1432  H1438   1.110   .     S
C1432  C1433   1.527   .     S
C1433  H1434   1.110   .     S
C1433  H1435   1.111   .     S
C1433  H1436   1.109   .     S
C1441  O1486   1.289   .     A
C1441  O1483   1.289   .     A
C1441  C1466   1.447   .     S
C1442  O1484   1.289   .     A
C1442  O1485   1.289   .     A
C1442  C1465   1.447   .     S
C1443  O1487   1.295   .     A
C1443  O1490   1.294   .     A
C1443  C1461   1.474   .     S
C1444  C1462   1.474   .     S
C1444  O1488   1.294   .     A
C1444  O1489   1.295   .     A
C1445  N1482   1.366   .     A
C1445  H1469   1.082   .     S
C1446  N1481   1.367   .     A
C1446  H1470   1.081   .     S
C1446  C907    1.415   1_565 S
C1447  N1482   1.366   .     A
C1447  H1471   1.082   .     S
C1448  H1472   1.081   .     S
C1448  N1481   1.367   .     A
C1448  C905    1.415   1_565 S
C1449  C1466   1.400   .     A
C1449  H1477   1.083   .     S
C1450  C1465   1.400   .     A
C1450  H1478   1.083   .     S
C1450  C1542   1.382   .     S
C1451  C1465   1.400   .     A
C1451  H1479   1.083   .     S
C1451  C1539   1.382   .     S
C1452  C1466   1.400   .     A
C1452  H1480   1.083   .     S
C1453  C1463   1.387   .     A
C1453  H1473   1.085   .     S
C1453  C1457   1.398   .     A
C1454  C1458   1.398   .     A
C1454  C1464   1.387   .     A
C1454  H1474   1.085   .     S
C1455  C1459   1.398   .     A
C1455  H1475   1.085   .     S
C1455  C1464   1.387   .     A
C1456  C1460   1.398   .     A
C1456  C1463   1.387   .     A
C1456  H1476   1.085   .     S
C1457  C1491   1.517   .     S
C1457  C1461   1.428   .     A
C1458  C1462   1.428   .     A
C1458  C1501   1.518   .     S
C1459  C1511   1.517   .     S
C1459  C1462   1.428   .     A
C1460  C1521   1.518   .     S
C1460  C1461   1.428   .     A
C1464  C653    1.452   1_556 S
Cu1467 O1487   1.962   .     S
Cu1467 O1485   1.962   .     S
Cu1467 N1481   2.009   .     S
Cu1467 O1483   1.962   .     S
Cu1467 Cu1468  2.674   .     S
Cu1467 O1489   1.962   .     S
Cu1468 O1486   1.962   .     S
Cu1468 O1490   1.962   .     S
Cu1468 O1484   1.962   .     S
Cu1468 O1488   1.962   .     S
Cu1468 N1482   2.009   .     S
C1491  C1492   1.532   .     S
C1491  H1499   1.105   .     S
C1491  H1500   1.113   .     S
C1492  H1498   1.109   .     S
C1492  C1493   1.526   .     S
C1492  H1497   1.112   .     S
C1493  H1494   1.110   .     S
C1493  H1495   1.111   .     S
C1493  H1496   1.109   .     S
C1501  H1510   1.113   .     S
C1501  H1509   1.106   .     S
C1501  C1502   1.533   .     S
C1502  C1503   1.527   .     S
C1502  H1507   1.112   .     S
C1502  H1508   1.110   .     S
C1503  H1505   1.111   .     S
C1503  H1506   1.109   .     S
C1503  H1504   1.110   .     S
C1511  H1519   1.105   .     S
C1511  H1520   1.113   .     S
C1511  C1512   1.532   .     S
C1512  H1518   1.109   .     S
C1512  H1517   1.112   .     S
C1512  C1513   1.526   .     S
C1513  H1514   1.110   .     S
C1513  H1515   1.111   .     S
C1513  H1516   1.109   .     S
C1521  C1522   1.533   .     S
C1521  H1529   1.106   .     S
C1521  H1530   1.113   .     S
C1522  H1527   1.112   .     S
C1522  H1528   1.110   .     S
C1522  C1523   1.527   .     S
C1523  H1524   1.110   .     S
C1523  H1525   1.111   .     S
C1523  H1526   1.109   .     S
C1531  O1576   1.289   .     A
C1531  O1573   1.289   .     A
C1531  C1556   1.447   .     S
C1532  O1574   1.289   .     A
C1532  O1575   1.289   .     A
C1532  C1555   1.447   .     S
C1533  O1577   1.295   .     A
C1533  O1580   1.294   .     A
C1533  C1551   1.474   .     S
C1534  C1552   1.474   .     S
C1534  O1578   1.294   .     A
C1534  O1579   1.295   .     A
C1535  N1572   1.366   .     A
C1535  H1559   1.082   .     S
C1536  N1571   1.367   .     A
C1536  H1560   1.081   .     S
C1536  C997    1.415   1_565 S
C1537  N1572   1.366   .     A
C1537  H1561   1.082   .     S
C1538  H1562   1.081   .     S
C1538  N1571   1.367   .     A
C1538  C995    1.415   1_565 S
C1539  C1556   1.400   .     A
C1539  H1567   1.083   .     S
C1540  C1555   1.400   .     A
C1540  H1568   1.083   .     S
C1540  C1362   1.382   1_655 S
C1541  C1555   1.400   .     A
C1541  H1569   1.083   .     S
C1541  C1359   1.382   1_655 S
C1542  C1556   1.400   .     A
C1542  H1570   1.083   .     S
C1543  C1553   1.387   .     A
C1543  H1563   1.085   .     S
C1543  C1547   1.398   .     A
C1544  C1548   1.398   .     A
C1544  C1554   1.387   .     A
C1544  H1564   1.085   .     S
C1545  C1549   1.398   .     A
C1545  H1565   1.085   .     S
C1545  C1554   1.387   .     A
C1546  C1550   1.398   .     A
C1546  C1553   1.387   .     A
C1546  H1566   1.085   .     S
C1547  C1581   1.517   .     S
C1547  C1551   1.428   .     A
C1548  C1552   1.428   .     A
C1548  C1591   1.518   .     S
C1549  C1601   1.517   .     S
C1549  C1552   1.428   .     A
C1550  C1611   1.518   .     S
C1550  C1551   1.428   .     A
C1554  C743    1.452   1_556 S
Cu1557 O1577   1.962   .     S
Cu1557 O1575   1.962   .     S
Cu1557 N1571   2.009   .     S
Cu1557 O1573   1.962   .     S
Cu1557 Cu1558  2.674   .     S
Cu1557 O1579   1.962   .     S
Cu1558 O1576   1.962   .     S
Cu1558 O1580   1.962   .     S
Cu1558 O1574   1.962   .     S
Cu1558 O1578   1.962   .     S
Cu1558 N1572   2.009   .     S
C1581  C1582   1.532   .     S
C1581  H1589   1.105   .     S
C1581  H1590   1.113   .     S
C1582  H1588   1.109   .     S
C1582  C1583   1.526   .     S
C1582  H1587   1.112   .     S
C1583  H1584   1.110   .     S
C1583  H1585   1.111   .     S
C1583  H1586   1.109   .     S
C1591  H1600   1.113   .     S
C1591  H1599   1.106   .     S
C1591  C1592   1.533   .     S
C1592  C1593   1.527   .     S
C1592  H1597   1.112   .     S
C1592  H1598   1.110   .     S
C1593  H1595   1.111   .     S
C1593  H1596   1.109   .     S
C1593  H1594   1.110   .     S
C1601  H1609   1.105   .     S
C1601  H1610   1.113   .     S
C1601  C1602   1.532   .     S
C1602  H1608   1.109   .     S
C1602  H1607   1.112   .     S
C1602  C1603   1.526   .     S
C1603  H1604   1.110   .     S
C1603  H1605   1.111   .     S
C1603  H1606   1.109   .     S
C1611  C1612   1.533   .     S
C1611  H1619   1.106   .     S
C1611  H1620   1.113   .     S
C1612  H1617   1.112   .     S
C1612  H1618   1.110   .     S
C1612  C1613   1.527   .     S
C1613  H1614   1.110   .     S
C1613  H1615   1.111   .     S
C1613  H1616   1.109   .     S
