data_str_m2_o10_o17_pcu_sym.46
_audit_creation_date              2020-01-03
_audit_creation_method            'Materials Studio'
_symmetry_space_group_name_H-M    'P1'
_symmetry_Int_Tables_number       1
_symmetry_cell_setting            triclinic
loop_
_symmetry_equiv_pos_as_xyz
  x,y,z
_cell_length_a                    30.1120
_cell_length_b                    26.2204
_cell_length_c                    22.2927
_cell_angle_alpha                 103.1044
_cell_angle_beta                  94.0162
_cell_angle_gamma                 92.0691
loop_
_atom_site_label
_atom_site_type_symbol
_atom_site_fract_x
_atom_site_fract_y
_atom_site_fract_z
_atom_site_U_iso_or_equiv
_atom_site_adp_type
_atom_site_occupancy
C1     C     0.24781   0.06656   0.15116   0.00000  Uiso   1.00
C2     C     0.09394   0.13274   0.19229   0.00000  Uiso   1.00
C3     C     0.38408   0.16508   0.16388   0.00000  Uiso   1.00
C4     C     0.11669   0.17111   0.17008   0.00000  Uiso   1.00
C5     C     0.40678   0.12120   0.17291   0.00000  Uiso   1.00
C6     C     0.09344   0.21005   0.14827   0.00000  Uiso   1.00
C7     C     0.45381   0.12432   0.18080   0.00000  Uiso   1.00
C8     C     0.04699   0.21170   0.15272   0.00000  Uiso   1.00
C9     C     0.47727   0.16870   0.17007   0.00000  Uiso   1.00
C10    C     0.02406   0.17067   0.17166   0.00000  Uiso   1.00
C11    C     0.45382   0.20988   0.15437   0.00000  Uiso   1.00
C12    C     0.24917   0.26666   0.18238   0.00000  Uiso   1.00
C13    C     0.04762   0.13042   0.18974   0.00000  Uiso   1.00
C14    C     0.47804   0.08374   0.19685   0.00000  Uiso   1.00
C15    C     0.02254   0.25218   0.13657   0.00000  Uiso   1.00
C16    C     0.38238   0.06984   0.15584   0.00000  Uiso   1.00
C17    C     0.37036   0.04813   0.09292   0.00000  Uiso   1.00
C18    C     0.34844   0.33220   0.07442   0.00000  Uiso   1.00
C19    C     0.33868   0.30454   0.11867   0.00000  Uiso   1.00
C20    C     0.35042   0.32607   0.18157   0.00000  Uiso   1.00
C21    C     0.37189   0.04237   0.20035   0.00000  Uiso   1.00
C22    C     0.11641   0.24609   0.11639   0.00000  Uiso   1.00
C23    C     0.02448   0.08757   0.20303   0.00000  Uiso   1.00
C24    C     0.12247   0.22927   0.05315   0.00000  Uiso   1.00
C25    C     0.13887   0.26458   0.02050   0.00000  Uiso   1.00
C26    C     0.14839   0.31709   0.05045   0.00000  Uiso   1.00
C27    C     0.14218   0.00078   0.11327   0.00000  Uiso   1.00
C28    C     0.12688   0.29866   0.14654   0.00000  Uiso   1.00
C29    C     0.47659   0.25181   0.13884   0.00000  Uiso   1.00
C30    C     0.24539   0.01067   0.14263   0.00000  Uiso   1.00
C31    C     0.24721   0.32251   0.19131   0.00000  Uiso   1.00
C32    C     0.16463   0.16832   0.16778   0.00000  Uiso   1.00
C33    C     0.33562   0.16631   0.16565   0.00000  Uiso   1.00
C34    C     0.40773   0.20829   0.15355   0.00000  Uiso   1.00
Cu35   Cu    0.25500   0.17246   0.22813   0.00000  Uiso   1.00
Cu36   Cu    0.24499   0.16087   0.10521   0.00000  Uiso   1.00
H37    H     0.21501   0.12645   0.31606   0.00000  Uiso   1.00
H38    H     0.11369   0.18907   0.02896   0.00000  Uiso   1.00
H39    H     0.14345   0.25147   0.30511   0.00000  Uiso   1.00
H40    H     0.16065   0.01125   0.02506   0.00000  Uiso   1.00
H41    H     0.14964   0.04143   0.13622   0.00000  Uiso   1.00
H42    H     0.12164   0.31244   0.19499   0.00000  Uiso   1.00
H43    H     0.46143   0.04927   0.20574   0.00000  Uiso   1.00
H44    H     0.03848   0.28454   0.12220   0.00000  Uiso   1.00
H45    H     0.04232   0.05609   0.21618   0.00000  Uiso   1.00
H46    H     0.45867   0.28363   0.12664   0.00000  Uiso   1.00
H47    H     0.24328   0.32025   0.09561   0.00000  Uiso   1.00
H48    H     0.28499   0.20684   0.01719   0.00000  Uiso   1.00
H49    H     0.24936   0.01289   0.23835   0.00000  Uiso   1.00
H50    H     0.39030   0.24005   0.14289   0.00000  Uiso   1.00
H51    H     0.11229   0.10287   0.20827   0.00000  Uiso   1.00
H52    H     0.37838   0.06929   0.05825   0.00000  Uiso   1.00
H53    H     0.33939   0.31530   0.02593   0.00000  Uiso   1.00
H54    H     0.32266   0.26586   0.10404   0.00000  Uiso   1.00
H55    H     0.34309   0.30406   0.21564   0.00000  Uiso   1.00
H56    H     0.38096   0.05890   0.24895   0.00000  Uiso   1.00
N57    N     0.23744   0.15214   0.01284   0.00000  Uiso   1.00
N58    N     0.26255   0.18119   0.32049   0.00000  Uiso   1.00
O59    O     0.25325   0.09538   0.20659   0.00000  Uiso   1.00
O60    O     0.24674   0.23796   0.12674   0.00000  Uiso   1.00
O61    O     0.24480   0.08559   0.10279   0.00000  Uiso   1.00
O62    O     0.25520   0.24774   0.23055   0.00000  Uiso   1.00
O63    O     0.18935   0.17155   0.21857   0.00000  Uiso   1.00
O64    O     0.31064   0.16179   0.11476   0.00000  Uiso   1.00
O65    O     0.18090   0.16176   0.11477   0.00000  Uiso   1.00
O66    O     0.31910   0.17157   0.21857   0.00000  Uiso   1.00
C67    C     0.74781   0.06656   0.15116   0.00000  Uiso   1.00
C68    C     0.59394   0.13274   0.19229   0.00000  Uiso   1.00
C69    C     0.88408   0.16508   0.16388   0.00000  Uiso   1.00
C70    C     0.61669   0.17111   0.17008   0.00000  Uiso   1.00
C71    C     0.90678   0.12120   0.17291   0.00000  Uiso   1.00
C72    C     0.59344   0.21005   0.14827   0.00000  Uiso   1.00
C73    C     0.95381   0.12432   0.18080   0.00000  Uiso   1.00
C74    C     0.54699   0.21170   0.15272   0.00000  Uiso   1.00
C75    C     0.97727   0.16870   0.17007   0.00000  Uiso   1.00
C76    C     0.52406   0.17067   0.17166   0.00000  Uiso   1.00
C77    C     0.95382   0.20988   0.15437   0.00000  Uiso   1.00
C78    C     0.74917   0.26666   0.18238   0.00000  Uiso   1.00
C79    C     0.54762   0.13042   0.18974   0.00000  Uiso   1.00
C80    C     0.97804   0.08374   0.19685   0.00000  Uiso   1.00
C81    C     0.52254   0.25218   0.13657   0.00000  Uiso   1.00
C82    C     0.88238   0.06984   0.15584   0.00000  Uiso   1.00
C83    C     0.87036   0.04813   0.09292   0.00000  Uiso   1.00
C84    C     0.84844   0.33220   0.07442   0.00000  Uiso   1.00
C85    C     0.83868   0.30454   0.11867   0.00000  Uiso   1.00
C86    C     0.85042   0.32607   0.18157   0.00000  Uiso   1.00
C87    C     0.87189   0.04237   0.20035   0.00000  Uiso   1.00
C88    C     0.61641   0.24609   0.11639   0.00000  Uiso   1.00
C89    C     0.52448   0.08757   0.20303   0.00000  Uiso   1.00
C90    C     0.62247   0.22927   0.05315   0.00000  Uiso   1.00
C91    C     0.63887   0.26458   0.02050   0.00000  Uiso   1.00
C92    C     0.64839   0.31709   0.05045   0.00000  Uiso   1.00
C93    C     0.64218   0.00078   0.11327   0.00000  Uiso   1.00
C94    C     0.62688   0.29866   0.14654   0.00000  Uiso   1.00
C95    C     0.97659   0.25181   0.13884   0.00000  Uiso   1.00
C96    C     0.74539   0.01067   0.14263   0.00000  Uiso   1.00
C97    C     0.74721   0.32251   0.19131   0.00000  Uiso   1.00
C98    C     0.66463   0.16832   0.16778   0.00000  Uiso   1.00
C99    C     0.83562   0.16631   0.16565   0.00000  Uiso   1.00
C100   C     0.90773   0.20829   0.15355   0.00000  Uiso   1.00
Cu101  Cu    0.75500   0.17246   0.22813   0.00000  Uiso   1.00
Cu102  Cu    0.74499   0.16087   0.10521   0.00000  Uiso   1.00
H103   H     0.71501   0.12645   0.31606   0.00000  Uiso   1.00
H104   H     0.61369   0.18907   0.02896   0.00000  Uiso   1.00
H105   H     0.64345   0.25147   0.30511   0.00000  Uiso   1.00
H106   H     0.66065   0.01125   0.02506   0.00000  Uiso   1.00
H107   H     0.64964   0.04143   0.13622   0.00000  Uiso   1.00
H108   H     0.62164   0.31244   0.19499   0.00000  Uiso   1.00
H109   H     0.96143   0.04927   0.20574   0.00000  Uiso   1.00
H110   H     0.53848   0.28454   0.12220   0.00000  Uiso   1.00
H111   H     0.54232   0.05609   0.21618   0.00000  Uiso   1.00
H112   H     0.95867   0.28363   0.12664   0.00000  Uiso   1.00
H113   H     0.74328   0.32025   0.09561   0.00000  Uiso   1.00
H114   H     0.78499   0.20684   0.01719   0.00000  Uiso   1.00
H115   H     0.74936   0.01289   0.23835   0.00000  Uiso   1.00
H116   H     0.89030   0.24005   0.14289   0.00000  Uiso   1.00
H117   H     0.61229   0.10287   0.20827   0.00000  Uiso   1.00
H118   H     0.87838   0.06929   0.05825   0.00000  Uiso   1.00
H119   H     0.83939   0.31530   0.02593   0.00000  Uiso   1.00
H120   H     0.82266   0.26586   0.10404   0.00000  Uiso   1.00
H121   H     0.84309   0.30406   0.21564   0.00000  Uiso   1.00
H122   H     0.88096   0.05890   0.24895   0.00000  Uiso   1.00
N123   N     0.73744   0.15214   0.01284   0.00000  Uiso   1.00
N124   N     0.76255   0.18119   0.32049   0.00000  Uiso   1.00
O125   O     0.75325   0.09538   0.20659   0.00000  Uiso   1.00
O126   O     0.74674   0.23796   0.12674   0.00000  Uiso   1.00
O127   O     0.74480   0.08559   0.10279   0.00000  Uiso   1.00
O128   O     0.75520   0.24774   0.23055   0.00000  Uiso   1.00
O129   O     0.68935   0.17155   0.21857   0.00000  Uiso   1.00
O130   O     0.81064   0.16179   0.11476   0.00000  Uiso   1.00
O131   O     0.68090   0.16176   0.11477   0.00000  Uiso   1.00
O132   O     0.81910   0.17157   0.21857   0.00000  Uiso   1.00
C133   C     0.24781   0.39989   0.15116   0.00000  Uiso   1.00
C134   C     0.09394   0.46608   0.19229   0.00000  Uiso   1.00
C135   C     0.38408   0.49842   0.16388   0.00000  Uiso   1.00
C136   C     0.11669   0.50444   0.17008   0.00000  Uiso   1.00
C137   C     0.40678   0.45454   0.17291   0.00000  Uiso   1.00
C138   C     0.09344   0.54339   0.14827   0.00000  Uiso   1.00
C139   C     0.45381   0.45765   0.18080   0.00000  Uiso   1.00
C140   C     0.04699   0.54504   0.15272   0.00000  Uiso   1.00
C141   C     0.47727   0.50203   0.17007   0.00000  Uiso   1.00
C142   C     0.02406   0.50400   0.17166   0.00000  Uiso   1.00
C143   C     0.45382   0.54321   0.15437   0.00000  Uiso   1.00
C144   C     0.24917   0.59999   0.18238   0.00000  Uiso   1.00
C145   C     0.04762   0.46376   0.18974   0.00000  Uiso   1.00
C146   C     0.47804   0.41707   0.19685   0.00000  Uiso   1.00
C147   C     0.02254   0.58551   0.13657   0.00000  Uiso   1.00
C148   C     0.38238   0.40318   0.15584   0.00000  Uiso   1.00
C149   C     0.37036   0.38146   0.09292   0.00000  Uiso   1.00
C150   C     0.34844   0.66553   0.07442   0.00000  Uiso   1.00
C151   C     0.33868   0.63787   0.11867   0.00000  Uiso   1.00
C152   C     0.35042   0.65941   0.18157   0.00000  Uiso   1.00
C153   C     0.37189   0.37570   0.20035   0.00000  Uiso   1.00
C154   C     0.11641   0.57943   0.11639   0.00000  Uiso   1.00
C155   C     0.02448   0.42091   0.20303   0.00000  Uiso   1.00
C156   C     0.12247   0.56260   0.05315   0.00000  Uiso   1.00
C157   C     0.13887   0.59792   0.02050   0.00000  Uiso   1.00
C158   C     0.14839   0.65042   0.05045   0.00000  Uiso   1.00
C159   C     0.14218   0.33411   0.11327   0.00000  Uiso   1.00
C160   C     0.12688   0.63199   0.14654   0.00000  Uiso   1.00
C161   C     0.47659   0.58515   0.13884   0.00000  Uiso   1.00
C162   C     0.24539   0.34400   0.14263   0.00000  Uiso   1.00
C163   C     0.24721   0.65585   0.19131   0.00000  Uiso   1.00
C164   C     0.16463   0.50165   0.16778   0.00000  Uiso   1.00
C165   C     0.33562   0.49964   0.16565   0.00000  Uiso   1.00
C166   C     0.40773   0.54163   0.15355   0.00000  Uiso   1.00
Cu167  Cu    0.25500   0.50579   0.22813   0.00000  Uiso   1.00
Cu168  Cu    0.24499   0.49421   0.10521   0.00000  Uiso   1.00
H169   H     0.21501   0.45979   0.31606   0.00000  Uiso   1.00
H170   H     0.11369   0.52241   0.02896   0.00000  Uiso   1.00
H171   H     0.14345   0.58480   0.30511   0.00000  Uiso   1.00
H172   H     0.16065   0.34459   0.02506   0.00000  Uiso   1.00
H173   H     0.14964   0.37476   0.13622   0.00000  Uiso   1.00
H174   H     0.12164   0.64577   0.19499   0.00000  Uiso   1.00
H175   H     0.46143   0.38260   0.20574   0.00000  Uiso   1.00
H176   H     0.03848   0.61787   0.12220   0.00000  Uiso   1.00
H177   H     0.04232   0.38942   0.21618   0.00000  Uiso   1.00
H178   H     0.45867   0.61697   0.12664   0.00000  Uiso   1.00
H179   H     0.24328   0.65358   0.09561   0.00000  Uiso   1.00
H180   H     0.28499   0.54018   0.01719   0.00000  Uiso   1.00
H181   H     0.24936   0.34622   0.23835   0.00000  Uiso   1.00
H182   H     0.39030   0.57338   0.14289   0.00000  Uiso   1.00
H183   H     0.11229   0.43621   0.20827   0.00000  Uiso   1.00
H184   H     0.37838   0.40262   0.05825   0.00000  Uiso   1.00
H185   H     0.33939   0.64863   0.02593   0.00000  Uiso   1.00
H186   H     0.32266   0.59919   0.10404   0.00000  Uiso   1.00
H187   H     0.34309   0.63739   0.21564   0.00000  Uiso   1.00
H188   H     0.38096   0.39223   0.24895   0.00000  Uiso   1.00
N189   N     0.23744   0.48547   0.01284   0.00000  Uiso   1.00
N190   N     0.26255   0.51453   0.32049   0.00000  Uiso   1.00
O191   O     0.25325   0.42871   0.20659   0.00000  Uiso   1.00
O192   O     0.24674   0.57129   0.12674   0.00000  Uiso   1.00
O193   O     0.24480   0.41892   0.10279   0.00000  Uiso   1.00
O194   O     0.25520   0.58108   0.23055   0.00000  Uiso   1.00
O195   O     0.18935   0.50488   0.21857   0.00000  Uiso   1.00
O196   O     0.31064   0.49512   0.11476   0.00000  Uiso   1.00
O197   O     0.18090   0.49510   0.11477   0.00000  Uiso   1.00
O198   O     0.31910   0.50490   0.21857   0.00000  Uiso   1.00
C199   C     0.74781   0.39989   0.15116   0.00000  Uiso   1.00
C200   C     0.59394   0.46608   0.19229   0.00000  Uiso   1.00
C201   C     0.88408   0.49842   0.16388   0.00000  Uiso   1.00
C202   C     0.61669   0.50444   0.17008   0.00000  Uiso   1.00
C203   C     0.90678   0.45454   0.17291   0.00000  Uiso   1.00
C204   C     0.59344   0.54339   0.14827   0.00000  Uiso   1.00
C205   C     0.95381   0.45765   0.18080   0.00000  Uiso   1.00
C206   C     0.54699   0.54504   0.15272   0.00000  Uiso   1.00
C207   C     0.97727   0.50203   0.17007   0.00000  Uiso   1.00
C208   C     0.52406   0.50400   0.17166   0.00000  Uiso   1.00
C209   C     0.95382   0.54321   0.15437   0.00000  Uiso   1.00
C210   C     0.74917   0.59999   0.18238   0.00000  Uiso   1.00
C211   C     0.54762   0.46376   0.18974   0.00000  Uiso   1.00
C212   C     0.97804   0.41707   0.19685   0.00000  Uiso   1.00
C213   C     0.52254   0.58551   0.13657   0.00000  Uiso   1.00
C214   C     0.88238   0.40318   0.15584   0.00000  Uiso   1.00
C215   C     0.87036   0.38146   0.09292   0.00000  Uiso   1.00
C216   C     0.84844   0.66553   0.07442   0.00000  Uiso   1.00
C217   C     0.83868   0.63787   0.11867   0.00000  Uiso   1.00
C218   C     0.85042   0.65941   0.18157   0.00000  Uiso   1.00
C219   C     0.87189   0.37570   0.20035   0.00000  Uiso   1.00
C220   C     0.61641   0.57943   0.11639   0.00000  Uiso   1.00
C221   C     0.52448   0.42091   0.20303   0.00000  Uiso   1.00
C222   C     0.62247   0.56260   0.05315   0.00000  Uiso   1.00
C223   C     0.63887   0.59792   0.02050   0.00000  Uiso   1.00
C224   C     0.64839   0.65042   0.05045   0.00000  Uiso   1.00
C225   C     0.64218   0.33411   0.11327   0.00000  Uiso   1.00
C226   C     0.62688   0.63199   0.14654   0.00000  Uiso   1.00
C227   C     0.97659   0.58515   0.13884   0.00000  Uiso   1.00
C228   C     0.74539   0.34400   0.14263   0.00000  Uiso   1.00
C229   C     0.74721   0.65585   0.19131   0.00000  Uiso   1.00
C230   C     0.66463   0.50165   0.16778   0.00000  Uiso   1.00
C231   C     0.83562   0.49964   0.16565   0.00000  Uiso   1.00
C232   C     0.90773   0.54163   0.15355   0.00000  Uiso   1.00
Cu233  Cu    0.75500   0.50579   0.22813   0.00000  Uiso   1.00
Cu234  Cu    0.74499   0.49421   0.10521   0.00000  Uiso   1.00
H235   H     0.71501   0.45979   0.31606   0.00000  Uiso   1.00
H236   H     0.61369   0.52241   0.02896   0.00000  Uiso   1.00
H237   H     0.64345   0.58480   0.30511   0.00000  Uiso   1.00
H238   H     0.66065   0.34459   0.02506   0.00000  Uiso   1.00
H239   H     0.64964   0.37476   0.13622   0.00000  Uiso   1.00
H240   H     0.62164   0.64577   0.19499   0.00000  Uiso   1.00
H241   H     0.96143   0.38260   0.20574   0.00000  Uiso   1.00
H242   H     0.53848   0.61787   0.12220   0.00000  Uiso   1.00
H243   H     0.54232   0.38942   0.21618   0.00000  Uiso   1.00
H244   H     0.95867   0.61697   0.12664   0.00000  Uiso   1.00
H245   H     0.74328   0.65358   0.09561   0.00000  Uiso   1.00
H246   H     0.78499   0.54018   0.01719   0.00000  Uiso   1.00
H247   H     0.74936   0.34622   0.23835   0.00000  Uiso   1.00
H248   H     0.89030   0.57338   0.14289   0.00000  Uiso   1.00
H249   H     0.61229   0.43621   0.20827   0.00000  Uiso   1.00
H250   H     0.87838   0.40262   0.05825   0.00000  Uiso   1.00
H251   H     0.83939   0.64863   0.02593   0.00000  Uiso   1.00
H252   H     0.82266   0.59919   0.10404   0.00000  Uiso   1.00
H253   H     0.84309   0.63739   0.21564   0.00000  Uiso   1.00
H254   H     0.88096   0.39223   0.24895   0.00000  Uiso   1.00
N255   N     0.73744   0.48547   0.01284   0.00000  Uiso   1.00
N256   N     0.76255   0.51453   0.32049   0.00000  Uiso   1.00
O257   O     0.75325   0.42871   0.20659   0.00000  Uiso   1.00
O258   O     0.74674   0.57129   0.12674   0.00000  Uiso   1.00
O259   O     0.74480   0.41892   0.10279   0.00000  Uiso   1.00
O260   O     0.75520   0.58108   0.23055   0.00000  Uiso   1.00
O261   O     0.68935   0.50488   0.21857   0.00000  Uiso   1.00
O262   O     0.81064   0.49512   0.11476   0.00000  Uiso   1.00
O263   O     0.68090   0.49510   0.11477   0.00000  Uiso   1.00
O264   O     0.81910   0.50490   0.21857   0.00000  Uiso   1.00
C265   C     0.24781   0.73322   0.15116   0.00000  Uiso   1.00
C266   C     0.09394   0.79941   0.19229   0.00000  Uiso   1.00
C267   C     0.38408   0.83175   0.16388   0.00000  Uiso   1.00
C268   C     0.11669   0.83777   0.17008   0.00000  Uiso   1.00
C269   C     0.40678   0.78787   0.17291   0.00000  Uiso   1.00
C270   C     0.09344   0.87672   0.14827   0.00000  Uiso   1.00
C271   C     0.45381   0.79098   0.18080   0.00000  Uiso   1.00
C272   C     0.04699   0.87837   0.15272   0.00000  Uiso   1.00
C273   C     0.47727   0.83537   0.17007   0.00000  Uiso   1.00
C274   C     0.02406   0.83733   0.17166   0.00000  Uiso   1.00
C275   C     0.45382   0.87655   0.15437   0.00000  Uiso   1.00
C276   C     0.24917   0.93332   0.18238   0.00000  Uiso   1.00
C277   C     0.04762   0.79709   0.18974   0.00000  Uiso   1.00
C278   C     0.47804   0.75041   0.19685   0.00000  Uiso   1.00
C279   C     0.02254   0.91885   0.13657   0.00000  Uiso   1.00
C280   C     0.38238   0.73651   0.15584   0.00000  Uiso   1.00
C281   C     0.37036   0.71479   0.09292   0.00000  Uiso   1.00
C282   C     0.34844   0.99887   0.07442   0.00000  Uiso   1.00
C283   C     0.33868   0.97121   0.11867   0.00000  Uiso   1.00
C284   C     0.35042   0.99274   0.18157   0.00000  Uiso   1.00
C285   C     0.37189   0.70904   0.20035   0.00000  Uiso   1.00
C286   C     0.11641   0.91276   0.11639   0.00000  Uiso   1.00
C287   C     0.02448   0.75424   0.20303   0.00000  Uiso   1.00
C288   C     0.12247   0.89594   0.05315   0.00000  Uiso   1.00
C289   C     0.13887   0.93125   0.02050   0.00000  Uiso   1.00
C290   C     0.14839   0.98375   0.05045   0.00000  Uiso   1.00
C291   C     0.14218   0.66745   0.11327   0.00000  Uiso   1.00
C292   C     0.12688   0.96532   0.14654   0.00000  Uiso   1.00
C293   C     0.47659   0.91848   0.13884   0.00000  Uiso   1.00
C294   C     0.24539   0.67733   0.14263   0.00000  Uiso   1.00
C295   C     0.24721   0.98918   0.19131   0.00000  Uiso   1.00
C296   C     0.16463   0.83499   0.16778   0.00000  Uiso   1.00
C297   C     0.33562   0.83298   0.16565   0.00000  Uiso   1.00
C298   C     0.40773   0.87496   0.15355   0.00000  Uiso   1.00
Cu299  Cu    0.25500   0.83913   0.22813   0.00000  Uiso   1.00
Cu300  Cu    0.24499   0.82754   0.10521   0.00000  Uiso   1.00
H301   H     0.21501   0.79312   0.31606   0.00000  Uiso   1.00
H302   H     0.11369   0.85574   0.02896   0.00000  Uiso   1.00
H303   H     0.14345   0.91814   0.30511   0.00000  Uiso   1.00
H304   H     0.16065   0.67792   0.02506   0.00000  Uiso   1.00
H305   H     0.14964   0.70810   0.13622   0.00000  Uiso   1.00
H306   H     0.12164   0.97911   0.19499   0.00000  Uiso   1.00
H307   H     0.46143   0.71594   0.20574   0.00000  Uiso   1.00
H308   H     0.03848   0.95121   0.12220   0.00000  Uiso   1.00
H309   H     0.04232   0.72276   0.21618   0.00000  Uiso   1.00
H310   H     0.45867   0.95030   0.12664   0.00000  Uiso   1.00
H311   H     0.24328   0.98691   0.09561   0.00000  Uiso   1.00
H312   H     0.28499   0.87351   0.01719   0.00000  Uiso   1.00
H313   H     0.24936   0.67956   0.23835   0.00000  Uiso   1.00
H314   H     0.39030   0.90672   0.14289   0.00000  Uiso   1.00
H315   H     0.11229   0.76954   0.20827   0.00000  Uiso   1.00
H316   H     0.37838   0.73595   0.05825   0.00000  Uiso   1.00
H317   H     0.33939   0.98196   0.02593   0.00000  Uiso   1.00
H318   H     0.32266   0.93252   0.10404   0.00000  Uiso   1.00
H319   H     0.34309   0.97073   0.21564   0.00000  Uiso   1.00
H320   H     0.38096   0.72557   0.24895   0.00000  Uiso   1.00
N321   N     0.23744   0.81881   0.01284   0.00000  Uiso   1.00
N322   N     0.26255   0.84786   0.32049   0.00000  Uiso   1.00
O323   O     0.25325   0.76204   0.20659   0.00000  Uiso   1.00
O324   O     0.24674   0.90462   0.12674   0.00000  Uiso   1.00
O325   O     0.24480   0.75226   0.10279   0.00000  Uiso   1.00
O326   O     0.25520   0.91441   0.23055   0.00000  Uiso   1.00
O327   O     0.18935   0.83821   0.21857   0.00000  Uiso   1.00
O328   O     0.31064   0.82845   0.11476   0.00000  Uiso   1.00
O329   O     0.18090   0.82843   0.11477   0.00000  Uiso   1.00
O330   O     0.31910   0.83824   0.21857   0.00000  Uiso   1.00
C331   C     0.74781   0.73322   0.15116   0.00000  Uiso   1.00
C332   C     0.59394   0.79941   0.19229   0.00000  Uiso   1.00
C333   C     0.88408   0.83175   0.16388   0.00000  Uiso   1.00
C334   C     0.61669   0.83777   0.17008   0.00000  Uiso   1.00
C335   C     0.90678   0.78787   0.17291   0.00000  Uiso   1.00
C336   C     0.59344   0.87672   0.14827   0.00000  Uiso   1.00
C337   C     0.95381   0.79098   0.18080   0.00000  Uiso   1.00
C338   C     0.54699   0.87837   0.15272   0.00000  Uiso   1.00
C339   C     0.97727   0.83537   0.17007   0.00000  Uiso   1.00
C340   C     0.52406   0.83733   0.17166   0.00000  Uiso   1.00
C341   C     0.95382   0.87655   0.15437   0.00000  Uiso   1.00
C342   C     0.74917   0.93332   0.18238   0.00000  Uiso   1.00
C343   C     0.54762   0.79709   0.18974   0.00000  Uiso   1.00
C344   C     0.97804   0.75041   0.19685   0.00000  Uiso   1.00
C345   C     0.52254   0.91885   0.13657   0.00000  Uiso   1.00
C346   C     0.88238   0.73651   0.15584   0.00000  Uiso   1.00
C347   C     0.87036   0.71479   0.09292   0.00000  Uiso   1.00
C348   C     0.84844   0.99887   0.07442   0.00000  Uiso   1.00
C349   C     0.83868   0.97121   0.11867   0.00000  Uiso   1.00
C350   C     0.85042   0.99274   0.18157   0.00000  Uiso   1.00
C351   C     0.87189   0.70904   0.20035   0.00000  Uiso   1.00
C352   C     0.61641   0.91276   0.11639   0.00000  Uiso   1.00
C353   C     0.52448   0.75424   0.20303   0.00000  Uiso   1.00
C354   C     0.62247   0.89594   0.05315   0.00000  Uiso   1.00
C355   C     0.63887   0.93125   0.02050   0.00000  Uiso   1.00
C356   C     0.64839   0.98375   0.05045   0.00000  Uiso   1.00
C357   C     0.64218   0.66745   0.11327   0.00000  Uiso   1.00
C358   C     0.62688   0.96532   0.14654   0.00000  Uiso   1.00
C359   C     0.97659   0.91848   0.13884   0.00000  Uiso   1.00
C360   C     0.74539   0.67733   0.14263   0.00000  Uiso   1.00
C361   C     0.74721   0.98918   0.19131   0.00000  Uiso   1.00
C362   C     0.66463   0.83499   0.16778   0.00000  Uiso   1.00
C363   C     0.83562   0.83298   0.16565   0.00000  Uiso   1.00
C364   C     0.90773   0.87496   0.15355   0.00000  Uiso   1.00
Cu365  Cu    0.75500   0.83913   0.22813   0.00000  Uiso   1.00
Cu366  Cu    0.74499   0.82754   0.10521   0.00000  Uiso   1.00
H367   H     0.71501   0.79312   0.31606   0.00000  Uiso   1.00
H368   H     0.61369   0.85574   0.02896   0.00000  Uiso   1.00
H369   H     0.64345   0.91814   0.30511   0.00000  Uiso   1.00
H370   H     0.66065   0.67792   0.02506   0.00000  Uiso   1.00
H371   H     0.64964   0.70810   0.13622   0.00000  Uiso   1.00
H372   H     0.62164   0.97911   0.19499   0.00000  Uiso   1.00
H373   H     0.96143   0.71594   0.20574   0.00000  Uiso   1.00
H374   H     0.53848   0.95121   0.12220   0.00000  Uiso   1.00
H375   H     0.54232   0.72276   0.21618   0.00000  Uiso   1.00
H376   H     0.95867   0.95030   0.12664   0.00000  Uiso   1.00
H377   H     0.74328   0.98691   0.09561   0.00000  Uiso   1.00
H378   H     0.78499   0.87351   0.01719   0.00000  Uiso   1.00
H379   H     0.74936   0.67956   0.23835   0.00000  Uiso   1.00
H380   H     0.89030   0.90672   0.14289   0.00000  Uiso   1.00
H381   H     0.61229   0.76954   0.20827   0.00000  Uiso   1.00
H382   H     0.87838   0.73595   0.05825   0.00000  Uiso   1.00
H383   H     0.83939   0.98196   0.02593   0.00000  Uiso   1.00
H384   H     0.82266   0.93252   0.10404   0.00000  Uiso   1.00
H385   H     0.84309   0.97073   0.21564   0.00000  Uiso   1.00
H386   H     0.88096   0.72557   0.24895   0.00000  Uiso   1.00
N387   N     0.73744   0.81881   0.01284   0.00000  Uiso   1.00
N388   N     0.76255   0.84786   0.32049   0.00000  Uiso   1.00
O389   O     0.75325   0.76204   0.20659   0.00000  Uiso   1.00
O390   O     0.74674   0.90462   0.12674   0.00000  Uiso   1.00
O391   O     0.74480   0.75226   0.10279   0.00000  Uiso   1.00
O392   O     0.75520   0.91441   0.23055   0.00000  Uiso   1.00
O393   O     0.68935   0.83821   0.21857   0.00000  Uiso   1.00
O394   O     0.81064   0.82845   0.11476   0.00000  Uiso   1.00
O395   O     0.68090   0.82843   0.11477   0.00000  Uiso   1.00
O396   O     0.81910   0.83824   0.21857   0.00000  Uiso   1.00
C397   C     0.24781   0.06656   0.48450   0.00000  Uiso   1.00
C398   C     0.09394   0.13274   0.52562   0.00000  Uiso   1.00
C399   C     0.38408   0.16508   0.49722   0.00000  Uiso   1.00
C400   C     0.11669   0.17111   0.50341   0.00000  Uiso   1.00
C401   C     0.40678   0.12120   0.50624   0.00000  Uiso   1.00
C402   C     0.09344   0.21005   0.48161   0.00000  Uiso   1.00
C403   C     0.45381   0.12432   0.51414   0.00000  Uiso   1.00
C404   C     0.04699   0.21170   0.48605   0.00000  Uiso   1.00
C405   C     0.47727   0.16870   0.50341   0.00000  Uiso   1.00
C406   C     0.02406   0.17067   0.50499   0.00000  Uiso   1.00
C407   C     0.45382   0.20988   0.48770   0.00000  Uiso   1.00
C408   C     0.24917   0.26666   0.51571   0.00000  Uiso   1.00
C409   C     0.04762   0.13042   0.52308   0.00000  Uiso   1.00
C410   C     0.47804   0.08374   0.53019   0.00000  Uiso   1.00
C411   C     0.02254   0.25218   0.46991   0.00000  Uiso   1.00
C412   C     0.38238   0.06984   0.48918   0.00000  Uiso   1.00
C413   C     0.37036   0.04813   0.42625   0.00000  Uiso   1.00
C414   C     0.34844   0.33220   0.40776   0.00000  Uiso   1.00
C415   C     0.33868   0.30454   0.45200   0.00000  Uiso   1.00
C416   C     0.35042   0.32607   0.51491   0.00000  Uiso   1.00
C417   C     0.37189   0.04237   0.53368   0.00000  Uiso   1.00
C418   C     0.11641   0.24609   0.44973   0.00000  Uiso   1.00
C419   C     0.02448   0.08757   0.53637   0.00000  Uiso   1.00
C420   C     0.12247   0.22927   0.38648   0.00000  Uiso   1.00
C421   C     0.13887   0.26458   0.35383   0.00000  Uiso   1.00
C422   C     0.14839   0.31709   0.38379   0.00000  Uiso   1.00
C423   C     0.14218   0.00078   0.44661   0.00000  Uiso   1.00
C424   C     0.12688   0.29866   0.47987   0.00000  Uiso   1.00
C425   C     0.47659   0.25181   0.47218   0.00000  Uiso   1.00
C426   C     0.24539   0.01067   0.47596   0.00000  Uiso   1.00
C427   C     0.24721   0.32251   0.52465   0.00000  Uiso   1.00
C428   C     0.16463   0.16832   0.50112   0.00000  Uiso   1.00
C429   C     0.33562   0.16631   0.49899   0.00000  Uiso   1.00
C430   C     0.40773   0.20829   0.48688   0.00000  Uiso   1.00
Cu431  Cu    0.25500   0.17246   0.56146   0.00000  Uiso   1.00
Cu432  Cu    0.24499   0.16087   0.43854   0.00000  Uiso   1.00
H433   H     0.21501   0.12645   0.64939   0.00000  Uiso   1.00
H434   H     0.11369   0.18907   0.36229   0.00000  Uiso   1.00
H435   H     0.14345   0.25147   0.63845   0.00000  Uiso   1.00
H436   H     0.16065   0.01125   0.35839   0.00000  Uiso   1.00
H437   H     0.14964   0.04143   0.46955   0.00000  Uiso   1.00
H438   H     0.12164   0.31244   0.52833   0.00000  Uiso   1.00
H439   H     0.46143   0.04927   0.53908   0.00000  Uiso   1.00
H440   H     0.03848   0.28454   0.45553   0.00000  Uiso   1.00
H441   H     0.04232   0.05609   0.54951   0.00000  Uiso   1.00
H442   H     0.45867   0.28363   0.45997   0.00000  Uiso   1.00
H443   H     0.24328   0.32025   0.42894   0.00000  Uiso   1.00
H444   H     0.28499   0.20684   0.35052   0.00000  Uiso   1.00
H445   H     0.24936   0.01289   0.57169   0.00000  Uiso   1.00
H446   H     0.39030   0.24005   0.47623   0.00000  Uiso   1.00
H447   H     0.11229   0.10287   0.54161   0.00000  Uiso   1.00
H448   H     0.37838   0.06929   0.39158   0.00000  Uiso   1.00
H449   H     0.33939   0.31530   0.35926   0.00000  Uiso   1.00
H450   H     0.32266   0.26586   0.43737   0.00000  Uiso   1.00
H451   H     0.34309   0.30406   0.54897   0.00000  Uiso   1.00
H452   H     0.38096   0.05890   0.58228   0.00000  Uiso   1.00
N453   N     0.23744   0.15214   0.34617   0.00000  Uiso   1.00
N454   N     0.26255   0.18119   0.65383   0.00000  Uiso   1.00
O455   O     0.25325   0.09538   0.53992   0.00000  Uiso   1.00
O456   O     0.24674   0.23796   0.46008   0.00000  Uiso   1.00
O457   O     0.24480   0.08559   0.43612   0.00000  Uiso   1.00
O458   O     0.25520   0.24774   0.56388   0.00000  Uiso   1.00
O459   O     0.18935   0.17155   0.55191   0.00000  Uiso   1.00
O460   O     0.31064   0.16179   0.44809   0.00000  Uiso   1.00
O461   O     0.18090   0.16176   0.44810   0.00000  Uiso   1.00
O462   O     0.31910   0.17157   0.55190   0.00000  Uiso   1.00
C463   C     0.74781   0.06656   0.48450   0.00000  Uiso   1.00
C464   C     0.59394   0.13274   0.52562   0.00000  Uiso   1.00
C465   C     0.88408   0.16508   0.49722   0.00000  Uiso   1.00
C466   C     0.61669   0.17111   0.50341   0.00000  Uiso   1.00
C467   C     0.90678   0.12120   0.50624   0.00000  Uiso   1.00
C468   C     0.59344   0.21005   0.48161   0.00000  Uiso   1.00
C469   C     0.95381   0.12432   0.51414   0.00000  Uiso   1.00
C470   C     0.54699   0.21170   0.48605   0.00000  Uiso   1.00
C471   C     0.97727   0.16870   0.50341   0.00000  Uiso   1.00
C472   C     0.52406   0.17067   0.50499   0.00000  Uiso   1.00
C473   C     0.95382   0.20988   0.48770   0.00000  Uiso   1.00
C474   C     0.74917   0.26666   0.51571   0.00000  Uiso   1.00
C475   C     0.54762   0.13042   0.52308   0.00000  Uiso   1.00
C476   C     0.97804   0.08374   0.53019   0.00000  Uiso   1.00
C477   C     0.52254   0.25218   0.46991   0.00000  Uiso   1.00
C478   C     0.88238   0.06984   0.48918   0.00000  Uiso   1.00
C479   C     0.87036   0.04813   0.42625   0.00000  Uiso   1.00
C480   C     0.84844   0.33220   0.40776   0.00000  Uiso   1.00
C481   C     0.83868   0.30454   0.45200   0.00000  Uiso   1.00
C482   C     0.85042   0.32607   0.51491   0.00000  Uiso   1.00
C483   C     0.87189   0.04237   0.53368   0.00000  Uiso   1.00
C484   C     0.61641   0.24609   0.44973   0.00000  Uiso   1.00
C485   C     0.52448   0.08757   0.53637   0.00000  Uiso   1.00
C486   C     0.62247   0.22927   0.38648   0.00000  Uiso   1.00
C487   C     0.63887   0.26458   0.35383   0.00000  Uiso   1.00
C488   C     0.64839   0.31709   0.38379   0.00000  Uiso   1.00
C489   C     0.64218   0.00078   0.44661   0.00000  Uiso   1.00
C490   C     0.62688   0.29866   0.47987   0.00000  Uiso   1.00
C491   C     0.97659   0.25181   0.47218   0.00000  Uiso   1.00
C492   C     0.74539   0.01067   0.47596   0.00000  Uiso   1.00
C493   C     0.74721   0.32251   0.52465   0.00000  Uiso   1.00
C494   C     0.66463   0.16832   0.50112   0.00000  Uiso   1.00
C495   C     0.83562   0.16631   0.49899   0.00000  Uiso   1.00
C496   C     0.90773   0.20829   0.48688   0.00000  Uiso   1.00
Cu497  Cu    0.75500   0.17246   0.56146   0.00000  Uiso   1.00
Cu498  Cu    0.74499   0.16087   0.43854   0.00000  Uiso   1.00
H499   H     0.71501   0.12645   0.64939   0.00000  Uiso   1.00
H500   H     0.61369   0.18907   0.36229   0.00000  Uiso   1.00
H501   H     0.64345   0.25147   0.63845   0.00000  Uiso   1.00
H502   H     0.66065   0.01125   0.35839   0.00000  Uiso   1.00
H503   H     0.64964   0.04143   0.46955   0.00000  Uiso   1.00
H504   H     0.62164   0.31244   0.52833   0.00000  Uiso   1.00
H505   H     0.96143   0.04927   0.53908   0.00000  Uiso   1.00
H506   H     0.53848   0.28454   0.45553   0.00000  Uiso   1.00
H507   H     0.54232   0.05609   0.54951   0.00000  Uiso   1.00
H508   H     0.95867   0.28363   0.45997   0.00000  Uiso   1.00
H509   H     0.74328   0.32025   0.42894   0.00000  Uiso   1.00
H510   H     0.78499   0.20684   0.35052   0.00000  Uiso   1.00
H511   H     0.74936   0.01289   0.57169   0.00000  Uiso   1.00
H512   H     0.89030   0.24005   0.47623   0.00000  Uiso   1.00
H513   H     0.61229   0.10287   0.54161   0.00000  Uiso   1.00
H514   H     0.87838   0.06929   0.39158   0.00000  Uiso   1.00
H515   H     0.83939   0.31530   0.35926   0.00000  Uiso   1.00
H516   H     0.82266   0.26586   0.43737   0.00000  Uiso   1.00
H517   H     0.84309   0.30406   0.54897   0.00000  Uiso   1.00
H518   H     0.88096   0.05890   0.58228   0.00000  Uiso   1.00
N519   N     0.73744   0.15214   0.34617   0.00000  Uiso   1.00
N520   N     0.76255   0.18119   0.65383   0.00000  Uiso   1.00
O521   O     0.75325   0.09538   0.53992   0.00000  Uiso   1.00
O522   O     0.74674   0.23796   0.46008   0.00000  Uiso   1.00
O523   O     0.74480   0.08559   0.43612   0.00000  Uiso   1.00
O524   O     0.75520   0.24774   0.56388   0.00000  Uiso   1.00
O525   O     0.68935   0.17155   0.55191   0.00000  Uiso   1.00
O526   O     0.81064   0.16179   0.44809   0.00000  Uiso   1.00
O527   O     0.68090   0.16176   0.44810   0.00000  Uiso   1.00
O528   O     0.81910   0.17157   0.55190   0.00000  Uiso   1.00
C529   C     0.24781   0.39989   0.48450   0.00000  Uiso   1.00
C530   C     0.09394   0.46608   0.52562   0.00000  Uiso   1.00
C531   C     0.38408   0.49842   0.49722   0.00000  Uiso   1.00
C532   C     0.11669   0.50444   0.50341   0.00000  Uiso   1.00
C533   C     0.40678   0.45454   0.50624   0.00000  Uiso   1.00
C534   C     0.09344   0.54339   0.48161   0.00000  Uiso   1.00
C535   C     0.45381   0.45765   0.51414   0.00000  Uiso   1.00
C536   C     0.04699   0.54504   0.48605   0.00000  Uiso   1.00
C537   C     0.47727   0.50203   0.50341   0.00000  Uiso   1.00
C538   C     0.02406   0.50400   0.50499   0.00000  Uiso   1.00
C539   C     0.45382   0.54321   0.48770   0.00000  Uiso   1.00
C540   C     0.24917   0.59999   0.51571   0.00000  Uiso   1.00
C541   C     0.04762   0.46376   0.52308   0.00000  Uiso   1.00
C542   C     0.47804   0.41707   0.53019   0.00000  Uiso   1.00
C543   C     0.02254   0.58551   0.46991   0.00000  Uiso   1.00
C544   C     0.38238   0.40318   0.48918   0.00000  Uiso   1.00
C545   C     0.37036   0.38146   0.42625   0.00000  Uiso   1.00
C546   C     0.34844   0.66553   0.40776   0.00000  Uiso   1.00
C547   C     0.33868   0.63787   0.45200   0.00000  Uiso   1.00
C548   C     0.35042   0.65941   0.51491   0.00000  Uiso   1.00
C549   C     0.37189   0.37570   0.53368   0.00000  Uiso   1.00
C550   C     0.11641   0.57943   0.44973   0.00000  Uiso   1.00
C551   C     0.02448   0.42091   0.53637   0.00000  Uiso   1.00
C552   C     0.12247   0.56260   0.38648   0.00000  Uiso   1.00
C553   C     0.13887   0.59792   0.35383   0.00000  Uiso   1.00
C554   C     0.14839   0.65042   0.38379   0.00000  Uiso   1.00
C555   C     0.14218   0.33411   0.44661   0.00000  Uiso   1.00
C556   C     0.12688   0.63199   0.47987   0.00000  Uiso   1.00
C557   C     0.47659   0.58515   0.47218   0.00000  Uiso   1.00
C558   C     0.24539   0.34400   0.47596   0.00000  Uiso   1.00
C559   C     0.24721   0.65585   0.52465   0.00000  Uiso   1.00
C560   C     0.16463   0.50165   0.50112   0.00000  Uiso   1.00
C561   C     0.33562   0.49964   0.49899   0.00000  Uiso   1.00
C562   C     0.40773   0.54163   0.48688   0.00000  Uiso   1.00
Cu563  Cu    0.25500   0.50579   0.56146   0.00000  Uiso   1.00
Cu564  Cu    0.24499   0.49421   0.43854   0.00000  Uiso   1.00
H565   H     0.21501   0.45979   0.64939   0.00000  Uiso   1.00
H566   H     0.11369   0.52241   0.36229   0.00000  Uiso   1.00
H567   H     0.14345   0.58480   0.63845   0.00000  Uiso   1.00
H568   H     0.16065   0.34459   0.35839   0.00000  Uiso   1.00
H569   H     0.14964   0.37476   0.46955   0.00000  Uiso   1.00
H570   H     0.12164   0.64577   0.52833   0.00000  Uiso   1.00
H571   H     0.46143   0.38260   0.53908   0.00000  Uiso   1.00
H572   H     0.03848   0.61787   0.45553   0.00000  Uiso   1.00
H573   H     0.04232   0.38942   0.54951   0.00000  Uiso   1.00
H574   H     0.45867   0.61697   0.45997   0.00000  Uiso   1.00
H575   H     0.24328   0.65358   0.42894   0.00000  Uiso   1.00
H576   H     0.28499   0.54018   0.35052   0.00000  Uiso   1.00
H577   H     0.24936   0.34622   0.57169   0.00000  Uiso   1.00
H578   H     0.39030   0.57338   0.47623   0.00000  Uiso   1.00
H579   H     0.11229   0.43621   0.54161   0.00000  Uiso   1.00
H580   H     0.37838   0.40262   0.39158   0.00000  Uiso   1.00
H581   H     0.33939   0.64863   0.35926   0.00000  Uiso   1.00
H582   H     0.32266   0.59919   0.43737   0.00000  Uiso   1.00
H583   H     0.34309   0.63739   0.54897   0.00000  Uiso   1.00
H584   H     0.38096   0.39223   0.58228   0.00000  Uiso   1.00
N585   N     0.23744   0.48547   0.34617   0.00000  Uiso   1.00
N586   N     0.26255   0.51453   0.65383   0.00000  Uiso   1.00
O587   O     0.25325   0.42871   0.53992   0.00000  Uiso   1.00
O588   O     0.24674   0.57129   0.46008   0.00000  Uiso   1.00
O589   O     0.24480   0.41892   0.43612   0.00000  Uiso   1.00
O590   O     0.25520   0.58108   0.56388   0.00000  Uiso   1.00
O591   O     0.18935   0.50488   0.55191   0.00000  Uiso   1.00
O592   O     0.31064   0.49512   0.44809   0.00000  Uiso   1.00
O593   O     0.18090   0.49510   0.44810   0.00000  Uiso   1.00
O594   O     0.31910   0.50490   0.55190   0.00000  Uiso   1.00
C595   C     0.74781   0.39989   0.48450   0.00000  Uiso   1.00
C596   C     0.59394   0.46608   0.52562   0.00000  Uiso   1.00
C597   C     0.88408   0.49842   0.49722   0.00000  Uiso   1.00
C598   C     0.61669   0.50444   0.50341   0.00000  Uiso   1.00
C599   C     0.90678   0.45454   0.50624   0.00000  Uiso   1.00
C600   C     0.59344   0.54339   0.48161   0.00000  Uiso   1.00
C601   C     0.95381   0.45765   0.51414   0.00000  Uiso   1.00
C602   C     0.54699   0.54504   0.48605   0.00000  Uiso   1.00
C603   C     0.97727   0.50203   0.50341   0.00000  Uiso   1.00
C604   C     0.52406   0.50400   0.50499   0.00000  Uiso   1.00
C605   C     0.95382   0.54321   0.48770   0.00000  Uiso   1.00
C606   C     0.74917   0.59999   0.51571   0.00000  Uiso   1.00
C607   C     0.54762   0.46376   0.52308   0.00000  Uiso   1.00
C608   C     0.97804   0.41707   0.53019   0.00000  Uiso   1.00
C609   C     0.52254   0.58551   0.46991   0.00000  Uiso   1.00
C610   C     0.88238   0.40318   0.48918   0.00000  Uiso   1.00
C611   C     0.87036   0.38146   0.42625   0.00000  Uiso   1.00
C612   C     0.84844   0.66553   0.40776   0.00000  Uiso   1.00
C613   C     0.83868   0.63787   0.45200   0.00000  Uiso   1.00
C614   C     0.85042   0.65941   0.51491   0.00000  Uiso   1.00
C615   C     0.87189   0.37570   0.53368   0.00000  Uiso   1.00
C616   C     0.61641   0.57943   0.44973   0.00000  Uiso   1.00
C617   C     0.52448   0.42091   0.53637   0.00000  Uiso   1.00
C618   C     0.62247   0.56260   0.38648   0.00000  Uiso   1.00
C619   C     0.63887   0.59792   0.35383   0.00000  Uiso   1.00
C620   C     0.64839   0.65042   0.38379   0.00000  Uiso   1.00
C621   C     0.64218   0.33411   0.44661   0.00000  Uiso   1.00
C622   C     0.62688   0.63199   0.47987   0.00000  Uiso   1.00
C623   C     0.97659   0.58515   0.47218   0.00000  Uiso   1.00
C624   C     0.74539   0.34400   0.47596   0.00000  Uiso   1.00
C625   C     0.74721   0.65585   0.52465   0.00000  Uiso   1.00
C626   C     0.66463   0.50165   0.50112   0.00000  Uiso   1.00
C627   C     0.83562   0.49964   0.49899   0.00000  Uiso   1.00
C628   C     0.90773   0.54163   0.48688   0.00000  Uiso   1.00
Cu629  Cu    0.75500   0.50579   0.56146   0.00000  Uiso   1.00
Cu630  Cu    0.74499   0.49421   0.43854   0.00000  Uiso   1.00
H631   H     0.71501   0.45979   0.64939   0.00000  Uiso   1.00
H632   H     0.61369   0.52241   0.36229   0.00000  Uiso   1.00
H633   H     0.64345   0.58480   0.63845   0.00000  Uiso   1.00
H634   H     0.66065   0.34459   0.35839   0.00000  Uiso   1.00
H635   H     0.64964   0.37476   0.46955   0.00000  Uiso   1.00
H636   H     0.62164   0.64577   0.52833   0.00000  Uiso   1.00
H637   H     0.96143   0.38260   0.53908   0.00000  Uiso   1.00
H638   H     0.53848   0.61787   0.45553   0.00000  Uiso   1.00
H639   H     0.54232   0.38942   0.54951   0.00000  Uiso   1.00
H640   H     0.95867   0.61697   0.45997   0.00000  Uiso   1.00
H641   H     0.74328   0.65358   0.42894   0.00000  Uiso   1.00
H642   H     0.78499   0.54018   0.35052   0.00000  Uiso   1.00
H643   H     0.74936   0.34622   0.57169   0.00000  Uiso   1.00
H644   H     0.89030   0.57338   0.47623   0.00000  Uiso   1.00
H645   H     0.61229   0.43621   0.54161   0.00000  Uiso   1.00
H646   H     0.87838   0.40262   0.39158   0.00000  Uiso   1.00
H647   H     0.83939   0.64863   0.35926   0.00000  Uiso   1.00
H648   H     0.82266   0.59919   0.43737   0.00000  Uiso   1.00
H649   H     0.84309   0.63739   0.54897   0.00000  Uiso   1.00
H650   H     0.88096   0.39223   0.58228   0.00000  Uiso   1.00
N651   N     0.73744   0.48547   0.34617   0.00000  Uiso   1.00
N652   N     0.76255   0.51453   0.65383   0.00000  Uiso   1.00
O653   O     0.75325   0.42871   0.53992   0.00000  Uiso   1.00
O654   O     0.74674   0.57129   0.46008   0.00000  Uiso   1.00
O655   O     0.74480   0.41892   0.43612   0.00000  Uiso   1.00
O656   O     0.75520   0.58108   0.56388   0.00000  Uiso   1.00
O657   O     0.68935   0.50488   0.55191   0.00000  Uiso   1.00
O658   O     0.81064   0.49512   0.44809   0.00000  Uiso   1.00
O659   O     0.68090   0.49510   0.44810   0.00000  Uiso   1.00
O660   O     0.81910   0.50490   0.55190   0.00000  Uiso   1.00
C661   C     0.24781   0.73322   0.48450   0.00000  Uiso   1.00
C662   C     0.09394   0.79941   0.52562   0.00000  Uiso   1.00
C663   C     0.38408   0.83175   0.49722   0.00000  Uiso   1.00
C664   C     0.11669   0.83777   0.50341   0.00000  Uiso   1.00
C665   C     0.40678   0.78787   0.50624   0.00000  Uiso   1.00
C666   C     0.09344   0.87672   0.48161   0.00000  Uiso   1.00
C667   C     0.45381   0.79098   0.51414   0.00000  Uiso   1.00
C668   C     0.04699   0.87837   0.48605   0.00000  Uiso   1.00
C669   C     0.47727   0.83537   0.50341   0.00000  Uiso   1.00
C670   C     0.02406   0.83733   0.50499   0.00000  Uiso   1.00
C671   C     0.45382   0.87655   0.48770   0.00000  Uiso   1.00
C672   C     0.24917   0.93332   0.51571   0.00000  Uiso   1.00
C673   C     0.04762   0.79709   0.52308   0.00000  Uiso   1.00
C674   C     0.47804   0.75041   0.53019   0.00000  Uiso   1.00
C675   C     0.02254   0.91885   0.46991   0.00000  Uiso   1.00
C676   C     0.38238   0.73651   0.48918   0.00000  Uiso   1.00
C677   C     0.37036   0.71479   0.42625   0.00000  Uiso   1.00
C678   C     0.34844   0.99887   0.40776   0.00000  Uiso   1.00
C679   C     0.33868   0.97121   0.45200   0.00000  Uiso   1.00
C680   C     0.35042   0.99274   0.51491   0.00000  Uiso   1.00
C681   C     0.37189   0.70904   0.53368   0.00000  Uiso   1.00
C682   C     0.11641   0.91276   0.44973   0.00000  Uiso   1.00
C683   C     0.02448   0.75424   0.53637   0.00000  Uiso   1.00
C684   C     0.12247   0.89594   0.38648   0.00000  Uiso   1.00
C685   C     0.13887   0.93125   0.35383   0.00000  Uiso   1.00
C686   C     0.14839   0.98375   0.38379   0.00000  Uiso   1.00
C687   C     0.14218   0.66745   0.44661   0.00000  Uiso   1.00
C688   C     0.12688   0.96532   0.47987   0.00000  Uiso   1.00
C689   C     0.47659   0.91848   0.47218   0.00000  Uiso   1.00
C690   C     0.24539   0.67733   0.47596   0.00000  Uiso   1.00
C691   C     0.24721   0.98918   0.52465   0.00000  Uiso   1.00
C692   C     0.16463   0.83499   0.50112   0.00000  Uiso   1.00
C693   C     0.33562   0.83298   0.49899   0.00000  Uiso   1.00
C694   C     0.40773   0.87496   0.48688   0.00000  Uiso   1.00
Cu695  Cu    0.25500   0.83913   0.56146   0.00000  Uiso   1.00
Cu696  Cu    0.24499   0.82754   0.43854   0.00000  Uiso   1.00
H697   H     0.21501   0.79312   0.64939   0.00000  Uiso   1.00
H698   H     0.11369   0.85574   0.36229   0.00000  Uiso   1.00
H699   H     0.14345   0.91814   0.63845   0.00000  Uiso   1.00
H700   H     0.16065   0.67792   0.35839   0.00000  Uiso   1.00
H701   H     0.14964   0.70810   0.46955   0.00000  Uiso   1.00
H702   H     0.12164   0.97911   0.52833   0.00000  Uiso   1.00
H703   H     0.46143   0.71594   0.53908   0.00000  Uiso   1.00
H704   H     0.03848   0.95121   0.45553   0.00000  Uiso   1.00
H705   H     0.04232   0.72276   0.54951   0.00000  Uiso   1.00
H706   H     0.45867   0.95030   0.45997   0.00000  Uiso   1.00
H707   H     0.24328   0.98691   0.42894   0.00000  Uiso   1.00
H708   H     0.28499   0.87351   0.35052   0.00000  Uiso   1.00
H709   H     0.24936   0.67956   0.57169   0.00000  Uiso   1.00
H710   H     0.39030   0.90672   0.47623   0.00000  Uiso   1.00
H711   H     0.11229   0.76954   0.54161   0.00000  Uiso   1.00
H712   H     0.37838   0.73595   0.39158   0.00000  Uiso   1.00
H713   H     0.33939   0.98196   0.35926   0.00000  Uiso   1.00
H714   H     0.32266   0.93252   0.43737   0.00000  Uiso   1.00
H715   H     0.34309   0.97073   0.54897   0.00000  Uiso   1.00
H716   H     0.38096   0.72557   0.58228   0.00000  Uiso   1.00
N717   N     0.23744   0.81881   0.34617   0.00000  Uiso   1.00
N718   N     0.26255   0.84786   0.65383   0.00000  Uiso   1.00
O719   O     0.25325   0.76204   0.53992   0.00000  Uiso   1.00
O720   O     0.24674   0.90462   0.46008   0.00000  Uiso   1.00
O721   O     0.24480   0.75226   0.43612   0.00000  Uiso   1.00
O722   O     0.25520   0.91441   0.56388   0.00000  Uiso   1.00
O723   O     0.18935   0.83821   0.55191   0.00000  Uiso   1.00
O724   O     0.31064   0.82845   0.44809   0.00000  Uiso   1.00
O725   O     0.18090   0.82843   0.44810   0.00000  Uiso   1.00
O726   O     0.31910   0.83824   0.55190   0.00000  Uiso   1.00
C727   C     0.74781   0.73322   0.48450   0.00000  Uiso   1.00
C728   C     0.59394   0.79941   0.52562   0.00000  Uiso   1.00
C729   C     0.88408   0.83175   0.49722   0.00000  Uiso   1.00
C730   C     0.61669   0.83777   0.50341   0.00000  Uiso   1.00
C731   C     0.90678   0.78787   0.50624   0.00000  Uiso   1.00
C732   C     0.59344   0.87672   0.48161   0.00000  Uiso   1.00
C733   C     0.95381   0.79098   0.51414   0.00000  Uiso   1.00
C734   C     0.54699   0.87837   0.48605   0.00000  Uiso   1.00
C735   C     0.97727   0.83537   0.50341   0.00000  Uiso   1.00
C736   C     0.52406   0.83733   0.50499   0.00000  Uiso   1.00
C737   C     0.95382   0.87655   0.48770   0.00000  Uiso   1.00
C738   C     0.74917   0.93332   0.51571   0.00000  Uiso   1.00
C739   C     0.54762   0.79709   0.52308   0.00000  Uiso   1.00
C740   C     0.97804   0.75041   0.53019   0.00000  Uiso   1.00
C741   C     0.52254   0.91885   0.46991   0.00000  Uiso   1.00
C742   C     0.88238   0.73651   0.48918   0.00000  Uiso   1.00
C743   C     0.87036   0.71479   0.42625   0.00000  Uiso   1.00
C744   C     0.84844   0.99887   0.40776   0.00000  Uiso   1.00
C745   C     0.83868   0.97121   0.45200   0.00000  Uiso   1.00
C746   C     0.85042   0.99274   0.51491   0.00000  Uiso   1.00
C747   C     0.87189   0.70904   0.53368   0.00000  Uiso   1.00
C748   C     0.61641   0.91276   0.44973   0.00000  Uiso   1.00
C749   C     0.52448   0.75424   0.53637   0.00000  Uiso   1.00
C750   C     0.62247   0.89594   0.38648   0.00000  Uiso   1.00
C751   C     0.63887   0.93125   0.35383   0.00000  Uiso   1.00
C752   C     0.64839   0.98375   0.38379   0.00000  Uiso   1.00
C753   C     0.64218   0.66745   0.44661   0.00000  Uiso   1.00
C754   C     0.62688   0.96532   0.47987   0.00000  Uiso   1.00
C755   C     0.97659   0.91848   0.47218   0.00000  Uiso   1.00
C756   C     0.74539   0.67733   0.47596   0.00000  Uiso   1.00
C757   C     0.74721   0.98918   0.52465   0.00000  Uiso   1.00
C758   C     0.66463   0.83499   0.50112   0.00000  Uiso   1.00
C759   C     0.83562   0.83298   0.49899   0.00000  Uiso   1.00
C760   C     0.90773   0.87496   0.48688   0.00000  Uiso   1.00
Cu761  Cu    0.75500   0.83913   0.56146   0.00000  Uiso   1.00
Cu762  Cu    0.74499   0.82754   0.43854   0.00000  Uiso   1.00
H763   H     0.71501   0.79312   0.64939   0.00000  Uiso   1.00
H764   H     0.61369   0.85574   0.36229   0.00000  Uiso   1.00
H765   H     0.64345   0.91814   0.63845   0.00000  Uiso   1.00
H766   H     0.66065   0.67792   0.35839   0.00000  Uiso   1.00
H767   H     0.64964   0.70810   0.46955   0.00000  Uiso   1.00
H768   H     0.62164   0.97911   0.52833   0.00000  Uiso   1.00
H769   H     0.96143   0.71594   0.53908   0.00000  Uiso   1.00
H770   H     0.53848   0.95121   0.45553   0.00000  Uiso   1.00
H771   H     0.54232   0.72276   0.54951   0.00000  Uiso   1.00
H772   H     0.95867   0.95030   0.45997   0.00000  Uiso   1.00
H773   H     0.74328   0.98691   0.42894   0.00000  Uiso   1.00
H774   H     0.78499   0.87351   0.35052   0.00000  Uiso   1.00
H775   H     0.74936   0.67956   0.57169   0.00000  Uiso   1.00
H776   H     0.89030   0.90672   0.47623   0.00000  Uiso   1.00
H777   H     0.61229   0.76954   0.54161   0.00000  Uiso   1.00
H778   H     0.87838   0.73595   0.39158   0.00000  Uiso   1.00
H779   H     0.83939   0.98196   0.35926   0.00000  Uiso   1.00
H780   H     0.82266   0.93252   0.43737   0.00000  Uiso   1.00
H781   H     0.84309   0.97073   0.54897   0.00000  Uiso   1.00
H782   H     0.88096   0.72557   0.58228   0.00000  Uiso   1.00
N783   N     0.73744   0.81881   0.34617   0.00000  Uiso   1.00
N784   N     0.76255   0.84786   0.65383   0.00000  Uiso   1.00
O785   O     0.75325   0.76204   0.53992   0.00000  Uiso   1.00
O786   O     0.74674   0.90462   0.46008   0.00000  Uiso   1.00
O787   O     0.74480   0.75226   0.43612   0.00000  Uiso   1.00
O788   O     0.75520   0.91441   0.56388   0.00000  Uiso   1.00
O789   O     0.68935   0.83821   0.55191   0.00000  Uiso   1.00
O790   O     0.81064   0.82845   0.44809   0.00000  Uiso   1.00
O791   O     0.68090   0.82843   0.44810   0.00000  Uiso   1.00
O792   O     0.81910   0.83824   0.55190   0.00000  Uiso   1.00
C793   C     0.24781   0.06656   0.81783   0.00000  Uiso   1.00
C794   C     0.09394   0.13274   0.85895   0.00000  Uiso   1.00
C795   C     0.38408   0.16508   0.83055   0.00000  Uiso   1.00
C796   C     0.11669   0.17111   0.83674   0.00000  Uiso   1.00
C797   C     0.40678   0.12120   0.83957   0.00000  Uiso   1.00
C798   C     0.09344   0.21005   0.81494   0.00000  Uiso   1.00
C799   C     0.45381   0.12432   0.84747   0.00000  Uiso   1.00
C800   C     0.04699   0.21170   0.81938   0.00000  Uiso   1.00
C801   C     0.47727   0.16870   0.83674   0.00000  Uiso   1.00
C802   C     0.02406   0.17067   0.83833   0.00000  Uiso   1.00
C803   C     0.45382   0.20988   0.82103   0.00000  Uiso   1.00
C804   C     0.24917   0.26666   0.84905   0.00000  Uiso   1.00
C805   C     0.04762   0.13042   0.85641   0.00000  Uiso   1.00
C806   C     0.47804   0.08374   0.86352   0.00000  Uiso   1.00
C807   C     0.02254   0.25218   0.80324   0.00000  Uiso   1.00
C808   C     0.38238   0.06984   0.82251   0.00000  Uiso   1.00
C809   C     0.37036   0.04813   0.75959   0.00000  Uiso   1.00
C810   C     0.34844   0.33220   0.74109   0.00000  Uiso   1.00
C811   C     0.33868   0.30454   0.78533   0.00000  Uiso   1.00
C812   C     0.35042   0.32607   0.84824   0.00000  Uiso   1.00
C813   C     0.37189   0.04237   0.86702   0.00000  Uiso   1.00
C814   C     0.11641   0.24609   0.78306   0.00000  Uiso   1.00
C815   C     0.02448   0.08757   0.86970   0.00000  Uiso   1.00
C816   C     0.12247   0.22927   0.71981   0.00000  Uiso   1.00
C817   C     0.13887   0.26458   0.68717   0.00000  Uiso   1.00
C818   C     0.14839   0.31709   0.71712   0.00000  Uiso   1.00
C819   C     0.14218   0.00078   0.77994   0.00000  Uiso   1.00
C820   C     0.12688   0.29866   0.81320   0.00000  Uiso   1.00
C821   C     0.47659   0.25181   0.80551   0.00000  Uiso   1.00
C822   C     0.24539   0.01067   0.80929   0.00000  Uiso   1.00
C823   C     0.24721   0.32251   0.85798   0.00000  Uiso   1.00
C824   C     0.16463   0.16832   0.83445   0.00000  Uiso   1.00
C825   C     0.33562   0.16631   0.83232   0.00000  Uiso   1.00
C826   C     0.40773   0.20829   0.82022   0.00000  Uiso   1.00
Cu827  Cu    0.25500   0.17246   0.89479   0.00000  Uiso   1.00
Cu828  Cu    0.24499   0.16087   0.77187   0.00000  Uiso   1.00
H829   H     0.21501   0.12645   0.98272   0.00000  Uiso   1.00
H830   H     0.11369   0.18907   0.69563   0.00000  Uiso   1.00
H831   H     0.14345   0.25147   0.97178   0.00000  Uiso   1.00
H832   H     0.16065   0.01125   0.69173   0.00000  Uiso   1.00
H833   H     0.14964   0.04143   0.80289   0.00000  Uiso   1.00
H834   H     0.12164   0.31244   0.86166   0.00000  Uiso   1.00
H835   H     0.46143   0.04927   0.87241   0.00000  Uiso   1.00
H836   H     0.03848   0.28454   0.78886   0.00000  Uiso   1.00
H837   H     0.04232   0.05609   0.88285   0.00000  Uiso   1.00
H838   H     0.45867   0.28363   0.79331   0.00000  Uiso   1.00
H839   H     0.24328   0.32025   0.76227   0.00000  Uiso   1.00
H840   H     0.28499   0.20684   0.68385   0.00000  Uiso   1.00
H841   H     0.24936   0.01289   0.90502   0.00000  Uiso   1.00
H842   H     0.39030   0.24005   0.80956   0.00000  Uiso   1.00
H843   H     0.11229   0.10287   0.87494   0.00000  Uiso   1.00
H844   H     0.37838   0.06929   0.72492   0.00000  Uiso   1.00
H845   H     0.33939   0.31530   0.69260   0.00000  Uiso   1.00
H846   H     0.32266   0.26586   0.77070   0.00000  Uiso   1.00
H847   H     0.34309   0.30406   0.88230   0.00000  Uiso   1.00
H848   H     0.38096   0.05890   0.91561   0.00000  Uiso   1.00
N849   N     0.23744   0.15214   0.67951   0.00000  Uiso   1.00
N850   N     0.26255   0.18119   0.98716   0.00000  Uiso   1.00
O851   O     0.25325   0.09538   0.87326   0.00000  Uiso   1.00
O852   O     0.24674   0.23796   0.79341   0.00000  Uiso   1.00
O853   O     0.24480   0.08559   0.76945   0.00000  Uiso   1.00
O854   O     0.25520   0.24774   0.89721   0.00000  Uiso   1.00
O855   O     0.18935   0.17155   0.88524   0.00000  Uiso   1.00
O856   O     0.31064   0.16179   0.78143   0.00000  Uiso   1.00
O857   O     0.18090   0.16176   0.78143   0.00000  Uiso   1.00
O858   O     0.31910   0.17157   0.88523   0.00000  Uiso   1.00
C859   C     0.74781   0.06656   0.81783   0.00000  Uiso   1.00
C860   C     0.59394   0.13274   0.85895   0.00000  Uiso   1.00
C861   C     0.88408   0.16508   0.83055   0.00000  Uiso   1.00
C862   C     0.61669   0.17111   0.83674   0.00000  Uiso   1.00
C863   C     0.90678   0.12120   0.83957   0.00000  Uiso   1.00
C864   C     0.59344   0.21005   0.81494   0.00000  Uiso   1.00
C865   C     0.95381   0.12432   0.84747   0.00000  Uiso   1.00
C866   C     0.54699   0.21170   0.81938   0.00000  Uiso   1.00
C867   C     0.97727   0.16870   0.83674   0.00000  Uiso   1.00
C868   C     0.52406   0.17067   0.83833   0.00000  Uiso   1.00
C869   C     0.95382   0.20988   0.82103   0.00000  Uiso   1.00
C870   C     0.74917   0.26666   0.84905   0.00000  Uiso   1.00
C871   C     0.54762   0.13042   0.85641   0.00000  Uiso   1.00
C872   C     0.97804   0.08374   0.86352   0.00000  Uiso   1.00
C873   C     0.52254   0.25218   0.80324   0.00000  Uiso   1.00
C874   C     0.88238   0.06984   0.82251   0.00000  Uiso   1.00
C875   C     0.87036   0.04813   0.75959   0.00000  Uiso   1.00
C876   C     0.84844   0.33220   0.74109   0.00000  Uiso   1.00
C877   C     0.83868   0.30454   0.78533   0.00000  Uiso   1.00
C878   C     0.85042   0.32607   0.84824   0.00000  Uiso   1.00
C879   C     0.87189   0.04237   0.86702   0.00000  Uiso   1.00
C880   C     0.61641   0.24609   0.78306   0.00000  Uiso   1.00
C881   C     0.52448   0.08757   0.86970   0.00000  Uiso   1.00
C882   C     0.62247   0.22927   0.71981   0.00000  Uiso   1.00
C883   C     0.63887   0.26458   0.68717   0.00000  Uiso   1.00
C884   C     0.64839   0.31709   0.71712   0.00000  Uiso   1.00
C885   C     0.64218   0.00078   0.77994   0.00000  Uiso   1.00
C886   C     0.62688   0.29866   0.81320   0.00000  Uiso   1.00
C887   C     0.97659   0.25181   0.80551   0.00000  Uiso   1.00
C888   C     0.74539   0.01067   0.80929   0.00000  Uiso   1.00
C889   C     0.74721   0.32251   0.85798   0.00000  Uiso   1.00
C890   C     0.66463   0.16832   0.83445   0.00000  Uiso   1.00
C891   C     0.83562   0.16631   0.83232   0.00000  Uiso   1.00
C892   C     0.90773   0.20829   0.82022   0.00000  Uiso   1.00
Cu893  Cu    0.75500   0.17246   0.89479   0.00000  Uiso   1.00
Cu894  Cu    0.74499   0.16087   0.77187   0.00000  Uiso   1.00
H895   H     0.71501   0.12645   0.98272   0.00000  Uiso   1.00
H896   H     0.61369   0.18907   0.69563   0.00000  Uiso   1.00
H897   H     0.64345   0.25147   0.97178   0.00000  Uiso   1.00
H898   H     0.66065   0.01125   0.69173   0.00000  Uiso   1.00
H899   H     0.64964   0.04143   0.80289   0.00000  Uiso   1.00
H900   H     0.62164   0.31244   0.86166   0.00000  Uiso   1.00
H901   H     0.96143   0.04927   0.87241   0.00000  Uiso   1.00
H902   H     0.53848   0.28454   0.78886   0.00000  Uiso   1.00
H903   H     0.54232   0.05609   0.88285   0.00000  Uiso   1.00
H904   H     0.95867   0.28363   0.79331   0.00000  Uiso   1.00
H905   H     0.74328   0.32025   0.76227   0.00000  Uiso   1.00
H906   H     0.78499   0.20684   0.68385   0.00000  Uiso   1.00
H907   H     0.74936   0.01289   0.90502   0.00000  Uiso   1.00
H908   H     0.89030   0.24005   0.80956   0.00000  Uiso   1.00
H909   H     0.61229   0.10287   0.87494   0.00000  Uiso   1.00
H910   H     0.87838   0.06929   0.72492   0.00000  Uiso   1.00
H911   H     0.83939   0.31530   0.69260   0.00000  Uiso   1.00
H912   H     0.82266   0.26586   0.77070   0.00000  Uiso   1.00
H913   H     0.84309   0.30406   0.88230   0.00000  Uiso   1.00
H914   H     0.88096   0.05890   0.91561   0.00000  Uiso   1.00
N915   N     0.73744   0.15214   0.67951   0.00000  Uiso   1.00
N916   N     0.76255   0.18119   0.98716   0.00000  Uiso   1.00
O917   O     0.75325   0.09538   0.87326   0.00000  Uiso   1.00
O918   O     0.74674   0.23796   0.79341   0.00000  Uiso   1.00
O919   O     0.74480   0.08559   0.76945   0.00000  Uiso   1.00
O920   O     0.75520   0.24774   0.89721   0.00000  Uiso   1.00
O921   O     0.68935   0.17155   0.88524   0.00000  Uiso   1.00
O922   O     0.81064   0.16179   0.78143   0.00000  Uiso   1.00
O923   O     0.68090   0.16176   0.78143   0.00000  Uiso   1.00
O924   O     0.81910   0.17157   0.88523   0.00000  Uiso   1.00
C925   C     0.24781   0.39989   0.81783   0.00000  Uiso   1.00
C926   C     0.09394   0.46608   0.85895   0.00000  Uiso   1.00
C927   C     0.38408   0.49842   0.83055   0.00000  Uiso   1.00
C928   C     0.11669   0.50444   0.83674   0.00000  Uiso   1.00
C929   C     0.40678   0.45454   0.83957   0.00000  Uiso   1.00
C930   C     0.09344   0.54339   0.81494   0.00000  Uiso   1.00
C931   C     0.45381   0.45765   0.84747   0.00000  Uiso   1.00
C932   C     0.04699   0.54504   0.81938   0.00000  Uiso   1.00
C933   C     0.47727   0.50203   0.83674   0.00000  Uiso   1.00
C934   C     0.02406   0.50400   0.83833   0.00000  Uiso   1.00
C935   C     0.45382   0.54321   0.82103   0.00000  Uiso   1.00
C936   C     0.24917   0.59999   0.84905   0.00000  Uiso   1.00
C937   C     0.04762   0.46376   0.85641   0.00000  Uiso   1.00
C938   C     0.47804   0.41707   0.86352   0.00000  Uiso   1.00
C939   C     0.02254   0.58551   0.80324   0.00000  Uiso   1.00
C940   C     0.38238   0.40318   0.82251   0.00000  Uiso   1.00
C941   C     0.37036   0.38146   0.75959   0.00000  Uiso   1.00
C942   C     0.34844   0.66553   0.74109   0.00000  Uiso   1.00
C943   C     0.33868   0.63787   0.78533   0.00000  Uiso   1.00
C944   C     0.35042   0.65941   0.84824   0.00000  Uiso   1.00
C945   C     0.37189   0.37570   0.86702   0.00000  Uiso   1.00
C946   C     0.11641   0.57943   0.78306   0.00000  Uiso   1.00
C947   C     0.02448   0.42091   0.86970   0.00000  Uiso   1.00
C948   C     0.12247   0.56260   0.71981   0.00000  Uiso   1.00
C949   C     0.13887   0.59792   0.68717   0.00000  Uiso   1.00
C950   C     0.14839   0.65042   0.71712   0.00000  Uiso   1.00
C951   C     0.14218   0.33411   0.77994   0.00000  Uiso   1.00
C952   C     0.12688   0.63199   0.81320   0.00000  Uiso   1.00
C953   C     0.47659   0.58515   0.80551   0.00000  Uiso   1.00
C954   C     0.24539   0.34400   0.80929   0.00000  Uiso   1.00
C955   C     0.24721   0.65585   0.85798   0.00000  Uiso   1.00
C956   C     0.16463   0.50165   0.83445   0.00000  Uiso   1.00
C957   C     0.33562   0.49964   0.83232   0.00000  Uiso   1.00
C958   C     0.40773   0.54163   0.82022   0.00000  Uiso   1.00
Cu959  Cu    0.25500   0.50579   0.89479   0.00000  Uiso   1.00
Cu960  Cu    0.24499   0.49421   0.77187   0.00000  Uiso   1.00
H961   H     0.21501   0.45979   0.98272   0.00000  Uiso   1.00
H962   H     0.11369   0.52241   0.69563   0.00000  Uiso   1.00
H963   H     0.14345   0.58480   0.97178   0.00000  Uiso   1.00
H964   H     0.16065   0.34459   0.69173   0.00000  Uiso   1.00
H965   H     0.14964   0.37476   0.80289   0.00000  Uiso   1.00
H966   H     0.12164   0.64577   0.86166   0.00000  Uiso   1.00
H967   H     0.46143   0.38260   0.87241   0.00000  Uiso   1.00
H968   H     0.03848   0.61787   0.78886   0.00000  Uiso   1.00
H969   H     0.04232   0.38942   0.88285   0.00000  Uiso   1.00
H970   H     0.45867   0.61697   0.79331   0.00000  Uiso   1.00
H971   H     0.24328   0.65358   0.76227   0.00000  Uiso   1.00
H972   H     0.28499   0.54018   0.68385   0.00000  Uiso   1.00
H973   H     0.24936   0.34622   0.90502   0.00000  Uiso   1.00
H974   H     0.39030   0.57338   0.80956   0.00000  Uiso   1.00
H975   H     0.11229   0.43621   0.87494   0.00000  Uiso   1.00
H976   H     0.37838   0.40262   0.72492   0.00000  Uiso   1.00
H977   H     0.33939   0.64863   0.69260   0.00000  Uiso   1.00
H978   H     0.32266   0.59919   0.77070   0.00000  Uiso   1.00
H979   H     0.34309   0.63739   0.88230   0.00000  Uiso   1.00
H980   H     0.38096   0.39223   0.91561   0.00000  Uiso   1.00
N981   N     0.23744   0.48547   0.67951   0.00000  Uiso   1.00
N982   N     0.26255   0.51453   0.98716   0.00000  Uiso   1.00
O983   O     0.25325   0.42871   0.87326   0.00000  Uiso   1.00
O984   O     0.24674   0.57129   0.79341   0.00000  Uiso   1.00
O985   O     0.24480   0.41892   0.76945   0.00000  Uiso   1.00
O986   O     0.25520   0.58108   0.89721   0.00000  Uiso   1.00
O987   O     0.18935   0.50488   0.88524   0.00000  Uiso   1.00
O988   O     0.31064   0.49512   0.78143   0.00000  Uiso   1.00
O989   O     0.18090   0.49510   0.78143   0.00000  Uiso   1.00
O990   O     0.31910   0.50490   0.88523   0.00000  Uiso   1.00
C991   C     0.74781   0.39989   0.81783   0.00000  Uiso   1.00
C992   C     0.59394   0.46608   0.85895   0.00000  Uiso   1.00
C993   C     0.88408   0.49842   0.83055   0.00000  Uiso   1.00
C994   C     0.61669   0.50444   0.83674   0.00000  Uiso   1.00
C995   C     0.90678   0.45454   0.83957   0.00000  Uiso   1.00
C996   C     0.59344   0.54339   0.81494   0.00000  Uiso   1.00
C997   C     0.95381   0.45765   0.84747   0.00000  Uiso   1.00
C998   C     0.54699   0.54504   0.81938   0.00000  Uiso   1.00
C999   C     0.97727   0.50203   0.83674   0.00000  Uiso   1.00
C1000  C     0.52406   0.50400   0.83833   0.00000  Uiso   1.00
C1001  C     0.95382   0.54321   0.82103   0.00000  Uiso   1.00
C1002  C     0.74917   0.59999   0.84905   0.00000  Uiso   1.00
C1003  C     0.54762   0.46376   0.85641   0.00000  Uiso   1.00
C1004  C     0.97804   0.41707   0.86352   0.00000  Uiso   1.00
C1005  C     0.52254   0.58551   0.80324   0.00000  Uiso   1.00
C1006  C     0.88238   0.40318   0.82251   0.00000  Uiso   1.00
C1007  C     0.87036   0.38146   0.75959   0.00000  Uiso   1.00
C1008  C     0.84844   0.66553   0.74109   0.00000  Uiso   1.00
C1009  C     0.83868   0.63787   0.78533   0.00000  Uiso   1.00
C1010  C     0.85042   0.65941   0.84824   0.00000  Uiso   1.00
C1011  C     0.87189   0.37570   0.86702   0.00000  Uiso   1.00
C1012  C     0.61641   0.57943   0.78306   0.00000  Uiso   1.00
C1013  C     0.52448   0.42091   0.86970   0.00000  Uiso   1.00
C1014  C     0.62247   0.56260   0.71981   0.00000  Uiso   1.00
C1015  C     0.63887   0.59792   0.68717   0.00000  Uiso   1.00
C1016  C     0.64839   0.65042   0.71712   0.00000  Uiso   1.00
C1017  C     0.64218   0.33411   0.77994   0.00000  Uiso   1.00
C1018  C     0.62688   0.63199   0.81320   0.00000  Uiso   1.00
C1019  C     0.97659   0.58515   0.80551   0.00000  Uiso   1.00
C1020  C     0.74539   0.34400   0.80929   0.00000  Uiso   1.00
C1021  C     0.74721   0.65585   0.85798   0.00000  Uiso   1.00
C1022  C     0.66463   0.50165   0.83445   0.00000  Uiso   1.00
C1023  C     0.83562   0.49964   0.83232   0.00000  Uiso   1.00
C1024  C     0.90773   0.54163   0.82022   0.00000  Uiso   1.00
Cu1025 Cu    0.75500   0.50579   0.89479   0.00000  Uiso   1.00
Cu1026 Cu    0.74499   0.49421   0.77187   0.00000  Uiso   1.00
H1027  H     0.71501   0.45979   0.98272   0.00000  Uiso   1.00
H1028  H     0.61369   0.52241   0.69563   0.00000  Uiso   1.00
H1029  H     0.64345   0.58480   0.97178   0.00000  Uiso   1.00
H1030  H     0.66065   0.34459   0.69173   0.00000  Uiso   1.00
H1031  H     0.64964   0.37476   0.80289   0.00000  Uiso   1.00
H1032  H     0.62164   0.64577   0.86166   0.00000  Uiso   1.00
H1033  H     0.96143   0.38260   0.87241   0.00000  Uiso   1.00
H1034  H     0.53848   0.61787   0.78886   0.00000  Uiso   1.00
H1035  H     0.54232   0.38942   0.88285   0.00000  Uiso   1.00
H1036  H     0.95867   0.61697   0.79331   0.00000  Uiso   1.00
H1037  H     0.74328   0.65358   0.76227   0.00000  Uiso   1.00
H1038  H     0.78499   0.54018   0.68385   0.00000  Uiso   1.00
H1039  H     0.74936   0.34622   0.90502   0.00000  Uiso   1.00
H1040  H     0.89030   0.57338   0.80956   0.00000  Uiso   1.00
H1041  H     0.61229   0.43621   0.87494   0.00000  Uiso   1.00
H1042  H     0.87838   0.40262   0.72492   0.00000  Uiso   1.00
H1043  H     0.83939   0.64863   0.69260   0.00000  Uiso   1.00
H1044  H     0.82266   0.59919   0.77070   0.00000  Uiso   1.00
H1045  H     0.84309   0.63739   0.88230   0.00000  Uiso   1.00
H1046  H     0.88096   0.39223   0.91561   0.00000  Uiso   1.00
N1047  N     0.73744   0.48547   0.67951   0.00000  Uiso   1.00
N1048  N     0.76255   0.51453   0.98716   0.00000  Uiso   1.00
O1049  O     0.75325   0.42871   0.87326   0.00000  Uiso   1.00
O1050  O     0.74674   0.57129   0.79341   0.00000  Uiso   1.00
O1051  O     0.74480   0.41892   0.76945   0.00000  Uiso   1.00
O1052  O     0.75520   0.58108   0.89721   0.00000  Uiso   1.00
O1053  O     0.68935   0.50488   0.88524   0.00000  Uiso   1.00
O1054  O     0.81064   0.49512   0.78143   0.00000  Uiso   1.00
O1055  O     0.68090   0.49510   0.78143   0.00000  Uiso   1.00
O1056  O     0.81910   0.50490   0.88523   0.00000  Uiso   1.00
C1057  C     0.24781   0.73322   0.81783   0.00000  Uiso   1.00
C1058  C     0.09394   0.79941   0.85895   0.00000  Uiso   1.00
C1059  C     0.38408   0.83175   0.83055   0.00000  Uiso   1.00
C1060  C     0.11669   0.83777   0.83674   0.00000  Uiso   1.00
C1061  C     0.40678   0.78787   0.83957   0.00000  Uiso   1.00
C1062  C     0.09344   0.87672   0.81494   0.00000  Uiso   1.00
C1063  C     0.45381   0.79098   0.84747   0.00000  Uiso   1.00
C1064  C     0.04699   0.87837   0.81938   0.00000  Uiso   1.00
C1065  C     0.47727   0.83537   0.83674   0.00000  Uiso   1.00
C1066  C     0.02406   0.83733   0.83833   0.00000  Uiso   1.00
C1067  C     0.45382   0.87655   0.82103   0.00000  Uiso   1.00
C1068  C     0.24917   0.93332   0.84905   0.00000  Uiso   1.00
C1069  C     0.04762   0.79709   0.85641   0.00000  Uiso   1.00
C1070  C     0.47804   0.75041   0.86352   0.00000  Uiso   1.00
C1071  C     0.02254   0.91885   0.80324   0.00000  Uiso   1.00
C1072  C     0.38238   0.73651   0.82251   0.00000  Uiso   1.00
C1073  C     0.37036   0.71479   0.75959   0.00000  Uiso   1.00
C1074  C     0.34844   0.99887   0.74109   0.00000  Uiso   1.00
C1075  C     0.33868   0.97121   0.78533   0.00000  Uiso   1.00
C1076  C     0.35042   0.99274   0.84824   0.00000  Uiso   1.00
C1077  C     0.37189   0.70904   0.86702   0.00000  Uiso   1.00
C1078  C     0.11641   0.91276   0.78306   0.00000  Uiso   1.00
C1079  C     0.02448   0.75424   0.86970   0.00000  Uiso   1.00
C1080  C     0.12247   0.89594   0.71981   0.00000  Uiso   1.00
C1081  C     0.13887   0.93125   0.68717   0.00000  Uiso   1.00
C1082  C     0.14839   0.98375   0.71712   0.00000  Uiso   1.00
C1083  C     0.14218   0.66745   0.77994   0.00000  Uiso   1.00
C1084  C     0.12688   0.96532   0.81320   0.00000  Uiso   1.00
C1085  C     0.47659   0.91848   0.80551   0.00000  Uiso   1.00
C1086  C     0.24539   0.67733   0.80929   0.00000  Uiso   1.00
C1087  C     0.24721   0.98918   0.85798   0.00000  Uiso   1.00
C1088  C     0.16463   0.83499   0.83445   0.00000  Uiso   1.00
C1089  C     0.33562   0.83298   0.83232   0.00000  Uiso   1.00
C1090  C     0.40773   0.87496   0.82022   0.00000  Uiso   1.00
Cu1091 Cu    0.25500   0.83913   0.89479   0.00000  Uiso   1.00
Cu1092 Cu    0.24499   0.82754   0.77187   0.00000  Uiso   1.00
H1093  H     0.21501   0.79312   0.98272   0.00000  Uiso   1.00
H1094  H     0.11369   0.85574   0.69563   0.00000  Uiso   1.00
H1095  H     0.14345   0.91814   0.97178   0.00000  Uiso   1.00
H1096  H     0.16065   0.67792   0.69173   0.00000  Uiso   1.00
H1097  H     0.14964   0.70810   0.80289   0.00000  Uiso   1.00
H1098  H     0.12164   0.97911   0.86166   0.00000  Uiso   1.00
H1099  H     0.46143   0.71594   0.87241   0.00000  Uiso   1.00
H1100  H     0.03848   0.95121   0.78886   0.00000  Uiso   1.00
H1101  H     0.04232   0.72276   0.88285   0.00000  Uiso   1.00
H1102  H     0.45867   0.95030   0.79331   0.00000  Uiso   1.00
H1103  H     0.24328   0.98691   0.76227   0.00000  Uiso   1.00
H1104  H     0.28499   0.87351   0.68385   0.00000  Uiso   1.00
H1105  H     0.24936   0.67956   0.90502   0.00000  Uiso   1.00
H1106  H     0.39030   0.90672   0.80956   0.00000  Uiso   1.00
H1107  H     0.11229   0.76954   0.87494   0.00000  Uiso   1.00
H1108  H     0.37838   0.73595   0.72492   0.00000  Uiso   1.00
H1109  H     0.33939   0.98196   0.69260   0.00000  Uiso   1.00
H1110  H     0.32266   0.93252   0.77070   0.00000  Uiso   1.00
H1111  H     0.34309   0.97073   0.88230   0.00000  Uiso   1.00
H1112  H     0.38096   0.72557   0.91561   0.00000  Uiso   1.00
N1113  N     0.23744   0.81881   0.67951   0.00000  Uiso   1.00
N1114  N     0.26255   0.84786   0.98716   0.00000  Uiso   1.00
O1115  O     0.25325   0.76204   0.87326   0.00000  Uiso   1.00
O1116  O     0.24674   0.90462   0.79341   0.00000  Uiso   1.00
O1117  O     0.24480   0.75226   0.76945   0.00000  Uiso   1.00
O1118  O     0.25520   0.91441   0.89721   0.00000  Uiso   1.00
O1119  O     0.18935   0.83821   0.88524   0.00000  Uiso   1.00
O1120  O     0.31064   0.82845   0.78143   0.00000  Uiso   1.00
O1121  O     0.18090   0.82843   0.78143   0.00000  Uiso   1.00
O1122  O     0.31910   0.83824   0.88523   0.00000  Uiso   1.00
C1123  C     0.74781   0.73322   0.81783   0.00000  Uiso   1.00
C1124  C     0.59394   0.79941   0.85895   0.00000  Uiso   1.00
C1125  C     0.88408   0.83175   0.83055   0.00000  Uiso   1.00
C1126  C     0.61669   0.83777   0.83674   0.00000  Uiso   1.00
C1127  C     0.90678   0.78787   0.83957   0.00000  Uiso   1.00
C1128  C     0.59344   0.87672   0.81494   0.00000  Uiso   1.00
C1129  C     0.95381   0.79098   0.84747   0.00000  Uiso   1.00
C1130  C     0.54699   0.87837   0.81938   0.00000  Uiso   1.00
C1131  C     0.97727   0.83537   0.83674   0.00000  Uiso   1.00
C1132  C     0.52406   0.83733   0.83833   0.00000  Uiso   1.00
C1133  C     0.95382   0.87655   0.82103   0.00000  Uiso   1.00
C1134  C     0.74917   0.93332   0.84905   0.00000  Uiso   1.00
C1135  C     0.54762   0.79709   0.85641   0.00000  Uiso   1.00
C1136  C     0.97804   0.75041   0.86352   0.00000  Uiso   1.00
C1137  C     0.52254   0.91885   0.80324   0.00000  Uiso   1.00
C1138  C     0.88238   0.73651   0.82251   0.00000  Uiso   1.00
C1139  C     0.87036   0.71479   0.75959   0.00000  Uiso   1.00
C1140  C     0.84844   0.99887   0.74109   0.00000  Uiso   1.00
C1141  C     0.83868   0.97121   0.78533   0.00000  Uiso   1.00
C1142  C     0.85042   0.99274   0.84824   0.00000  Uiso   1.00
C1143  C     0.87189   0.70904   0.86702   0.00000  Uiso   1.00
C1144  C     0.61641   0.91276   0.78306   0.00000  Uiso   1.00
C1145  C     0.52448   0.75424   0.86970   0.00000  Uiso   1.00
C1146  C     0.62247   0.89594   0.71981   0.00000  Uiso   1.00
C1147  C     0.63887   0.93125   0.68717   0.00000  Uiso   1.00
C1148  C     0.64839   0.98375   0.71712   0.00000  Uiso   1.00
C1149  C     0.64218   0.66745   0.77994   0.00000  Uiso   1.00
C1150  C     0.62688   0.96532   0.81320   0.00000  Uiso   1.00
C1151  C     0.97659   0.91848   0.80551   0.00000  Uiso   1.00
C1152  C     0.74539   0.67733   0.80929   0.00000  Uiso   1.00
C1153  C     0.74721   0.98918   0.85798   0.00000  Uiso   1.00
C1154  C     0.66463   0.83499   0.83445   0.00000  Uiso   1.00
C1155  C     0.83562   0.83298   0.83232   0.00000  Uiso   1.00
C1156  C     0.90773   0.87496   0.82022   0.00000  Uiso   1.00
Cu1157 Cu    0.75500   0.83913   0.89479   0.00000  Uiso   1.00
Cu1158 Cu    0.74499   0.82754   0.77187   0.00000  Uiso   1.00
H1159  H     0.71501   0.79312   0.98272   0.00000  Uiso   1.00
H1160  H     0.61369   0.85574   0.69563   0.00000  Uiso   1.00
H1161  H     0.64345   0.91814   0.97178   0.00000  Uiso   1.00
H1162  H     0.66065   0.67792   0.69173   0.00000  Uiso   1.00
H1163  H     0.64964   0.70810   0.80289   0.00000  Uiso   1.00
H1164  H     0.62164   0.97911   0.86166   0.00000  Uiso   1.00
H1165  H     0.96143   0.71594   0.87241   0.00000  Uiso   1.00
H1166  H     0.53848   0.95121   0.78886   0.00000  Uiso   1.00
H1167  H     0.54232   0.72276   0.88285   0.00000  Uiso   1.00
H1168  H     0.95867   0.95030   0.79331   0.00000  Uiso   1.00
H1169  H     0.74328   0.98691   0.76227   0.00000  Uiso   1.00
H1170  H     0.78499   0.87351   0.68385   0.00000  Uiso   1.00
H1171  H     0.74936   0.67956   0.90502   0.00000  Uiso   1.00
H1172  H     0.89030   0.90672   0.80956   0.00000  Uiso   1.00
H1173  H     0.61229   0.76954   0.87494   0.00000  Uiso   1.00
H1174  H     0.87838   0.73595   0.72492   0.00000  Uiso   1.00
H1175  H     0.83939   0.98196   0.69260   0.00000  Uiso   1.00
H1176  H     0.82266   0.93252   0.77070   0.00000  Uiso   1.00
H1177  H     0.84309   0.97073   0.88230   0.00000  Uiso   1.00
H1178  H     0.88096   0.72557   0.91561   0.00000  Uiso   1.00
N1179  N     0.73744   0.81881   0.67951   0.00000  Uiso   1.00
N1180  N     0.76255   0.84786   0.98716   0.00000  Uiso   1.00
O1181  O     0.75325   0.76204   0.87326   0.00000  Uiso   1.00
O1182  O     0.74674   0.90462   0.79341   0.00000  Uiso   1.00
O1183  O     0.74480   0.75226   0.76945   0.00000  Uiso   1.00
O1184  O     0.75520   0.91441   0.89721   0.00000  Uiso   1.00
O1185  O     0.68935   0.83821   0.88524   0.00000  Uiso   1.00
O1186  O     0.81064   0.82845   0.78143   0.00000  Uiso   1.00
O1187  O     0.68090   0.82843   0.78143   0.00000  Uiso   1.00
O1188  O     0.81910   0.83824   0.88523   0.00000  Uiso   1.00
loop_
_geom_bond_atom_site_label_1
_geom_bond_atom_site_label_2
_geom_bond_distance
_geom_bond_site_symmetry_2
_ccdc_geom_bond_type
C1     C30     1.433   .     S
C1     O59     1.290   .     A
C1     O61     1.286   .     A
C2     C4      1.396   .     A
C2     H51     1.084   .     S
C2     C13     1.391   .     A
C3     C34     1.388   .     A
C3     C5      1.405   .     A
C3     C33     1.464   .     S
C4     C32     1.452   .     S
C4     C6      1.414   .     A
C5     C7      1.412   .     A
C5     C16     1.468   .     S
C6     C8      1.411   .     A
C6     C22     1.484   .     S
C7     C9      1.415   .     A
C7     C14     1.409   .     A
C8     C15     1.411   .     A
C8     C10     1.416   .     A
C9     C11     1.407   .     A
C9     C76     1.406   .     S
C10    C13     1.409   .     A
C10    C75     1.406   1_455 S
C11    C29     1.396   .     A
C11    C34     1.386   .     A
C12    O62     1.286   .     A
C12    C31     1.437   .     S
C12    O60     1.292   .     A
C13    C23     1.400   .     A
C14    H43     1.081   .     S
C14    C89     1.393   .     S
C15    H44     1.081   .     S
C15    C95     1.388   1_455 S
C16    C21     1.398   .     A
C16    C17     1.405   .     A
C17    H52     1.084   .     S
C17    C282    1.390   1_545 S
C18    C19     1.391   .     A
C18    H53     1.083   .     S
C18    C149    1.390   .     S
C19    C20     1.403   .     A
C19    H54     1.077   .     S
C20    H55     1.082   .     S
C20    C153    1.393   .     S
C21    H56     1.083   .     S
C21    C284    1.393   1_545 S
C22    C28     1.403   .     A
C22    C24     1.406   .     A
C23    H45     1.084   .     S
C23    C80     1.393   1_455 S
C24    C25     1.398   .     A
C24    H38     1.083   .     S
C25    C26     1.397   .     A
C25    H831    1.083   1_554 S
C26    C159    1.398   .     S
C26    H172    1.083   .     S
C27    H41     1.081   .     S
C27    C290    1.398   1_545 S
C27    C292    1.398   1_545 S
C28    H42     1.083   .     S
C28    C159    1.398   .     S
C29    H46     1.085   .     S
C29    C81     1.388   .     S
C30    C295    1.330   1_545 S
C30    H311    1.087   1_545 S
C31    C162    1.330   .     S
C31    H181    1.087   .     S
C32    O63     1.295   .     A
C32    O65     1.289   .     A
C33    O66     1.293   .     A
C33    O64     1.296   .     A
C34    H50     1.063   .     S
Cu35   O62     1.962   .     S
Cu35   O63     1.972   .     S
Cu35   N58     2.015   .     S
Cu35   O59     1.966   .     S
Cu35   O66     1.957   .     S
Cu35   Cu36    2.682   .     S
Cu36   O61     1.962   .     S
Cu36   O65     1.957   .     S
Cu36   N57     2.015   .     S
Cu36   O60     1.966   .     S
Cu36   O64     1.972   .     S
H37    N453    1.029   .     S
H39    C421    1.083   .     S
H40    C290    1.083   1_545 S
H47    C162    1.087   .     S
H48    N850    1.028   1_554 S
H49    C295    1.087   1_545 S
N57    H829    1.029   1_554 S
N57    N850    1.303   1_554 S
N58    N453    1.303   .     S
N58    H444    1.028   .     S
C67    C96     1.433   .     S
C67    O125    1.290   .     A
C67    O127    1.286   .     A
C68    C70     1.396   .     A
C68    H117    1.084   .     S
C68    C79     1.391   .     A
C69    C100    1.388   .     A
C69    C71     1.405   .     A
C69    C99     1.464   .     S
C70    C98     1.452   .     S
C70    C72     1.414   .     A
C71    C73     1.412   .     A
C71    C82     1.468   .     S
C72    C74     1.411   .     A
C72    C88     1.484   .     S
C73    C75     1.415   .     A
C73    C80     1.409   .     A
C74    C81     1.411   .     A
C74    C76     1.416   .     A
C75    C77     1.407   .     A
C75    C10     1.406   1_655 S
C76    C79     1.409   .     A
C77    C95     1.396   .     A
C77    C100    1.386   .     A
C78    O128    1.286   .     A
C78    C97     1.437   .     S
C78    O126    1.292   .     A
C79    C89     1.400   .     A
C80    H109    1.081   .     S
C80    C23     1.393   1_655 S
C81    H110    1.081   .     S
C82    C87     1.398   .     A
C82    C83     1.405   .     A
C83    H118    1.084   .     S
C83    C348    1.390   1_545 S
C84    C85     1.391   .     A
C84    H119    1.083   .     S
C84    C215    1.390   .     S
C85    C86     1.403   .     A
C85    H120    1.077   .     S
C86    H121    1.082   .     S
C86    C219    1.393   .     S
C87    H122    1.083   .     S
C87    C350    1.393   1_545 S
C88    C94     1.403   .     A
C88    C90     1.406   .     A
C89    H111    1.084   .     S
C90    C91     1.398   .     A
C90    H104    1.083   .     S
C91    C92     1.397   .     A
C91    H897    1.083   1_554 S
C92    C225    1.398   .     S
C92    H238    1.083   .     S
C93    H107    1.081   .     S
C93    C356    1.398   1_545 S
C93    C358    1.398   1_545 S
C94    H108    1.083   .     S
C94    C225    1.398   .     S
C95    H112    1.085   .     S
C95    C15     1.388   1_655 S
C96    C361    1.330   1_545 S
C96    H377    1.087   1_545 S
C97    C228    1.330   .     S
C97    H247    1.087   .     S
C98    O129    1.295   .     A
C98    O131    1.289   .     A
C99    O132    1.293   .     A
C99    O130    1.296   .     A
C100   H116    1.063   .     S
Cu101  O128    1.962   .     S
Cu101  O129    1.972   .     S
Cu101  N124    2.015   .     S
Cu101  O125    1.966   .     S
Cu101  O132    1.957   .     S
Cu101  Cu102   2.682   .     S
Cu102  O127    1.962   .     S
Cu102  O131    1.957   .     S
Cu102  N123    2.015   .     S
Cu102  O126    1.966   .     S
Cu102  O130    1.972   .     S
H103   N519    1.029   .     S
H105   C487    1.083   .     S
H106   C356    1.083   1_545 S
H113   C228    1.087   .     S
H114   N916    1.028   1_554 S
H115   C361    1.087   1_545 S
N123   H895    1.029   1_554 S
N123   N916    1.303   1_554 S
N124   N519    1.303   .     S
N124   H510    1.028   .     S
C133   C162    1.433   .     S
C133   O191    1.290   .     A
C133   O193    1.286   .     A
C134   C136    1.396   .     A
C134   H183    1.084   .     S
C134   C145    1.391   .     A
C135   C166    1.388   .     A
C135   C137    1.405   .     A
C135   C165    1.464   .     S
C136   C164    1.452   .     S
C136   C138    1.414   .     A
C137   C139    1.412   .     A
C137   C148    1.468   .     S
C138   C140    1.411   .     A
C138   C154    1.484   .     S
C139   C141    1.415   .     A
C139   C146    1.409   .     A
C140   C147    1.411   .     A
C140   C142    1.416   .     A
C141   C143    1.407   .     A
C141   C208    1.406   .     S
C142   C145    1.409   .     A
C142   C207    1.406   1_455 S
C143   C161    1.396   .     A
C143   C166    1.386   .     A
C144   O194    1.286   .     A
C144   C163    1.437   .     S
C144   O192    1.292   .     A
C145   C155    1.400   .     A
C146   H175    1.081   .     S
C146   C221    1.393   .     S
C147   H176    1.081   .     S
C147   C227    1.388   1_455 S
C148   C153    1.398   .     A
C148   C149    1.405   .     A
C149   H184    1.084   .     S
C150   C151    1.391   .     A
C150   H185    1.083   .     S
C150   C281    1.390   .     S
C151   C152    1.403   .     A
C151   H186    1.077   .     S
C152   H187    1.082   .     S
C152   C285    1.393   .     S
C153   H188    1.083   .     S
C154   C160    1.403   .     A
C154   C156    1.406   .     A
C155   H177    1.084   .     S
C155   C212    1.393   1_455 S
C156   C157    1.398   .     A
C156   H170    1.083   .     S
C157   C158    1.397   .     A
C157   H963    1.083   1_554 S
C158   C291    1.398   .     S
C158   H304    1.083   .     S
C159   H173    1.081   .     S
C160   H174    1.083   .     S
C160   C291    1.398   .     S
C161   H178    1.085   .     S
C161   C213    1.388   .     S
C163   C294    1.330   .     S
C163   H313    1.087   .     S
C164   O195    1.295   .     A
C164   O197    1.289   .     A
C165   O198    1.293   .     A
C165   O196    1.296   .     A
C166   H182    1.063   .     S
Cu167  O194    1.962   .     S
Cu167  O195    1.972   .     S
Cu167  N190    2.015   .     S
Cu167  O191    1.966   .     S
Cu167  O198    1.957   .     S
Cu167  Cu168   2.682   .     S
Cu168  O193    1.962   .     S
Cu168  O197    1.957   .     S
Cu168  N189    2.015   .     S
Cu168  O192    1.966   .     S
Cu168  O196    1.972   .     S
H169   N585    1.029   .     S
H171   C553    1.083   .     S
H179   C294    1.087   .     S
H180   N982    1.028   1_554 S
N189   H961    1.029   1_554 S
N189   N982    1.303   1_554 S
N190   N585    1.303   .     S
N190   H576    1.028   .     S
C199   C228    1.433   .     S
C199   O257    1.290   .     A
C199   O259    1.286   .     A
C200   C202    1.396   .     A
C200   H249    1.084   .     S
C200   C211    1.391   .     A
C201   C232    1.388   .     A
C201   C203    1.405   .     A
C201   C231    1.464   .     S
C202   C230    1.452   .     S
C202   C204    1.414   .     A
C203   C205    1.412   .     A
C203   C214    1.468   .     S
C204   C206    1.411   .     A
C204   C220    1.484   .     S
C205   C207    1.415   .     A
C205   C212    1.409   .     A
C206   C213    1.411   .     A
C206   C208    1.416   .     A
C207   C209    1.407   .     A
C207   C142    1.406   1_655 S
C208   C211    1.409   .     A
C209   C227    1.396   .     A
C209   C232    1.386   .     A
C210   O260    1.286   .     A
C210   C229    1.437   .     S
C210   O258    1.292   .     A
C211   C221    1.400   .     A
C212   H241    1.081   .     S
C212   C155    1.393   1_655 S
C213   H242    1.081   .     S
C214   C219    1.398   .     A
C214   C215    1.405   .     A
C215   H250    1.084   .     S
C216   C217    1.391   .     A
C216   H251    1.083   .     S
C216   C347    1.390   .     S
C217   C218    1.403   .     A
C217   H252    1.077   .     S
C218   H253    1.082   .     S
C218   C351    1.393   .     S
C219   H254    1.083   .     S
C220   C226    1.403   .     A
C220   C222    1.406   .     A
C221   H243    1.084   .     S
C222   C223    1.398   .     A
C222   H236    1.083   .     S
C223   C224    1.397   .     A
C223   H1029   1.083   1_554 S
C224   C357    1.398   .     S
C224   H370    1.083   .     S
C225   H239    1.081   .     S
C226   H240    1.083   .     S
C226   C357    1.398   .     S
C227   H244    1.085   .     S
C227   C147    1.388   1_655 S
C229   C360    1.330   .     S
C229   H379    1.087   .     S
C230   O261    1.295   .     A
C230   O263    1.289   .     A
C231   O264    1.293   .     A
C231   O262    1.296   .     A
C232   H248    1.063   .     S
Cu233  O260    1.962   .     S
Cu233  O261    1.972   .     S
Cu233  N256    2.015   .     S
Cu233  O257    1.966   .     S
Cu233  O264    1.957   .     S
Cu233  Cu234   2.682   .     S
Cu234  O259    1.962   .     S
Cu234  O263    1.957   .     S
Cu234  N255    2.015   .     S
Cu234  O258    1.966   .     S
Cu234  O262    1.972   .     S
H235   N651    1.029   .     S
H237   C619    1.083   .     S
H245   C360    1.087   .     S
H246   N1048   1.028   1_554 S
N255   H1027   1.029   1_554 S
N255   N1048   1.303   1_554 S
N256   N651    1.303   .     S
N256   H642    1.028   .     S
C265   C294    1.433   .     S
C265   O323    1.290   .     A
C265   O325    1.286   .     A
C266   C268    1.396   .     A
C266   H315    1.084   .     S
C266   C277    1.391   .     A
C267   C298    1.388   .     A
C267   C269    1.405   .     A
C267   C297    1.464   .     S
C268   C296    1.452   .     S
C268   C270    1.414   .     A
C269   C271    1.412   .     A
C269   C280    1.468   .     S
C270   C272    1.411   .     A
C270   C286    1.484   .     S
C271   C273    1.415   .     A
C271   C278    1.409   .     A
C272   C279    1.411   .     A
C272   C274    1.416   .     A
C273   C275    1.407   .     A
C273   C340    1.406   .     S
C274   C277    1.409   .     A
C274   C339    1.406   1_455 S
C275   C293    1.396   .     A
C275   C298    1.386   .     A
C276   O326    1.286   .     A
C276   C295    1.437   .     S
C276   O324    1.292   .     A
C277   C287    1.400   .     A
C278   H307    1.081   .     S
C278   C353    1.393   .     S
C279   H308    1.081   .     S
C279   C359    1.388   1_455 S
C280   C285    1.398   .     A
C280   C281    1.405   .     A
C281   H316    1.084   .     S
C282   C283    1.391   .     A
C282   H317    1.083   .     S
C282   C17     1.390   1_565 S
C283   C284    1.403   .     A
C283   H318    1.077   .     S
C284   H319    1.082   .     S
C284   C21     1.393   1_565 S
C285   H320    1.083   .     S
C286   C292    1.403   .     A
C286   C288    1.406   .     A
C287   H309    1.084   .     S
C287   C344    1.393   1_455 S
C288   C289    1.398   .     A
C288   H302    1.083   .     S
C289   C290    1.397   .     A
C289   H1095   1.083   1_554 S
C290   C27     1.398   1_565 S
C290   H40     1.083   1_565 S
C291   H305    1.081   .     S
C292   H306    1.083   .     S
C292   C27     1.398   1_565 S
C293   H310    1.085   .     S
C293   C345    1.388   .     S
C295   C30     1.330   1_565 S
C295   H49     1.087   1_565 S
C296   O327    1.295   .     A
C296   O329    1.289   .     A
C297   O330    1.293   .     A
C297   O328    1.296   .     A
C298   H314    1.063   .     S
Cu299  O326    1.962   .     S
Cu299  O327    1.972   .     S
Cu299  N322    2.015   .     S
Cu299  O323    1.966   .     S
Cu299  O330    1.957   .     S
Cu299  Cu300   2.682   .     S
Cu300  O325    1.962   .     S
Cu300  O329    1.957   .     S
Cu300  N321    2.015   .     S
Cu300  O324    1.966   .     S
Cu300  O328    1.972   .     S
H301   N717    1.029   .     S
H303   C685    1.083   .     S
H311   C30     1.087   1_565 S
H312   N1114   1.028   1_554 S
N321   H1093   1.029   1_554 S
N321   N1114   1.303   1_554 S
N322   N717    1.303   .     S
N322   H708    1.028   .     S
C331   C360    1.433   .     S
C331   O389    1.290   .     A
C331   O391    1.286   .     A
C332   C334    1.396   .     A
C332   H381    1.084   .     S
C332   C343    1.391   .     A
C333   C364    1.388   .     A
C333   C335    1.405   .     A
C333   C363    1.464   .     S
C334   C362    1.452   .     S
C334   C336    1.414   .     A
C335   C337    1.412   .     A
C335   C346    1.468   .     S
C336   C338    1.411   .     A
C336   C352    1.484   .     S
C337   C339    1.415   .     A
C337   C344    1.409   .     A
C338   C345    1.411   .     A
C338   C340    1.416   .     A
C339   C341    1.407   .     A
C339   C274    1.406   1_655 S
C340   C343    1.409   .     A
C341   C359    1.396   .     A
C341   C364    1.386   .     A
C342   O392    1.286   .     A
C342   C361    1.437   .     S
C342   O390    1.292   .     A
C343   C353    1.400   .     A
C344   H373    1.081   .     S
C344   C287    1.393   1_655 S
C345   H374    1.081   .     S
C346   C351    1.398   .     A
C346   C347    1.405   .     A
C347   H382    1.084   .     S
C348   C349    1.391   .     A
C348   H383    1.083   .     S
C348   C83     1.390   1_565 S
C349   C350    1.403   .     A
C349   H384    1.077   .     S
C350   H385    1.082   .     S
C350   C87     1.393   1_565 S
C351   H386    1.083   .     S
C352   C358    1.403   .     A
C352   C354    1.406   .     A
C353   H375    1.084   .     S
C354   C355    1.398   .     A
C354   H368    1.083   .     S
C355   C356    1.397   .     A
C355   H1161   1.083   1_554 S
C356   C93     1.398   1_565 S
C356   H106    1.083   1_565 S
C357   H371    1.081   .     S
C358   H372    1.083   .     S
C358   C93     1.398   1_565 S
C359   H376    1.085   .     S
C359   C279    1.388   1_655 S
C361   C96     1.330   1_565 S
C361   H115    1.087   1_565 S
C362   O393    1.295   .     A
C362   O395    1.289   .     A
C363   O396    1.293   .     A
C363   O394    1.296   .     A
C364   H380    1.063   .     S
Cu365  O392    1.962   .     S
Cu365  O393    1.972   .     S
Cu365  N388    2.015   .     S
Cu365  O389    1.966   .     S
Cu365  O396    1.957   .     S
Cu365  Cu366   2.682   .     S
Cu366  O391    1.962   .     S
Cu366  O395    1.957   .     S
Cu366  N387    2.015   .     S
Cu366  O390    1.966   .     S
Cu366  O394    1.972   .     S
H367   N783    1.029   .     S
H369   C751    1.083   .     S
H377   C96     1.087   1_565 S
H378   N1180   1.028   1_554 S
N387   H1159   1.029   1_554 S
N387   N1180   1.303   1_554 S
N388   N783    1.303   .     S
N388   H774    1.028   .     S
C397   C426    1.433   .     S
C397   O455    1.290   .     A
C397   O457    1.286   .     A
C398   C400    1.396   .     A
C398   H447    1.084   .     S
C398   C409    1.391   .     A
C399   C430    1.388   .     A
C399   C401    1.405   .     A
C399   C429    1.464   .     S
C400   C428    1.452   .     S
C400   C402    1.414   .     A
C401   C403    1.412   .     A
C401   C412    1.468   .     S
C402   C404    1.411   .     A
C402   C418    1.484   .     S
C403   C405    1.415   .     A
C403   C410    1.409   .     A
C404   C411    1.411   .     A
C404   C406    1.416   .     A
C405   C407    1.407   .     A
C405   C472    1.406   .     S
C406   C409    1.409   .     A
C406   C471    1.406   1_455 S
C407   C425    1.396   .     A
C407   C430    1.386   .     A
C408   O458    1.286   .     A
C408   C427    1.437   .     S
C408   O456    1.292   .     A
C409   C419    1.400   .     A
C410   H439    1.081   .     S
C410   C485    1.393   .     S
C411   H440    1.081   .     S
C411   C491    1.388   1_455 S
C412   C417    1.398   .     A
C412   C413    1.405   .     A
C413   H448    1.084   .     S
C413   C678    1.390   1_545 S
C414   C415    1.391   .     A
C414   H449    1.083   .     S
C414   C545    1.390   .     S
C415   C416    1.403   .     A
C415   H450    1.077   .     S
C416   H451    1.082   .     S
C416   C549    1.393   .     S
C417   H452    1.083   .     S
C417   C680    1.393   1_545 S
C418   C424    1.403   .     A
C418   C420    1.406   .     A
C419   H441    1.084   .     S
C419   C476    1.393   1_455 S
C420   C421    1.398   .     A
C420   H434    1.083   .     S
C421   C422    1.397   .     A
C422   C555    1.398   .     S
C422   H568    1.083   .     S
C423   H437    1.081   .     S
C423   C686    1.398   1_545 S
C423   C688    1.398   1_545 S
C424   H438    1.083   .     S
C424   C555    1.398   .     S
C425   H442    1.085   .     S
C425   C477    1.388   .     S
C426   C691    1.330   1_545 S
C426   H707    1.087   1_545 S
C427   C558    1.330   .     S
C427   H577    1.087   .     S
C428   O459    1.295   .     A
C428   O461    1.289   .     A
C429   O462    1.293   .     A
C429   O460    1.296   .     A
C430   H446    1.063   .     S
Cu431  O458    1.962   .     S
Cu431  O459    1.972   .     S
Cu431  N454    2.015   .     S
Cu431  O455    1.966   .     S
Cu431  O462    1.957   .     S
Cu431  Cu432   2.682   .     S
Cu432  O457    1.962   .     S
Cu432  O461    1.957   .     S
Cu432  N453    2.015   .     S
Cu432  O456    1.966   .     S
Cu432  O460    1.972   .     S
H433   N849    1.029   .     S
H435   C817    1.083   .     S
H436   C686    1.083   1_545 S
H443   C558    1.087   .     S
H445   C691    1.087   1_545 S
N454   N849    1.303   .     S
N454   H840    1.028   .     S
C463   C492    1.433   .     S
C463   O521    1.290   .     A
C463   O523    1.286   .     A
C464   C466    1.396   .     A
C464   H513    1.084   .     S
C464   C475    1.391   .     A
C465   C496    1.388   .     A
C465   C467    1.405   .     A
C465   C495    1.464   .     S
C466   C494    1.452   .     S
C466   C468    1.414   .     A
C467   C469    1.412   .     A
C467   C478    1.468   .     S
C468   C470    1.411   .     A
C468   C484    1.484   .     S
C469   C471    1.415   .     A
C469   C476    1.409   .     A
C470   C477    1.411   .     A
C470   C472    1.416   .     A
C471   C473    1.407   .     A
C471   C406    1.406   1_655 S
C472   C475    1.409   .     A
C473   C491    1.396   .     A
C473   C496    1.386   .     A
C474   O524    1.286   .     A
C474   C493    1.437   .     S
C474   O522    1.292   .     A
C475   C485    1.400   .     A
C476   H505    1.081   .     S
C476   C419    1.393   1_655 S
C477   H506    1.081   .     S
C478   C483    1.398   .     A
C478   C479    1.405   .     A
C479   H514    1.084   .     S
C479   C744    1.390   1_545 S
C480   C481    1.391   .     A
C480   H515    1.083   .     S
C480   C611    1.390   .     S
C481   C482    1.403   .     A
C481   H516    1.077   .     S
C482   H517    1.082   .     S
C482   C615    1.393   .     S
C483   H518    1.083   .     S
C483   C746    1.393   1_545 S
C484   C490    1.403   .     A
C484   C486    1.406   .     A
C485   H507    1.084   .     S
C486   C487    1.398   .     A
C486   H500    1.083   .     S
C487   C488    1.397   .     A
C488   C621    1.398   .     S
C488   H634    1.083   .     S
C489   H503    1.081   .     S
C489   C752    1.398   1_545 S
C489   C754    1.398   1_545 S
C490   H504    1.083   .     S
C490   C621    1.398   .     S
C491   H508    1.085   .     S
C491   C411    1.388   1_655 S
C492   C757    1.330   1_545 S
C492   H773    1.087   1_545 S
C493   C624    1.330   .     S
C493   H643    1.087   .     S
C494   O525    1.295   .     A
C494   O527    1.289   .     A
C495   O528    1.293   .     A
C495   O526    1.296   .     A
C496   H512    1.063   .     S
Cu497  O524    1.962   .     S
Cu497  O525    1.972   .     S
Cu497  N520    2.015   .     S
Cu497  O521    1.966   .     S
Cu497  O528    1.957   .     S
Cu497  Cu498   2.682   .     S
Cu498  O523    1.962   .     S
Cu498  O527    1.957   .     S
Cu498  N519    2.015   .     S
Cu498  O522    1.966   .     S
Cu498  O526    1.972   .     S
H499   N915    1.029   .     S
H501   C883    1.083   .     S
H502   C752    1.083   1_545 S
H509   C624    1.087   .     S
H511   C757    1.087   1_545 S
N520   N915    1.303   .     S
N520   H906    1.028   .     S
C529   C558    1.433   .     S
C529   O587    1.290   .     A
C529   O589    1.286   .     A
C530   C532    1.396   .     A
C530   H579    1.084   .     S
C530   C541    1.391   .     A
C531   C562    1.388   .     A
C531   C533    1.405   .     A
C531   C561    1.464   .     S
C532   C560    1.452   .     S
C532   C534    1.414   .     A
C533   C535    1.412   .     A
C533   C544    1.468   .     S
C534   C536    1.411   .     A
C534   C550    1.484   .     S
C535   C537    1.415   .     A
C535   C542    1.409   .     A
C536   C543    1.411   .     A
C536   C538    1.416   .     A
C537   C539    1.407   .     A
C537   C604    1.406   .     S
C538   C541    1.409   .     A
C538   C603    1.406   1_455 S
C539   C557    1.396   .     A
C539   C562    1.386   .     A
C540   O590    1.286   .     A
C540   C559    1.437   .     S
C540   O588    1.292   .     A
C541   C551    1.400   .     A
C542   H571    1.081   .     S
C542   C617    1.393   .     S
C543   H572    1.081   .     S
C543   C623    1.388   1_455 S
C544   C549    1.398   .     A
C544   C545    1.405   .     A
C545   H580    1.084   .     S
C546   C547    1.391   .     A
C546   H581    1.083   .     S
C546   C677    1.390   .     S
C547   C548    1.403   .     A
C547   H582    1.077   .     S
C548   H583    1.082   .     S
C548   C681    1.393   .     S
C549   H584    1.083   .     S
C550   C556    1.403   .     A
C550   C552    1.406   .     A
C551   H573    1.084   .     S
C551   C608    1.393   1_455 S
C552   C553    1.398   .     A
C552   H566    1.083   .     S
C553   C554    1.397   .     A
C554   C687    1.398   .     S
C554   H700    1.083   .     S
C555   H569    1.081   .     S
C556   H570    1.083   .     S
C556   C687    1.398   .     S
C557   H574    1.085   .     S
C557   C609    1.388   .     S
C559   C690    1.330   .     S
C559   H709    1.087   .     S
C560   O591    1.295   .     A
C560   O593    1.289   .     A
C561   O594    1.293   .     A
C561   O592    1.296   .     A
C562   H578    1.063   .     S
Cu563  O590    1.962   .     S
Cu563  O591    1.972   .     S
Cu563  N586    2.015   .     S
Cu563  O587    1.966   .     S
Cu563  O594    1.957   .     S
Cu563  Cu564   2.682   .     S
Cu564  O589    1.962   .     S
Cu564  O593    1.957   .     S
Cu564  N585    2.015   .     S
Cu564  O588    1.966   .     S
Cu564  O592    1.972   .     S
H565   N981    1.029   .     S
H567   C949    1.083   .     S
H575   C690    1.087   .     S
N586   N981    1.303   .     S
N586   H972    1.028   .     S
C595   C624    1.433   .     S
C595   O653    1.290   .     A
C595   O655    1.286   .     A
C596   C598    1.396   .     A
C596   H645    1.084   .     S
C596   C607    1.391   .     A
C597   C628    1.388   .     A
C597   C599    1.405   .     A
C597   C627    1.464   .     S
C598   C626    1.452   .     S
C598   C600    1.414   .     A
C599   C601    1.412   .     A
C599   C610    1.468   .     S
C600   C602    1.411   .     A
C600   C616    1.484   .     S
C601   C603    1.415   .     A
C601   C608    1.409   .     A
C602   C609    1.411   .     A
C602   C604    1.416   .     A
C603   C605    1.407   .     A
C603   C538    1.406   1_655 S
C604   C607    1.409   .     A
C605   C623    1.396   .     A
C605   C628    1.386   .     A
C606   O656    1.286   .     A
C606   C625    1.437   .     S
C606   O654    1.292   .     A
C607   C617    1.400   .     A
C608   H637    1.081   .     S
C608   C551    1.393   1_655 S
C609   H638    1.081   .     S
C610   C615    1.398   .     A
C610   C611    1.405   .     A
C611   H646    1.084   .     S
C612   C613    1.391   .     A
C612   H647    1.083   .     S
C612   C743    1.390   .     S
C613   C614    1.403   .     A
C613   H648    1.077   .     S
C614   H649    1.082   .     S
C614   C747    1.393   .     S
C615   H650    1.083   .     S
C616   C622    1.403   .     A
C616   C618    1.406   .     A
C617   H639    1.084   .     S
C618   C619    1.398   .     A
C618   H632    1.083   .     S
C619   C620    1.397   .     A
C620   C753    1.398   .     S
C620   H766    1.083   .     S
C621   H635    1.081   .     S
C622   H636    1.083   .     S
C622   C753    1.398   .     S
C623   H640    1.085   .     S
C623   C543    1.388   1_655 S
C625   C756    1.330   .     S
C625   H775    1.087   .     S
C626   O657    1.295   .     A
C626   O659    1.289   .     A
C627   O660    1.293   .     A
C627   O658    1.296   .     A
C628   H644    1.063   .     S
Cu629  O656    1.962   .     S
Cu629  O657    1.972   .     S
Cu629  N652    2.015   .     S
Cu629  O653    1.966   .     S
Cu629  O660    1.957   .     S
Cu629  Cu630   2.682   .     S
Cu630  O655    1.962   .     S
Cu630  O659    1.957   .     S
Cu630  N651    2.015   .     S
Cu630  O654    1.966   .     S
Cu630  O658    1.972   .     S
H631   N1047   1.029   .     S
H633   C1015   1.083   .     S
H641   C756    1.087   .     S
N652   N1047   1.303   .     S
N652   H1038   1.028   .     S
C661   C690    1.433   .     S
C661   O719    1.290   .     A
C661   O721    1.286   .     A
C662   C664    1.396   .     A
C662   H711    1.084   .     S
C662   C673    1.391   .     A
C663   C694    1.388   .     A
C663   C665    1.405   .     A
C663   C693    1.464   .     S
C664   C692    1.452   .     S
C664   C666    1.414   .     A
C665   C667    1.412   .     A
C665   C676    1.468   .     S
C666   C668    1.411   .     A
C666   C682    1.484   .     S
C667   C669    1.415   .     A
C667   C674    1.409   .     A
C668   C675    1.411   .     A
C668   C670    1.416   .     A
C669   C671    1.407   .     A
C669   C736    1.406   .     S
C670   C673    1.409   .     A
C670   C735    1.406   1_455 S
C671   C689    1.396   .     A
C671   C694    1.386   .     A
C672   O722    1.286   .     A
C672   C691    1.437   .     S
C672   O720    1.292   .     A
C673   C683    1.400   .     A
C674   H703    1.081   .     S
C674   C749    1.393   .     S
C675   H704    1.081   .     S
C675   C755    1.388   1_455 S
C676   C681    1.398   .     A
C676   C677    1.405   .     A
C677   H712    1.084   .     S
C678   C679    1.391   .     A
C678   H713    1.083   .     S
C678   C413    1.390   1_565 S
C679   C680    1.403   .     A
C679   H714    1.077   .     S
C680   H715    1.082   .     S
C680   C417    1.393   1_565 S
C681   H716    1.083   .     S
C682   C688    1.403   .     A
C682   C684    1.406   .     A
C683   H705    1.084   .     S
C683   C740    1.393   1_455 S
C684   C685    1.398   .     A
C684   H698    1.083   .     S
C685   C686    1.397   .     A
C686   C423    1.398   1_565 S
C686   H436    1.083   1_565 S
C687   H701    1.081   .     S
C688   H702    1.083   .     S
C688   C423    1.398   1_565 S
C689   H706    1.085   .     S
C689   C741    1.388   .     S
C691   C426    1.330   1_565 S
C691   H445    1.087   1_565 S
C692   O723    1.295   .     A
C692   O725    1.289   .     A
C693   O726    1.293   .     A
C693   O724    1.296   .     A
C694   H710    1.063   .     S
Cu695  O722    1.962   .     S
Cu695  O723    1.972   .     S
Cu695  N718    2.015   .     S
Cu695  O719    1.966   .     S
Cu695  O726    1.957   .     S
Cu695  Cu696   2.682   .     S
Cu696  O721    1.962   .     S
Cu696  O725    1.957   .     S
Cu696  N717    2.015   .     S
Cu696  O720    1.966   .     S
Cu696  O724    1.972   .     S
H697   N1113   1.029   .     S
H699   C1081   1.083   .     S
H707   C426    1.087   1_565 S
N718   N1113   1.303   .     S
N718   H1104   1.028   .     S
C727   C756    1.433   .     S
C727   O785    1.290   .     A
C727   O787    1.286   .     A
C728   C730    1.396   .     A
C728   H777    1.084   .     S
C728   C739    1.391   .     A
C729   C760    1.388   .     A
C729   C731    1.405   .     A
C729   C759    1.464   .     S
C730   C758    1.452   .     S
C730   C732    1.414   .     A
C731   C733    1.412   .     A
C731   C742    1.468   .     S
C732   C734    1.411   .     A
C732   C748    1.484   .     S
C733   C735    1.415   .     A
C733   C740    1.409   .     A
C734   C741    1.411   .     A
C734   C736    1.416   .     A
C735   C737    1.407   .     A
C735   C670    1.406   1_655 S
C736   C739    1.409   .     A
C737   C755    1.396   .     A
C737   C760    1.386   .     A
C738   O788    1.286   .     A
C738   C757    1.437   .     S
C738   O786    1.292   .     A
C739   C749    1.400   .     A
C740   H769    1.081   .     S
C740   C683    1.393   1_655 S
C741   H770    1.081   .     S
C742   C747    1.398   .     A
C742   C743    1.405   .     A
C743   H778    1.084   .     S
C744   C745    1.391   .     A
C744   H779    1.083   .     S
C744   C479    1.390   1_565 S
C745   C746    1.403   .     A
C745   H780    1.077   .     S
C746   H781    1.082   .     S
C746   C483    1.393   1_565 S
C747   H782    1.083   .     S
C748   C754    1.403   .     A
C748   C750    1.406   .     A
C749   H771    1.084   .     S
C750   C751    1.398   .     A
C750   H764    1.083   .     S
C751   C752    1.397   .     A
C752   C489    1.398   1_565 S
C752   H502    1.083   1_565 S
C753   H767    1.081   .     S
C754   H768    1.083   .     S
C754   C489    1.398   1_565 S
C755   H772    1.085   .     S
C755   C675    1.388   1_655 S
C757   C492    1.330   1_565 S
C757   H511    1.087   1_565 S
C758   O789    1.295   .     A
C758   O791    1.289   .     A
C759   O792    1.293   .     A
C759   O790    1.296   .     A
C760   H776    1.063   .     S
Cu761  O788    1.962   .     S
Cu761  O789    1.972   .     S
Cu761  N784    2.015   .     S
Cu761  O785    1.966   .     S
Cu761  O792    1.957   .     S
Cu761  Cu762   2.682   .     S
Cu762  O787    1.962   .     S
Cu762  O791    1.957   .     S
Cu762  N783    2.015   .     S
Cu762  O786    1.966   .     S
Cu762  O790    1.972   .     S
H763   N1179   1.029   .     S
H765   C1147   1.083   .     S
H773   C492    1.087   1_565 S
N784   N1179   1.303   .     S
N784   H1170   1.028   .     S
C793   C822    1.433   .     S
C793   O851    1.290   .     A
C793   O853    1.286   .     A
C794   C796    1.396   .     A
C794   H843    1.084   .     S
C794   C805    1.391   .     A
C795   C826    1.388   .     A
C795   C797    1.405   .     A
C795   C825    1.464   .     S
C796   C824    1.452   .     S
C796   C798    1.414   .     A
C797   C799    1.412   .     A
C797   C808    1.468   .     S
C798   C800    1.411   .     A
C798   C814    1.484   .     S
C799   C801    1.415   .     A
C799   C806    1.409   .     A
C800   C807    1.411   .     A
C800   C802    1.416   .     A
C801   C803    1.407   .     A
C801   C868    1.406   .     S
C802   C805    1.409   .     A
C802   C867    1.406   1_455 S
C803   C821    1.396   .     A
C803   C826    1.386   .     A
C804   O854    1.286   .     A
C804   C823    1.437   .     S
C804   O852    1.292   .     A
C805   C815    1.400   .     A
C806   H835    1.081   .     S
C806   C881    1.393   .     S
C807   H836    1.081   .     S
C807   C887    1.388   1_455 S
C808   C813    1.398   .     A
C808   C809    1.405   .     A
C809   H844    1.084   .     S
C809   C1074   1.390   1_545 S
C810   C811    1.391   .     A
C810   H845    1.083   .     S
C810   C941    1.390   .     S
C811   C812    1.403   .     A
C811   H846    1.077   .     S
C812   H847    1.082   .     S
C812   C945    1.393   .     S
C813   H848    1.083   .     S
C813   C1076   1.393   1_545 S
C814   C820    1.403   .     A
C814   C816    1.406   .     A
C815   H837    1.084   .     S
C815   C872    1.393   1_455 S
C816   C817    1.398   .     A
C816   H830    1.083   .     S
C817   C818    1.397   .     A
C818   C951    1.398   .     S
C818   H964    1.083   .     S
C819   H833    1.081   .     S
C819   C1082   1.398   1_545 S
C819   C1084   1.398   1_545 S
C820   H834    1.083   .     S
C820   C951    1.398   .     S
C821   H838    1.085   .     S
C821   C873    1.388   .     S
C822   C1087   1.330   1_545 S
C822   H1103   1.087   1_545 S
C823   C954    1.330   .     S
C823   H973    1.087   .     S
C824   O855    1.295   .     A
C824   O857    1.289   .     A
C825   O858    1.293   .     A
C825   O856    1.296   .     A
C826   H842    1.063   .     S
Cu827  O854    1.962   .     S
Cu827  O855    1.972   .     S
Cu827  N850    2.015   .     S
Cu827  O851    1.966   .     S
Cu827  O858    1.957   .     S
Cu827  Cu828   2.682   .     S
Cu828  O853    1.962   .     S
Cu828  O857    1.957   .     S
Cu828  N849    2.015   .     S
Cu828  O852    1.966   .     S
Cu828  O856    1.972   .     S
H829   N57     1.029   1_556 S
H831   C25     1.083   1_556 S
H832   C1082   1.083   1_545 S
H839   C954    1.087   .     S
H841   C1087   1.087   1_545 S
N850   N57     1.303   1_556 S
N850   H48     1.028   1_556 S
C859   C888    1.433   .     S
C859   O917    1.290   .     A
C859   O919    1.286   .     A
C860   C862    1.396   .     A
C860   H909    1.084   .     S
C860   C871    1.391   .     A
C861   C892    1.388   .     A
C861   C863    1.405   .     A
C861   C891    1.464   .     S
C862   C890    1.452   .     S
C862   C864    1.414   .     A
C863   C865    1.412   .     A
C863   C874    1.468   .     S
C864   C866    1.411   .     A
C864   C880    1.484   .     S
C865   C867    1.415   .     A
C865   C872    1.409   .     A
C866   C873    1.411   .     A
C866   C868    1.416   .     A
C867   C869    1.407   .     A
C867   C802    1.406   1_655 S
C868   C871    1.409   .     A
C869   C887    1.396   .     A
C869   C892    1.386   .     A
C870   O920    1.286   .     A
C870   C889    1.437   .     S
C870   O918    1.292   .     A
C871   C881    1.400   .     A
C872   H901    1.081   .     S
C872   C815    1.393   1_655 S
C873   H902    1.081   .     S
C874   C879    1.398   .     A
C874   C875    1.405   .     A
C875   H910    1.084   .     S
C875   C1140   1.390   1_545 S
C876   C877    1.391   .     A
C876   H911    1.083   .     S
C876   C1007   1.390   .     S
C877   C878    1.403   .     A
C877   H912    1.077   .     S
C878   H913    1.082   .     S
C878   C1011   1.393   .     S
C879   H914    1.083   .     S
C879   C1142   1.393   1_545 S
C880   C886    1.403   .     A
C880   C882    1.406   .     A
C881   H903    1.084   .     S
C882   C883    1.398   .     A
C882   H896    1.083   .     S
C883   C884    1.397   .     A
C884   C1017   1.398   .     S
C884   H1030   1.083   .     S
C885   H899    1.081   .     S
C885   C1148   1.398   1_545 S
C885   C1150   1.398   1_545 S
C886   H900    1.083   .     S
C886   C1017   1.398   .     S
C887   H904    1.085   .     S
C887   C807    1.388   1_655 S
C888   C1153   1.330   1_545 S
C888   H1169   1.087   1_545 S
C889   C1020   1.330   .     S
C889   H1039   1.087   .     S
C890   O921    1.295   .     A
C890   O923    1.289   .     A
C891   O924    1.293   .     A
C891   O922    1.296   .     A
C892   H908    1.063   .     S
Cu893  O920    1.962   .     S
Cu893  O921    1.972   .     S
Cu893  N916    2.015   .     S
Cu893  O917    1.966   .     S
Cu893  O924    1.957   .     S
Cu893  Cu894   2.682   .     S
Cu894  O919    1.962   .     S
Cu894  O923    1.957   .     S
Cu894  N915    2.015   .     S
Cu894  O918    1.966   .     S
Cu894  O922    1.972   .     S
H895   N123    1.029   1_556 S
H897   C91     1.083   1_556 S
H898   C1148   1.083   1_545 S
H905   C1020   1.087   .     S
H907   C1153   1.087   1_545 S
N916   N123    1.303   1_556 S
N916   H114    1.028   1_556 S
C925   C954    1.433   .     S
C925   O983    1.290   .     A
C925   O985    1.286   .     A
C926   C928    1.396   .     A
C926   H975    1.084   .     S
C926   C937    1.391   .     A
C927   C958    1.388   .     A
C927   C929    1.405   .     A
C927   C957    1.464   .     S
C928   C956    1.452   .     S
C928   C930    1.414   .     A
C929   C931    1.412   .     A
C929   C940    1.468   .     S
C930   C932    1.411   .     A
C930   C946    1.484   .     S
C931   C933    1.415   .     A
C931   C938    1.409   .     A
C932   C939    1.411   .     A
C932   C934    1.416   .     A
C933   C935    1.407   .     A
C933   C1000   1.406   .     S
C934   C937    1.409   .     A
C934   C999    1.406   1_455 S
C935   C953    1.396   .     A
C935   C958    1.386   .     A
C936   O986    1.286   .     A
C936   C955    1.437   .     S
C936   O984    1.292   .     A
C937   C947    1.400   .     A
C938   H967    1.081   .     S
C938   C1013   1.393   .     S
C939   H968    1.081   .     S
C939   C1019   1.388   1_455 S
C940   C945    1.398   .     A
C940   C941    1.405   .     A
C941   H976    1.084   .     S
C942   C943    1.391   .     A
C942   H977    1.083   .     S
C942   C1073   1.390   .     S
C943   C944    1.403   .     A
C943   H978    1.077   .     S
C944   H979    1.082   .     S
C944   C1077   1.393   .     S
C945   H980    1.083   .     S
C946   C952    1.403   .     A
C946   C948    1.406   .     A
C947   H969    1.084   .     S
C947   C1004   1.393   1_455 S
C948   C949    1.398   .     A
C948   H962    1.083   .     S
C949   C950    1.397   .     A
C950   C1083   1.398   .     S
C950   H1096   1.083   .     S
C951   H965    1.081   .     S
C952   H966    1.083   .     S
C952   C1083   1.398   .     S
C953   H970    1.085   .     S
C953   C1005   1.388   .     S
C955   C1086   1.330   .     S
C955   H1105   1.087   .     S
C956   O987    1.295   .     A
C956   O989    1.289   .     A
C957   O990    1.293   .     A
C957   O988    1.296   .     A
C958   H974    1.063   .     S
Cu959  O986    1.962   .     S
Cu959  O987    1.972   .     S
Cu959  N982    2.015   .     S
Cu959  O983    1.966   .     S
Cu959  O990    1.957   .     S
Cu959  Cu960   2.682   .     S
Cu960  O985    1.962   .     S
Cu960  O989    1.957   .     S
Cu960  N981    2.015   .     S
Cu960  O984    1.966   .     S
Cu960  O988    1.972   .     S
H961   N189    1.029   1_556 S
H963   C157    1.083   1_556 S
H971   C1086   1.087   .     S
N982   N189    1.303   1_556 S
N982   H180    1.028   1_556 S
C991   C1020   1.433   .     S
C991   O1049   1.290   .     A
C991   O1051   1.286   .     A
C992   C994    1.396   .     A
C992   H1041   1.084   .     S
C992   C1003   1.391   .     A
C993   C1024   1.388   .     A
C993   C995    1.405   .     A
C993   C1023   1.464   .     S
C994   C1022   1.452   .     S
C994   C996    1.414   .     A
C995   C997    1.412   .     A
C995   C1006   1.468   .     S
C996   C998    1.411   .     A
C996   C1012   1.484   .     S
C997   C999    1.415   .     A
C997   C1004   1.409   .     A
C998   C1005   1.411   .     A
C998   C1000   1.416   .     A
C999   C1001   1.407   .     A
C999   C934    1.406   1_655 S
C1000  C1003   1.409   .     A
C1001  C1019   1.396   .     A
C1001  C1024   1.386   .     A
C1002  O1052   1.286   .     A
C1002  C1021   1.437   .     S
C1002  O1050   1.292   .     A
C1003  C1013   1.400   .     A
C1004  H1033   1.081   .     S
C1004  C947    1.393   1_655 S
C1005  H1034   1.081   .     S
C1006  C1011   1.398   .     A
C1006  C1007   1.405   .     A
C1007  H1042   1.084   .     S
C1008  C1009   1.391   .     A
C1008  H1043   1.083   .     S
C1008  C1139   1.390   .     S
C1009  C1010   1.403   .     A
C1009  H1044   1.077   .     S
C1010  H1045   1.082   .     S
C1010  C1143   1.393   .     S
C1011  H1046   1.083   .     S
C1012  C1018   1.403   .     A
C1012  C1014   1.406   .     A
C1013  H1035   1.084   .     S
C1014  C1015   1.398   .     A
C1014  H1028   1.083   .     S
C1015  C1016   1.397   .     A
C1016  C1149   1.398   .     S
C1016  H1162   1.083   .     S
C1017  H1031   1.081   .     S
C1018  H1032   1.083   .     S
C1018  C1149   1.398   .     S
C1019  H1036   1.085   .     S
C1019  C939    1.388   1_655 S
C1021  C1152   1.330   .     S
C1021  H1171   1.087   .     S
C1022  O1053   1.295   .     A
C1022  O1055   1.289   .     A
C1023  O1056   1.293   .     A
C1023  O1054   1.296   .     A
C1024  H1040   1.063   .     S
Cu1025 O1052   1.962   .     S
Cu1025 O1053   1.972   .     S
Cu1025 N1048   2.015   .     S
Cu1025 O1049   1.966   .     S
Cu1025 O1056   1.957   .     S
Cu1025 Cu1026  2.682   .     S
Cu1026 O1051   1.962   .     S
Cu1026 O1055   1.957   .     S
Cu1026 N1047   2.015   .     S
Cu1026 O1050   1.966   .     S
Cu1026 O1054   1.972   .     S
H1027  N255    1.029   1_556 S
H1029  C223    1.083   1_556 S
H1037  C1152   1.087   .     S
N1048  N255    1.303   1_556 S
N1048  H246    1.028   1_556 S
C1057  C1086   1.433   .     S
C1057  O1115   1.290   .     A
C1057  O1117   1.286   .     A
C1058  C1060   1.396   .     A
C1058  H1107   1.084   .     S
C1058  C1069   1.391   .     A
C1059  C1090   1.388   .     A
C1059  C1061   1.405   .     A
C1059  C1089   1.464   .     S
C1060  C1088   1.452   .     S
C1060  C1062   1.414   .     A
C1061  C1063   1.412   .     A
C1061  C1072   1.468   .     S
C1062  C1064   1.411   .     A
C1062  C1078   1.484   .     S
C1063  C1065   1.415   .     A
C1063  C1070   1.409   .     A
C1064  C1071   1.411   .     A
C1064  C1066   1.416   .     A
C1065  C1067   1.407   .     A
C1065  C1132   1.406   .     S
C1066  C1069   1.409   .     A
C1066  C1131   1.406   1_455 S
C1067  C1085   1.396   .     A
C1067  C1090   1.386   .     A
C1068  O1118   1.286   .     A
C1068  C1087   1.437   .     S
C1068  O1116   1.292   .     A
C1069  C1079   1.400   .     A
C1070  H1099   1.081   .     S
C1070  C1145   1.393   .     S
C1071  H1100   1.081   .     S
C1071  C1151   1.388   1_455 S
C1072  C1077   1.398   .     A
C1072  C1073   1.405   .     A
C1073  H1108   1.084   .     S
C1074  C1075   1.391   .     A
C1074  H1109   1.083   .     S
C1074  C809    1.390   1_565 S
C1075  C1076   1.403   .     A
C1075  H1110   1.077   .     S
C1076  H1111   1.082   .     S
C1076  C813    1.393   1_565 S
C1077  H1112   1.083   .     S
C1078  C1084   1.403   .     A
C1078  C1080   1.406   .     A
C1079  H1101   1.084   .     S
C1079  C1136   1.393   1_455 S
C1080  C1081   1.398   .     A
C1080  H1094   1.083   .     S
C1081  C1082   1.397   .     A
C1082  C819    1.398   1_565 S
C1082  H832    1.083   1_565 S
C1083  H1097   1.081   .     S
C1084  H1098   1.083   .     S
C1084  C819    1.398   1_565 S
C1085  H1102   1.085   .     S
C1085  C1137   1.388   .     S
C1087  C822    1.330   1_565 S
C1087  H841    1.087   1_565 S
C1088  O1119   1.295   .     A
C1088  O1121   1.289   .     A
C1089  O1122   1.293   .     A
C1089  O1120   1.296   .     A
C1090  H1106   1.063   .     S
Cu1091 O1118   1.962   .     S
Cu1091 O1119   1.972   .     S
Cu1091 N1114   2.015   .     S
Cu1091 O1115   1.966   .     S
Cu1091 O1122   1.957   .     S
Cu1091 Cu1092  2.682   .     S
Cu1092 O1117   1.962   .     S
Cu1092 O1121   1.957   .     S
Cu1092 N1113   2.015   .     S
Cu1092 O1116   1.966   .     S
Cu1092 O1120   1.972   .     S
H1093  N321    1.029   1_556 S
H1095  C289    1.083   1_556 S
H1103  C822    1.087   1_565 S
N1114  N321    1.303   1_556 S
N1114  H312    1.028   1_556 S
C1123  C1152   1.433   .     S
C1123  O1181   1.290   .     A
C1123  O1183   1.286   .     A
C1124  C1126   1.396   .     A
C1124  H1173   1.084   .     S
C1124  C1135   1.391   .     A
C1125  C1156   1.388   .     A
C1125  C1127   1.405   .     A
C1125  C1155   1.464   .     S
C1126  C1154   1.452   .     S
C1126  C1128   1.414   .     A
C1127  C1129   1.412   .     A
C1127  C1138   1.468   .     S
C1128  C1130   1.411   .     A
C1128  C1144   1.484   .     S
C1129  C1131   1.415   .     A
C1129  C1136   1.409   .     A
C1130  C1137   1.411   .     A
C1130  C1132   1.416   .     A
C1131  C1133   1.407   .     A
C1131  C1066   1.406   1_655 S
C1132  C1135   1.409   .     A
C1133  C1151   1.396   .     A
C1133  C1156   1.386   .     A
C1134  O1184   1.286   .     A
C1134  C1153   1.437   .     S
C1134  O1182   1.292   .     A
C1135  C1145   1.400   .     A
C1136  H1165   1.081   .     S
C1136  C1079   1.393   1_655 S
C1137  H1166   1.081   .     S
C1138  C1143   1.398   .     A
C1138  C1139   1.405   .     A
C1139  H1174   1.084   .     S
C1140  C1141   1.391   .     A
C1140  H1175   1.083   .     S
C1140  C875    1.390   1_565 S
C1141  C1142   1.403   .     A
C1141  H1176   1.077   .     S
C1142  H1177   1.082   .     S
C1142  C879    1.393   1_565 S
C1143  H1178   1.083   .     S
C1144  C1150   1.403   .     A
C1144  C1146   1.406   .     A
C1145  H1167   1.084   .     S
C1146  C1147   1.398   .     A
C1146  H1160   1.083   .     S
C1147  C1148   1.397   .     A
C1148  C885    1.398   1_565 S
C1148  H898    1.083   1_565 S
C1149  H1163   1.081   .     S
C1150  H1164   1.083   .     S
C1150  C885    1.398   1_565 S
C1151  H1168   1.085   .     S
C1151  C1071   1.388   1_655 S
C1153  C888    1.330   1_565 S
C1153  H907    1.087   1_565 S
C1154  O1185   1.295   .     A
C1154  O1187   1.289   .     A
C1155  O1188   1.293   .     A
C1155  O1186   1.296   .     A
C1156  H1172   1.063   .     S
Cu1157 O1184   1.962   .     S
Cu1157 O1185   1.972   .     S
Cu1157 N1180   2.015   .     S
Cu1157 O1181   1.966   .     S
Cu1157 O1188   1.957   .     S
Cu1157 Cu1158  2.682   .     S
Cu1158 O1183   1.962   .     S
Cu1158 O1187   1.957   .     S
Cu1158 N1179   2.015   .     S
Cu1158 O1182   1.966   .     S
Cu1158 O1186   1.972   .     S
H1159  N387    1.029   1_556 S
H1161  C355    1.083   1_556 S
H1169  C888    1.087   1_565 S
N1180  N387    1.303   1_556 S
N1180  H378    1.028   1_556 S
