data_str_m2_o1_o2_pcu_sym.87
_audit_creation_date              2020-01-03
_audit_creation_method            'Materials Studio'
_symmetry_space_group_name_H-M    'P1'
_symmetry_Int_Tables_number       1
_symmetry_cell_setting            triclinic
loop_
_symmetry_equiv_pos_as_xyz
  x,y,z
_cell_length_a                    32.4975
_cell_length_b                    28.7953
_cell_length_c                    30.2357
_cell_angle_alpha                 90.4913
_cell_angle_beta                  91.7196
_cell_angle_gamma                 89.9014
loop_
_atom_site_label
_atom_site_type_symbol
_atom_site_fract_x
_atom_site_fract_y
_atom_site_fract_z
_atom_site_U_iso_or_equiv
_atom_site_adp_type
_atom_site_occupancy
C1     C     0.08744   0.16672   0.25064   0.00000  Uiso   1.00
C2     C     0.31210   0.20850   0.25792   0.00000  Uiso   1.00
C3     C     0.31192   0.12536   0.24397   0.00000  Uiso   1.00
C4     C     0.02141   0.20846   0.25833   0.00000  Uiso   1.00
C5     C     0.16879   0.20808   0.04745   0.00000  Uiso   1.00
C6     C     0.18746   0.13225   0.45250   0.00000  Uiso   1.00
C7     C     0.14259   0.19976   0.45146   0.00000  Uiso   1.00
C8     C     0.16181   0.12424   0.04681   0.00000  Uiso   1.00
C9     C     0.16925   0.20819   0.09344   0.00000  Uiso   1.00
C10    C     0.18775   0.13244   0.40655   0.00000  Uiso   1.00
C11    C     0.14306   0.20002   0.40550   0.00000  Uiso   1.00
C12    C     0.24589   0.16670   0.25013   0.00000  Uiso   1.00
C13    C     0.16248   0.12431   0.09280   0.00000  Uiso   1.00
C14    C     0.16611   0.16629   0.11648   0.00000  Uiso   1.00
C15    C     0.16594   0.16664   0.38295   0.00000  Uiso   1.00
C16    C     0.16504   0.16611   0.02383   0.00000  Uiso   1.00
C17    C     0.16496   0.16600   0.47528   0.00000  Uiso   1.00
C18    C     0.29053   0.16689   0.25055   0.00000  Uiso   1.00
C19    C     0.04278   0.16682   0.25152   0.00000  Uiso   1.00
C20    C     0.09051   0.05352   0.17782   0.00000  Uiso   1.00
C21    C     0.19063   0.29478   0.35760   0.00000  Uiso   1.00
C22    C     0.25482   0.03980   0.30643   0.00000  Uiso   1.00
C23    C     0.16651   0.16652   0.16495   0.00000  Uiso   1.00
C24    C     0.08950   0.27594   0.18221   0.00000  Uiso   1.00
C25    C     0.16650   0.16676   0.33486   0.00000  Uiso   1.00
C26    C     0.14680   0.02455   0.21673   0.00000  Uiso   1.00
C27    C     0.18672   0.30877   0.28321   0.00000  Uiso   1.00
C28    C     0.18863   0.02534   0.28168   0.00000  Uiso   1.00
C29    C     0.14685   0.30835   0.21667   0.00000  Uiso   1.00
C30    C     0.02111   0.12520   0.24529   0.00000  Uiso   1.00
Cu31   Cu    0.16667   0.21355   0.25000   0.00000  Uiso   1.00
Cu32   Cu    0.16667   0.11978   0.25000   0.00000  Uiso   1.00
H33    H     0.17195   0.24074   0.03038   0.00000  Uiso   1.00
H34    H     0.29613   0.24098   0.26350   0.00000  Uiso   1.00
H35    H     0.29593   0.09303   0.23748   0.00000  Uiso   1.00
H36    H     0.03751   0.24085   0.26436   0.00000  Uiso   1.00
H37    H     0.08364   0.09120   0.17744   0.00000  Uiso   1.00
H38    H     0.07424   0.03710   0.20557   0.00000  Uiso   1.00
H39    H     0.07763   0.03936   0.14615   0.00000  Uiso   1.00
H40    H     0.20127   0.26797   0.38143   0.00000  Uiso   1.00
H41    H     0.15633   0.29405   0.35605   0.00000  Uiso   1.00
H42    H     0.20155   0.32859   0.37119   0.00000  Uiso   1.00
H43    H     0.27331   0.07050   0.31702   0.00000  Uiso   1.00
H44    H     0.20531   0.10621   0.47023   0.00000  Uiso   1.00
H45    H     0.26247   0.03152   0.27154   0.00000  Uiso   1.00
H46    H     0.26452   0.01067   0.32814   0.00000  Uiso   1.00
H47    H     0.07580   0.28602   0.21428   0.00000  Uiso   1.00
H48    H     0.08419   0.23835   0.17630   0.00000  Uiso   1.00
H49    H     0.07252   0.29393   0.15507   0.00000  Uiso   1.00
H50    H     0.12438   0.22555   0.46836   0.00000  Uiso   1.00
H51    H     0.15841   0.09149   0.02920   0.00000  Uiso   1.00
H52    H     0.17241   0.24107   0.11084   0.00000  Uiso   1.00
H53    H     0.20555   0.10638   0.38948   0.00000  Uiso   1.00
H54    H     0.12510   0.22578   0.38754   0.00000  Uiso   1.00
H55    H     0.16002   0.09150   0.10965   0.00000  Uiso   1.00
H56    H     0.03682   0.09251   0.24117   0.00000  Uiso   1.00
N57    N     0.16667   0.28402   0.25000   0.00000  Uiso   1.00
N58    N     0.16667   0.04931   0.25000   0.00000  Uiso   1.00
O59    O     0.10655   0.20625   0.25000   0.00000  Uiso   1.00
O60    O     0.20784   0.28472   0.31618   0.00000  Uiso   1.00
O61    O     0.21276   0.05035   0.31186   0.00000  Uiso   1.00
O62    O     0.13202   0.28518   0.17929   0.00000  Uiso   1.00
O63    O     0.22679   0.12709   0.25001   0.00000  Uiso   1.00
O64    O     0.22679   0.20625   0.25001   0.00000  Uiso   1.00
O65    O     0.10655   0.12709   0.25000   0.00000  Uiso   1.00
O66    O     0.16666   0.20626   0.18573   0.00000  Uiso   1.00
O67    O     0.16667   0.12707   0.31427   0.00000  Uiso   1.00
O68    O     0.16667   0.20626   0.31427   0.00000  Uiso   1.00
O69    O     0.16666   0.12707   0.18573   0.00000  Uiso   1.00
O70    O     0.13358   0.04716   0.17878   0.00000  Uiso   1.00
C71    C     0.42077   0.16672   0.25064   0.00000  Uiso   1.00
C72    C     0.64543   0.20850   0.25792   0.00000  Uiso   1.00
C73    C     0.64526   0.12536   0.24397   0.00000  Uiso   1.00
C74    C     0.35474   0.20846   0.25833   0.00000  Uiso   1.00
C75    C     0.50212   0.20808   0.04745   0.00000  Uiso   1.00
C76    C     0.52079   0.13225   0.45250   0.00000  Uiso   1.00
C77    C     0.47592   0.19976   0.45146   0.00000  Uiso   1.00
C78    C     0.49515   0.12424   0.04681   0.00000  Uiso   1.00
C79    C     0.50259   0.20819   0.09344   0.00000  Uiso   1.00
C80    C     0.52109   0.13244   0.40655   0.00000  Uiso   1.00
C81    C     0.47639   0.20002   0.40550   0.00000  Uiso   1.00
C82    C     0.57922   0.16670   0.25013   0.00000  Uiso   1.00
C83    C     0.49581   0.12431   0.09280   0.00000  Uiso   1.00
C84    C     0.49945   0.16629   0.11648   0.00000  Uiso   1.00
C85    C     0.49927   0.16664   0.38295   0.00000  Uiso   1.00
C86    C     0.49838   0.16611   0.02383   0.00000  Uiso   1.00
C87    C     0.49829   0.16600   0.47528   0.00000  Uiso   1.00
C88    C     0.62386   0.16689   0.25055   0.00000  Uiso   1.00
C89    C     0.37611   0.16682   0.25152   0.00000  Uiso   1.00
C90    C     0.42385   0.05352   0.17782   0.00000  Uiso   1.00
C91    C     0.52396   0.29478   0.35760   0.00000  Uiso   1.00
C92    C     0.58815   0.03980   0.30643   0.00000  Uiso   1.00
C93    C     0.49984   0.16652   0.16495   0.00000  Uiso   1.00
C94    C     0.42283   0.27594   0.18221   0.00000  Uiso   1.00
C95    C     0.49983   0.16676   0.33486   0.00000  Uiso   1.00
C96    C     0.48014   0.02455   0.21673   0.00000  Uiso   1.00
C97    C     0.52005   0.30877   0.28321   0.00000  Uiso   1.00
C98    C     0.52197   0.02534   0.28168   0.00000  Uiso   1.00
C99    C     0.48018   0.30835   0.21667   0.00000  Uiso   1.00
C100   C     0.35444   0.12520   0.24529   0.00000  Uiso   1.00
Cu101  Cu    0.50000   0.21355   0.25000   0.00000  Uiso   1.00
Cu102  Cu    0.50000   0.11978   0.25000   0.00000  Uiso   1.00
H103   H     0.50529   0.24074   0.03038   0.00000  Uiso   1.00
H104   H     0.62946   0.24098   0.26350   0.00000  Uiso   1.00
H105   H     0.62926   0.09303   0.23748   0.00000  Uiso   1.00
H106   H     0.37085   0.24085   0.26436   0.00000  Uiso   1.00
H107   H     0.41697   0.09120   0.17744   0.00000  Uiso   1.00
H108   H     0.40757   0.03710   0.20557   0.00000  Uiso   1.00
H109   H     0.41096   0.03936   0.14615   0.00000  Uiso   1.00
H110   H     0.53461   0.26797   0.38143   0.00000  Uiso   1.00
H111   H     0.48967   0.29405   0.35605   0.00000  Uiso   1.00
H112   H     0.53488   0.32859   0.37119   0.00000  Uiso   1.00
H113   H     0.60664   0.07050   0.31702   0.00000  Uiso   1.00
H114   H     0.53865   0.10621   0.47023   0.00000  Uiso   1.00
H115   H     0.59580   0.03152   0.27154   0.00000  Uiso   1.00
H116   H     0.59785   0.01067   0.32814   0.00000  Uiso   1.00
H117   H     0.40913   0.28602   0.21428   0.00000  Uiso   1.00
H118   H     0.41753   0.23835   0.17630   0.00000  Uiso   1.00
H119   H     0.40586   0.29393   0.15507   0.00000  Uiso   1.00
H120   H     0.45771   0.22555   0.46836   0.00000  Uiso   1.00
H121   H     0.49174   0.09149   0.02920   0.00000  Uiso   1.00
H122   H     0.50574   0.24107   0.11084   0.00000  Uiso   1.00
H123   H     0.53889   0.10638   0.38948   0.00000  Uiso   1.00
H124   H     0.45843   0.22578   0.38754   0.00000  Uiso   1.00
H125   H     0.49336   0.09150   0.10965   0.00000  Uiso   1.00
H126   H     0.37015   0.09251   0.24117   0.00000  Uiso   1.00
N127   N     0.50000   0.28402   0.25000   0.00000  Uiso   1.00
N128   N     0.50000   0.04931   0.25000   0.00000  Uiso   1.00
O129   O     0.43988   0.20625   0.25000   0.00000  Uiso   1.00
O130   O     0.54117   0.28472   0.31618   0.00000  Uiso   1.00
O131   O     0.54610   0.05035   0.31186   0.00000  Uiso   1.00
O132   O     0.46535   0.28518   0.17929   0.00000  Uiso   1.00
O133   O     0.56012   0.12709   0.25001   0.00000  Uiso   1.00
O134   O     0.56012   0.20625   0.25001   0.00000  Uiso   1.00
O135   O     0.43988   0.12709   0.25000   0.00000  Uiso   1.00
O136   O     0.50000   0.20626   0.18573   0.00000  Uiso   1.00
O137   O     0.50000   0.12707   0.31427   0.00000  Uiso   1.00
O138   O     0.50000   0.20626   0.31427   0.00000  Uiso   1.00
O139   O     0.50000   0.12707   0.18573   0.00000  Uiso   1.00
O140   O     0.46691   0.04716   0.17878   0.00000  Uiso   1.00
C141   C     0.75411   0.16672   0.25064   0.00000  Uiso   1.00
C142   C     0.97876   0.20850   0.25792   0.00000  Uiso   1.00
C143   C     0.97859   0.12536   0.24397   0.00000  Uiso   1.00
C144   C     0.68807   0.20846   0.25833   0.00000  Uiso   1.00
C145   C     0.83545   0.20808   0.04745   0.00000  Uiso   1.00
C146   C     0.85413   0.13225   0.45250   0.00000  Uiso   1.00
C147   C     0.80926   0.19976   0.45146   0.00000  Uiso   1.00
C148   C     0.82848   0.12424   0.04681   0.00000  Uiso   1.00
C149   C     0.83592   0.20819   0.09344   0.00000  Uiso   1.00
C150   C     0.85442   0.13244   0.40655   0.00000  Uiso   1.00
C151   C     0.80972   0.20002   0.40550   0.00000  Uiso   1.00
C152   C     0.91255   0.16670   0.25013   0.00000  Uiso   1.00
C153   C     0.82915   0.12431   0.09280   0.00000  Uiso   1.00
C154   C     0.83278   0.16629   0.11648   0.00000  Uiso   1.00
C155   C     0.83261   0.16664   0.38295   0.00000  Uiso   1.00
C156   C     0.83171   0.16611   0.02383   0.00000  Uiso   1.00
C157   C     0.83163   0.16600   0.47528   0.00000  Uiso   1.00
C158   C     0.95719   0.16689   0.25055   0.00000  Uiso   1.00
C159   C     0.70944   0.16682   0.25152   0.00000  Uiso   1.00
C160   C     0.75718   0.05352   0.17782   0.00000  Uiso   1.00
C161   C     0.85729   0.29478   0.35760   0.00000  Uiso   1.00
C162   C     0.92149   0.03980   0.30643   0.00000  Uiso   1.00
C163   C     0.83317   0.16652   0.16495   0.00000  Uiso   1.00
C164   C     0.75617   0.27594   0.18221   0.00000  Uiso   1.00
C165   C     0.83316   0.16676   0.33486   0.00000  Uiso   1.00
C166   C     0.81347   0.02455   0.21673   0.00000  Uiso   1.00
C167   C     0.85339   0.30877   0.28321   0.00000  Uiso   1.00
C168   C     0.85530   0.02534   0.28168   0.00000  Uiso   1.00
C169   C     0.81352   0.30835   0.21667   0.00000  Uiso   1.00
C170   C     0.68777   0.12520   0.24529   0.00000  Uiso   1.00
Cu171  Cu    0.83333   0.21355   0.25000   0.00000  Uiso   1.00
Cu172  Cu    0.83333   0.11978   0.25000   0.00000  Uiso   1.00
H173   H     0.83862   0.24074   0.03038   0.00000  Uiso   1.00
H174   H     0.96279   0.24098   0.26350   0.00000  Uiso   1.00
H175   H     0.96260   0.09303   0.23748   0.00000  Uiso   1.00
H176   H     0.70418   0.24085   0.26436   0.00000  Uiso   1.00
H177   H     0.75030   0.09120   0.17744   0.00000  Uiso   1.00
H178   H     0.74091   0.03710   0.20557   0.00000  Uiso   1.00
H179   H     0.74429   0.03936   0.14615   0.00000  Uiso   1.00
H180   H     0.86794   0.26797   0.38143   0.00000  Uiso   1.00
H181   H     0.82300   0.29405   0.35605   0.00000  Uiso   1.00
H182   H     0.86821   0.32859   0.37119   0.00000  Uiso   1.00
H183   H     0.93997   0.07050   0.31702   0.00000  Uiso   1.00
H184   H     0.87198   0.10621   0.47023   0.00000  Uiso   1.00
H185   H     0.92913   0.03152   0.27154   0.00000  Uiso   1.00
H186   H     0.93118   0.01067   0.32814   0.00000  Uiso   1.00
H187   H     0.74246   0.28602   0.21428   0.00000  Uiso   1.00
H188   H     0.75086   0.23835   0.17630   0.00000  Uiso   1.00
H189   H     0.73919   0.29393   0.15507   0.00000  Uiso   1.00
H190   H     0.79104   0.22555   0.46836   0.00000  Uiso   1.00
H191   H     0.82507   0.09149   0.02920   0.00000  Uiso   1.00
H192   H     0.83907   0.24107   0.11084   0.00000  Uiso   1.00
H193   H     0.87222   0.10638   0.38948   0.00000  Uiso   1.00
H194   H     0.79176   0.22578   0.38754   0.00000  Uiso   1.00
H195   H     0.82669   0.09150   0.10965   0.00000  Uiso   1.00
H196   H     0.70348   0.09251   0.24117   0.00000  Uiso   1.00
N197   N     0.83333   0.28402   0.25000   0.00000  Uiso   1.00
N198   N     0.83333   0.04931   0.25000   0.00000  Uiso   1.00
O199   O     0.77321   0.20625   0.25000   0.00000  Uiso   1.00
O200   O     0.87450   0.28472   0.31618   0.00000  Uiso   1.00
O201   O     0.87943   0.05035   0.31186   0.00000  Uiso   1.00
O202   O     0.79869   0.28518   0.17929   0.00000  Uiso   1.00
O203   O     0.89345   0.12709   0.25001   0.00000  Uiso   1.00
O204   O     0.89345   0.20625   0.25001   0.00000  Uiso   1.00
O205   O     0.77321   0.12709   0.25000   0.00000  Uiso   1.00
O206   O     0.83333   0.20626   0.18573   0.00000  Uiso   1.00
O207   O     0.83334   0.12707   0.31427   0.00000  Uiso   1.00
O208   O     0.83334   0.20626   0.31427   0.00000  Uiso   1.00
O209   O     0.83333   0.12707   0.18573   0.00000  Uiso   1.00
O210   O     0.80025   0.04716   0.17878   0.00000  Uiso   1.00
C211   C     0.08744   0.50005   0.25064   0.00000  Uiso   1.00
C212   C     0.31210   0.54183   0.25792   0.00000  Uiso   1.00
C213   C     0.31192   0.45869   0.24397   0.00000  Uiso   1.00
C214   C     0.02141   0.54179   0.25833   0.00000  Uiso   1.00
C215   C     0.16879   0.54141   0.04745   0.00000  Uiso   1.00
C216   C     0.18746   0.46559   0.45250   0.00000  Uiso   1.00
C217   C     0.14259   0.53309   0.45146   0.00000  Uiso   1.00
C218   C     0.16181   0.45757   0.04681   0.00000  Uiso   1.00
C219   C     0.16925   0.54152   0.09344   0.00000  Uiso   1.00
C220   C     0.18775   0.46577   0.40655   0.00000  Uiso   1.00
C221   C     0.14306   0.53335   0.40550   0.00000  Uiso   1.00
C222   C     0.24589   0.50003   0.25013   0.00000  Uiso   1.00
C223   C     0.16248   0.45764   0.09280   0.00000  Uiso   1.00
C224   C     0.16611   0.49963   0.11648   0.00000  Uiso   1.00
C225   C     0.16594   0.49997   0.38295   0.00000  Uiso   1.00
C226   C     0.16504   0.49944   0.02383   0.00000  Uiso   1.00
C227   C     0.16496   0.49933   0.47528   0.00000  Uiso   1.00
C228   C     0.29053   0.50022   0.25055   0.00000  Uiso   1.00
C229   C     0.04278   0.50015   0.25152   0.00000  Uiso   1.00
C230   C     0.09051   0.38685   0.17782   0.00000  Uiso   1.00
C231   C     0.19063   0.62812   0.35760   0.00000  Uiso   1.00
C232   C     0.25482   0.37314   0.30643   0.00000  Uiso   1.00
C233   C     0.16651   0.49985   0.16495   0.00000  Uiso   1.00
C234   C     0.08950   0.60928   0.18221   0.00000  Uiso   1.00
C235   C     0.16650   0.50010   0.33486   0.00000  Uiso   1.00
C236   C     0.14680   0.35788   0.21673   0.00000  Uiso   1.00
C237   C     0.18672   0.64211   0.28321   0.00000  Uiso   1.00
C238   C     0.18863   0.35867   0.28168   0.00000  Uiso   1.00
C239   C     0.14685   0.64168   0.21667   0.00000  Uiso   1.00
C240   C     0.02111   0.45854   0.24529   0.00000  Uiso   1.00
Cu241  Cu    0.16667   0.54689   0.25000   0.00000  Uiso   1.00
Cu242  Cu    0.16667   0.45311   0.25000   0.00000  Uiso   1.00
H243   H     0.17195   0.57407   0.03038   0.00000  Uiso   1.00
H244   H     0.29613   0.57432   0.26350   0.00000  Uiso   1.00
H245   H     0.29593   0.42636   0.23748   0.00000  Uiso   1.00
H246   H     0.03751   0.57419   0.26436   0.00000  Uiso   1.00
H247   H     0.08364   0.42454   0.17744   0.00000  Uiso   1.00
H248   H     0.07424   0.37043   0.20557   0.00000  Uiso   1.00
H249   H     0.07763   0.37270   0.14615   0.00000  Uiso   1.00
H250   H     0.20127   0.60131   0.38143   0.00000  Uiso   1.00
H251   H     0.15633   0.62739   0.35605   0.00000  Uiso   1.00
H252   H     0.20155   0.66193   0.37119   0.00000  Uiso   1.00
H253   H     0.27331   0.40384   0.31702   0.00000  Uiso   1.00
H254   H     0.20531   0.43955   0.47023   0.00000  Uiso   1.00
H255   H     0.26247   0.36486   0.27154   0.00000  Uiso   1.00
H256   H     0.26452   0.34401   0.32814   0.00000  Uiso   1.00
H257   H     0.07580   0.61935   0.21428   0.00000  Uiso   1.00
H258   H     0.08419   0.57168   0.17630   0.00000  Uiso   1.00
H259   H     0.07252   0.62726   0.15507   0.00000  Uiso   1.00
H260   H     0.12438   0.55888   0.46836   0.00000  Uiso   1.00
H261   H     0.15841   0.42482   0.02920   0.00000  Uiso   1.00
H262   H     0.17241   0.57440   0.11084   0.00000  Uiso   1.00
H263   H     0.20555   0.43971   0.38948   0.00000  Uiso   1.00
H264   H     0.12510   0.55911   0.38754   0.00000  Uiso   1.00
H265   H     0.16002   0.42484   0.10965   0.00000  Uiso   1.00
H266   H     0.03682   0.42584   0.24117   0.00000  Uiso   1.00
N267   N     0.16667   0.61736   0.25000   0.00000  Uiso   1.00
N268   N     0.16667   0.38264   0.25000   0.00000  Uiso   1.00
O269   O     0.10655   0.53958   0.25000   0.00000  Uiso   1.00
O270   O     0.20784   0.61806   0.31618   0.00000  Uiso   1.00
O271   O     0.21276   0.38368   0.31186   0.00000  Uiso   1.00
O272   O     0.13202   0.61852   0.17929   0.00000  Uiso   1.00
O273   O     0.22679   0.46042   0.25001   0.00000  Uiso   1.00
O274   O     0.22679   0.53958   0.25001   0.00000  Uiso   1.00
O275   O     0.10655   0.46042   0.25000   0.00000  Uiso   1.00
O276   O     0.16666   0.53959   0.18573   0.00000  Uiso   1.00
O277   O     0.16667   0.46041   0.31427   0.00000  Uiso   1.00
O278   O     0.16667   0.53959   0.31427   0.00000  Uiso   1.00
O279   O     0.16666   0.46041   0.18573   0.00000  Uiso   1.00
O280   O     0.13358   0.38050   0.17878   0.00000  Uiso   1.00
C281   C     0.42077   0.50005   0.25064   0.00000  Uiso   1.00
C282   C     0.64543   0.54183   0.25792   0.00000  Uiso   1.00
C283   C     0.64526   0.45869   0.24397   0.00000  Uiso   1.00
C284   C     0.35474   0.54179   0.25833   0.00000  Uiso   1.00
C285   C     0.50212   0.54141   0.04745   0.00000  Uiso   1.00
C286   C     0.52079   0.46559   0.45250   0.00000  Uiso   1.00
C287   C     0.47592   0.53309   0.45146   0.00000  Uiso   1.00
C288   C     0.49515   0.45757   0.04681   0.00000  Uiso   1.00
C289   C     0.50259   0.54152   0.09344   0.00000  Uiso   1.00
C290   C     0.52109   0.46577   0.40655   0.00000  Uiso   1.00
C291   C     0.47639   0.53335   0.40550   0.00000  Uiso   1.00
C292   C     0.57922   0.50003   0.25013   0.00000  Uiso   1.00
C293   C     0.49581   0.45764   0.09280   0.00000  Uiso   1.00
C294   C     0.49945   0.49963   0.11648   0.00000  Uiso   1.00
C295   C     0.49927   0.49997   0.38295   0.00000  Uiso   1.00
C296   C     0.49838   0.49944   0.02383   0.00000  Uiso   1.00
C297   C     0.49829   0.49933   0.47528   0.00000  Uiso   1.00
C298   C     0.62386   0.50022   0.25055   0.00000  Uiso   1.00
C299   C     0.37611   0.50015   0.25152   0.00000  Uiso   1.00
C300   C     0.42385   0.38685   0.17782   0.00000  Uiso   1.00
C301   C     0.52396   0.62812   0.35760   0.00000  Uiso   1.00
C302   C     0.58815   0.37314   0.30643   0.00000  Uiso   1.00
C303   C     0.49984   0.49985   0.16495   0.00000  Uiso   1.00
C304   C     0.42283   0.60928   0.18221   0.00000  Uiso   1.00
C305   C     0.49983   0.50010   0.33486   0.00000  Uiso   1.00
C306   C     0.48014   0.35788   0.21673   0.00000  Uiso   1.00
C307   C     0.52005   0.64211   0.28321   0.00000  Uiso   1.00
C308   C     0.52197   0.35867   0.28168   0.00000  Uiso   1.00
C309   C     0.48018   0.64168   0.21667   0.00000  Uiso   1.00
C310   C     0.35444   0.45854   0.24529   0.00000  Uiso   1.00
Cu311  Cu    0.50000   0.54689   0.25000   0.00000  Uiso   1.00
Cu312  Cu    0.50000   0.45311   0.25000   0.00000  Uiso   1.00
H313   H     0.50529   0.57407   0.03038   0.00000  Uiso   1.00
H314   H     0.62946   0.57432   0.26350   0.00000  Uiso   1.00
H315   H     0.62926   0.42636   0.23748   0.00000  Uiso   1.00
H316   H     0.37085   0.57419   0.26436   0.00000  Uiso   1.00
H317   H     0.41697   0.42454   0.17744   0.00000  Uiso   1.00
H318   H     0.40757   0.37043   0.20557   0.00000  Uiso   1.00
H319   H     0.41096   0.37270   0.14615   0.00000  Uiso   1.00
H320   H     0.53461   0.60131   0.38143   0.00000  Uiso   1.00
H321   H     0.48967   0.62739   0.35605   0.00000  Uiso   1.00
H322   H     0.53488   0.66193   0.37119   0.00000  Uiso   1.00
H323   H     0.60664   0.40384   0.31702   0.00000  Uiso   1.00
H324   H     0.53865   0.43955   0.47023   0.00000  Uiso   1.00
H325   H     0.59580   0.36486   0.27154   0.00000  Uiso   1.00
H326   H     0.59785   0.34401   0.32814   0.00000  Uiso   1.00
H327   H     0.40913   0.61935   0.21428   0.00000  Uiso   1.00
H328   H     0.41753   0.57168   0.17630   0.00000  Uiso   1.00
H329   H     0.40586   0.62726   0.15507   0.00000  Uiso   1.00
H330   H     0.45771   0.55888   0.46836   0.00000  Uiso   1.00
H331   H     0.49174   0.42482   0.02920   0.00000  Uiso   1.00
H332   H     0.50574   0.57440   0.11084   0.00000  Uiso   1.00
H333   H     0.53889   0.43971   0.38948   0.00000  Uiso   1.00
H334   H     0.45843   0.55911   0.38754   0.00000  Uiso   1.00
H335   H     0.49336   0.42484   0.10965   0.00000  Uiso   1.00
H336   H     0.37015   0.42584   0.24117   0.00000  Uiso   1.00
N337   N     0.50000   0.61736   0.25000   0.00000  Uiso   1.00
N338   N     0.50000   0.38264   0.25000   0.00000  Uiso   1.00
O339   O     0.43988   0.53958   0.25000   0.00000  Uiso   1.00
O340   O     0.54117   0.61806   0.31618   0.00000  Uiso   1.00
O341   O     0.54610   0.38368   0.31186   0.00000  Uiso   1.00
O342   O     0.46535   0.61852   0.17929   0.00000  Uiso   1.00
O343   O     0.56012   0.46042   0.25001   0.00000  Uiso   1.00
O344   O     0.56012   0.53958   0.25001   0.00000  Uiso   1.00
O345   O     0.43988   0.46042   0.25000   0.00000  Uiso   1.00
O346   O     0.50000   0.53959   0.18573   0.00000  Uiso   1.00
O347   O     0.50000   0.46041   0.31427   0.00000  Uiso   1.00
O348   O     0.50000   0.53959   0.31427   0.00000  Uiso   1.00
O349   O     0.50000   0.46041   0.18573   0.00000  Uiso   1.00
O350   O     0.46691   0.38050   0.17878   0.00000  Uiso   1.00
C351   C     0.75411   0.50005   0.25064   0.00000  Uiso   1.00
C352   C     0.97876   0.54183   0.25792   0.00000  Uiso   1.00
C353   C     0.97859   0.45869   0.24397   0.00000  Uiso   1.00
C354   C     0.68807   0.54179   0.25833   0.00000  Uiso   1.00
C355   C     0.83545   0.54141   0.04745   0.00000  Uiso   1.00
C356   C     0.85413   0.46559   0.45250   0.00000  Uiso   1.00
C357   C     0.80926   0.53309   0.45146   0.00000  Uiso   1.00
C358   C     0.82848   0.45757   0.04681   0.00000  Uiso   1.00
C359   C     0.83592   0.54152   0.09344   0.00000  Uiso   1.00
C360   C     0.85442   0.46577   0.40655   0.00000  Uiso   1.00
C361   C     0.80972   0.53335   0.40550   0.00000  Uiso   1.00
C362   C     0.91255   0.50003   0.25013   0.00000  Uiso   1.00
C363   C     0.82915   0.45764   0.09280   0.00000  Uiso   1.00
C364   C     0.83278   0.49963   0.11648   0.00000  Uiso   1.00
C365   C     0.83261   0.49997   0.38295   0.00000  Uiso   1.00
C366   C     0.83171   0.49944   0.02383   0.00000  Uiso   1.00
C367   C     0.83163   0.49933   0.47528   0.00000  Uiso   1.00
C368   C     0.95719   0.50022   0.25055   0.00000  Uiso   1.00
C369   C     0.70944   0.50015   0.25152   0.00000  Uiso   1.00
C370   C     0.75718   0.38685   0.17782   0.00000  Uiso   1.00
C371   C     0.85729   0.62812   0.35760   0.00000  Uiso   1.00
C372   C     0.92149   0.37314   0.30643   0.00000  Uiso   1.00
C373   C     0.83317   0.49985   0.16495   0.00000  Uiso   1.00
C374   C     0.75617   0.60928   0.18221   0.00000  Uiso   1.00
C375   C     0.83316   0.50010   0.33486   0.00000  Uiso   1.00
C376   C     0.81347   0.35788   0.21673   0.00000  Uiso   1.00
C377   C     0.85339   0.64211   0.28321   0.00000  Uiso   1.00
C378   C     0.85530   0.35867   0.28168   0.00000  Uiso   1.00
C379   C     0.81352   0.64168   0.21667   0.00000  Uiso   1.00
C380   C     0.68777   0.45854   0.24529   0.00000  Uiso   1.00
Cu381  Cu    0.83333   0.54689   0.25000   0.00000  Uiso   1.00
Cu382  Cu    0.83333   0.45311   0.25000   0.00000  Uiso   1.00
H383   H     0.83862   0.57407   0.03038   0.00000  Uiso   1.00
H384   H     0.96279   0.57432   0.26350   0.00000  Uiso   1.00
H385   H     0.96260   0.42636   0.23748   0.00000  Uiso   1.00
H386   H     0.70418   0.57419   0.26436   0.00000  Uiso   1.00
H387   H     0.75030   0.42454   0.17744   0.00000  Uiso   1.00
H388   H     0.74091   0.37043   0.20557   0.00000  Uiso   1.00
H389   H     0.74429   0.37270   0.14615   0.00000  Uiso   1.00
H390   H     0.86794   0.60131   0.38143   0.00000  Uiso   1.00
H391   H     0.82300   0.62739   0.35605   0.00000  Uiso   1.00
H392   H     0.86821   0.66193   0.37119   0.00000  Uiso   1.00
H393   H     0.93997   0.40384   0.31702   0.00000  Uiso   1.00
H394   H     0.87198   0.43955   0.47023   0.00000  Uiso   1.00
H395   H     0.92913   0.36486   0.27154   0.00000  Uiso   1.00
H396   H     0.93118   0.34401   0.32814   0.00000  Uiso   1.00
H397   H     0.74246   0.61935   0.21428   0.00000  Uiso   1.00
H398   H     0.75086   0.57168   0.17630   0.00000  Uiso   1.00
H399   H     0.73919   0.62726   0.15507   0.00000  Uiso   1.00
H400   H     0.79104   0.55888   0.46836   0.00000  Uiso   1.00
H401   H     0.82507   0.42482   0.02920   0.00000  Uiso   1.00
H402   H     0.83907   0.57440   0.11084   0.00000  Uiso   1.00
H403   H     0.87222   0.43971   0.38948   0.00000  Uiso   1.00
H404   H     0.79176   0.55911   0.38754   0.00000  Uiso   1.00
H405   H     0.82669   0.42484   0.10965   0.00000  Uiso   1.00
H406   H     0.70348   0.42584   0.24117   0.00000  Uiso   1.00
N407   N     0.83333   0.61736   0.25000   0.00000  Uiso   1.00
N408   N     0.83333   0.38264   0.25000   0.00000  Uiso   1.00
O409   O     0.77321   0.53958   0.25000   0.00000  Uiso   1.00
O410   O     0.87450   0.61806   0.31618   0.00000  Uiso   1.00
O411   O     0.87943   0.38368   0.31186   0.00000  Uiso   1.00
O412   O     0.79869   0.61852   0.17929   0.00000  Uiso   1.00
O413   O     0.89345   0.46042   0.25001   0.00000  Uiso   1.00
O414   O     0.89345   0.53958   0.25001   0.00000  Uiso   1.00
O415   O     0.77321   0.46042   0.25000   0.00000  Uiso   1.00
O416   O     0.83333   0.53959   0.18573   0.00000  Uiso   1.00
O417   O     0.83334   0.46041   0.31427   0.00000  Uiso   1.00
O418   O     0.83334   0.53959   0.31427   0.00000  Uiso   1.00
O419   O     0.83333   0.46041   0.18573   0.00000  Uiso   1.00
O420   O     0.80025   0.38050   0.17878   0.00000  Uiso   1.00
C421   C     0.08744   0.83339   0.25064   0.00000  Uiso   1.00
C422   C     0.31210   0.87516   0.25792   0.00000  Uiso   1.00
C423   C     0.31192   0.79203   0.24397   0.00000  Uiso   1.00
C424   C     0.02141   0.87513   0.25833   0.00000  Uiso   1.00
C425   C     0.16879   0.87475   0.04745   0.00000  Uiso   1.00
C426   C     0.18746   0.79892   0.45250   0.00000  Uiso   1.00
C427   C     0.14259   0.86643   0.45146   0.00000  Uiso   1.00
C428   C     0.16181   0.79091   0.04681   0.00000  Uiso   1.00
C429   C     0.16925   0.87486   0.09344   0.00000  Uiso   1.00
C430   C     0.18775   0.79910   0.40655   0.00000  Uiso   1.00
C431   C     0.14306   0.86668   0.40550   0.00000  Uiso   1.00
C432   C     0.24589   0.83336   0.25013   0.00000  Uiso   1.00
C433   C     0.16248   0.79098   0.09280   0.00000  Uiso   1.00
C434   C     0.16611   0.83296   0.11648   0.00000  Uiso   1.00
C435   C     0.16594   0.83331   0.38295   0.00000  Uiso   1.00
C436   C     0.16504   0.83278   0.02383   0.00000  Uiso   1.00
C437   C     0.16496   0.83267   0.47528   0.00000  Uiso   1.00
C438   C     0.29053   0.83356   0.25055   0.00000  Uiso   1.00
C439   C     0.04278   0.83349   0.25152   0.00000  Uiso   1.00
C440   C     0.09051   0.72018   0.17782   0.00000  Uiso   1.00
C441   C     0.19063   0.96145   0.35760   0.00000  Uiso   1.00
C442   C     0.25482   0.70647   0.30643   0.00000  Uiso   1.00
C443   C     0.16651   0.83318   0.16495   0.00000  Uiso   1.00
C444   C     0.08950   0.94261   0.18221   0.00000  Uiso   1.00
C445   C     0.16650   0.83343   0.33486   0.00000  Uiso   1.00
C446   C     0.14680   0.69122   0.21673   0.00000  Uiso   1.00
C447   C     0.18672   0.97544   0.28321   0.00000  Uiso   1.00
C448   C     0.18863   0.69200   0.28168   0.00000  Uiso   1.00
C449   C     0.14685   0.97502   0.21667   0.00000  Uiso   1.00
C450   C     0.02111   0.79187   0.24529   0.00000  Uiso   1.00
Cu451  Cu    0.16667   0.88022   0.25000   0.00000  Uiso   1.00
Cu452  Cu    0.16667   0.78645   0.25000   0.00000  Uiso   1.00
H453   H     0.17195   0.90740   0.03038   0.00000  Uiso   1.00
H454   H     0.29613   0.90765   0.26350   0.00000  Uiso   1.00
H455   H     0.29593   0.75970   0.23748   0.00000  Uiso   1.00
H456   H     0.03751   0.90752   0.26436   0.00000  Uiso   1.00
H457   H     0.08364   0.75787   0.17744   0.00000  Uiso   1.00
H458   H     0.07424   0.70376   0.20557   0.00000  Uiso   1.00
H459   H     0.07763   0.70603   0.14615   0.00000  Uiso   1.00
H460   H     0.20127   0.93464   0.38143   0.00000  Uiso   1.00
H461   H     0.15633   0.96072   0.35605   0.00000  Uiso   1.00
H462   H     0.20155   0.99526   0.37119   0.00000  Uiso   1.00
H463   H     0.27331   0.73717   0.31702   0.00000  Uiso   1.00
H464   H     0.20531   0.77288   0.47023   0.00000  Uiso   1.00
H465   H     0.26247   0.69819   0.27154   0.00000  Uiso   1.00
H466   H     0.26452   0.67734   0.32814   0.00000  Uiso   1.00
H467   H     0.07580   0.95269   0.21428   0.00000  Uiso   1.00
H468   H     0.08419   0.90502   0.17630   0.00000  Uiso   1.00
H469   H     0.07252   0.96060   0.15507   0.00000  Uiso   1.00
H470   H     0.12438   0.89221   0.46836   0.00000  Uiso   1.00
H471   H     0.15841   0.75816   0.02920   0.00000  Uiso   1.00
H472   H     0.17241   0.90773   0.11084   0.00000  Uiso   1.00
H473   H     0.20555   0.77305   0.38948   0.00000  Uiso   1.00
H474   H     0.12510   0.89244   0.38754   0.00000  Uiso   1.00
H475   H     0.16002   0.75817   0.10965   0.00000  Uiso   1.00
H476   H     0.03682   0.75918   0.24117   0.00000  Uiso   1.00
N477   N     0.16667   0.95069   0.25000   0.00000  Uiso   1.00
N478   N     0.16667   0.71598   0.25000   0.00000  Uiso   1.00
O479   O     0.10655   0.87291   0.25000   0.00000  Uiso   1.00
O480   O     0.20784   0.95139   0.31618   0.00000  Uiso   1.00
O481   O     0.21276   0.71702   0.31186   0.00000  Uiso   1.00
O482   O     0.13202   0.95185   0.17929   0.00000  Uiso   1.00
O483   O     0.22679   0.79375   0.25001   0.00000  Uiso   1.00
O484   O     0.22679   0.87291   0.25001   0.00000  Uiso   1.00
O485   O     0.10655   0.79375   0.25000   0.00000  Uiso   1.00
O486   O     0.16666   0.87293   0.18573   0.00000  Uiso   1.00
O487   O     0.16667   0.79374   0.31427   0.00000  Uiso   1.00
O488   O     0.16667   0.87293   0.31427   0.00000  Uiso   1.00
O489   O     0.16666   0.79374   0.18573   0.00000  Uiso   1.00
O490   O     0.13358   0.71383   0.17878   0.00000  Uiso   1.00
C491   C     0.42077   0.83339   0.25064   0.00000  Uiso   1.00
C492   C     0.64543   0.87516   0.25792   0.00000  Uiso   1.00
C493   C     0.64526   0.79203   0.24397   0.00000  Uiso   1.00
C494   C     0.35474   0.87513   0.25833   0.00000  Uiso   1.00
C495   C     0.50212   0.87475   0.04745   0.00000  Uiso   1.00
C496   C     0.52079   0.79892   0.45250   0.00000  Uiso   1.00
C497   C     0.47592   0.86643   0.45146   0.00000  Uiso   1.00
C498   C     0.49515   0.79091   0.04681   0.00000  Uiso   1.00
C499   C     0.50259   0.87486   0.09344   0.00000  Uiso   1.00
C500   C     0.52109   0.79910   0.40655   0.00000  Uiso   1.00
C501   C     0.47639   0.86668   0.40550   0.00000  Uiso   1.00
C502   C     0.57922   0.83336   0.25013   0.00000  Uiso   1.00
C503   C     0.49581   0.79098   0.09280   0.00000  Uiso   1.00
C504   C     0.49945   0.83296   0.11648   0.00000  Uiso   1.00
C505   C     0.49927   0.83331   0.38295   0.00000  Uiso   1.00
C506   C     0.49838   0.83278   0.02383   0.00000  Uiso   1.00
C507   C     0.49829   0.83267   0.47528   0.00000  Uiso   1.00
C508   C     0.62386   0.83356   0.25055   0.00000  Uiso   1.00
C509   C     0.37611   0.83349   0.25152   0.00000  Uiso   1.00
C510   C     0.42385   0.72018   0.17782   0.00000  Uiso   1.00
C511   C     0.52396   0.96145   0.35760   0.00000  Uiso   1.00
C512   C     0.58815   0.70647   0.30643   0.00000  Uiso   1.00
C513   C     0.49984   0.83318   0.16495   0.00000  Uiso   1.00
C514   C     0.42283   0.94261   0.18221   0.00000  Uiso   1.00
C515   C     0.49983   0.83343   0.33486   0.00000  Uiso   1.00
C516   C     0.48014   0.69122   0.21673   0.00000  Uiso   1.00
C517   C     0.52005   0.97544   0.28321   0.00000  Uiso   1.00
C518   C     0.52197   0.69200   0.28168   0.00000  Uiso   1.00
C519   C     0.48018   0.97502   0.21667   0.00000  Uiso   1.00
C520   C     0.35444   0.79187   0.24529   0.00000  Uiso   1.00
Cu521  Cu    0.50000   0.88022   0.25000   0.00000  Uiso   1.00
Cu522  Cu    0.50000   0.78645   0.25000   0.00000  Uiso   1.00
H523   H     0.50529   0.90740   0.03038   0.00000  Uiso   1.00
H524   H     0.62946   0.90765   0.26350   0.00000  Uiso   1.00
H525   H     0.62926   0.75970   0.23748   0.00000  Uiso   1.00
H526   H     0.37085   0.90752   0.26436   0.00000  Uiso   1.00
H527   H     0.41697   0.75787   0.17744   0.00000  Uiso   1.00
H528   H     0.40757   0.70376   0.20557   0.00000  Uiso   1.00
H529   H     0.41096   0.70603   0.14615   0.00000  Uiso   1.00
H530   H     0.53461   0.93464   0.38143   0.00000  Uiso   1.00
H531   H     0.48967   0.96072   0.35605   0.00000  Uiso   1.00
H532   H     0.53488   0.99526   0.37119   0.00000  Uiso   1.00
H533   H     0.60664   0.73717   0.31702   0.00000  Uiso   1.00
H534   H     0.53865   0.77288   0.47023   0.00000  Uiso   1.00
H535   H     0.59580   0.69819   0.27154   0.00000  Uiso   1.00
H536   H     0.59785   0.67734   0.32814   0.00000  Uiso   1.00
H537   H     0.40913   0.95269   0.21428   0.00000  Uiso   1.00
H538   H     0.41753   0.90502   0.17630   0.00000  Uiso   1.00
H539   H     0.40586   0.96060   0.15507   0.00000  Uiso   1.00
H540   H     0.45771   0.89221   0.46836   0.00000  Uiso   1.00
H541   H     0.49174   0.75816   0.02920   0.00000  Uiso   1.00
H542   H     0.50574   0.90773   0.11084   0.00000  Uiso   1.00
H543   H     0.53889   0.77305   0.38948   0.00000  Uiso   1.00
H544   H     0.45843   0.89244   0.38754   0.00000  Uiso   1.00
H545   H     0.49336   0.75817   0.10965   0.00000  Uiso   1.00
H546   H     0.37015   0.75918   0.24117   0.00000  Uiso   1.00
N547   N     0.50000   0.95069   0.25000   0.00000  Uiso   1.00
N548   N     0.50000   0.71598   0.25000   0.00000  Uiso   1.00
O549   O     0.43988   0.87291   0.25000   0.00000  Uiso   1.00
O550   O     0.54117   0.95139   0.31618   0.00000  Uiso   1.00
O551   O     0.54610   0.71702   0.31186   0.00000  Uiso   1.00
O552   O     0.46535   0.95185   0.17929   0.00000  Uiso   1.00
O553   O     0.56012   0.79375   0.25001   0.00000  Uiso   1.00
O554   O     0.56012   0.87291   0.25001   0.00000  Uiso   1.00
O555   O     0.43988   0.79375   0.25000   0.00000  Uiso   1.00
O556   O     0.50000   0.87293   0.18573   0.00000  Uiso   1.00
O557   O     0.50000   0.79374   0.31427   0.00000  Uiso   1.00
O558   O     0.50000   0.87293   0.31427   0.00000  Uiso   1.00
O559   O     0.50000   0.79374   0.18573   0.00000  Uiso   1.00
O560   O     0.46691   0.71383   0.17878   0.00000  Uiso   1.00
C561   C     0.75411   0.83339   0.25064   0.00000  Uiso   1.00
C562   C     0.97876   0.87516   0.25792   0.00000  Uiso   1.00
C563   C     0.97859   0.79203   0.24397   0.00000  Uiso   1.00
C564   C     0.68807   0.87513   0.25833   0.00000  Uiso   1.00
C565   C     0.83545   0.87475   0.04745   0.00000  Uiso   1.00
C566   C     0.85413   0.79892   0.45250   0.00000  Uiso   1.00
C567   C     0.80926   0.86643   0.45146   0.00000  Uiso   1.00
C568   C     0.82848   0.79091   0.04681   0.00000  Uiso   1.00
C569   C     0.83592   0.87486   0.09344   0.00000  Uiso   1.00
C570   C     0.85442   0.79910   0.40655   0.00000  Uiso   1.00
C571   C     0.80972   0.86668   0.40550   0.00000  Uiso   1.00
C572   C     0.91255   0.83336   0.25013   0.00000  Uiso   1.00
C573   C     0.82915   0.79098   0.09280   0.00000  Uiso   1.00
C574   C     0.83278   0.83296   0.11648   0.00000  Uiso   1.00
C575   C     0.83261   0.83331   0.38295   0.00000  Uiso   1.00
C576   C     0.83171   0.83278   0.02383   0.00000  Uiso   1.00
C577   C     0.83163   0.83267   0.47528   0.00000  Uiso   1.00
C578   C     0.95719   0.83356   0.25055   0.00000  Uiso   1.00
C579   C     0.70944   0.83349   0.25152   0.00000  Uiso   1.00
C580   C     0.75718   0.72018   0.17782   0.00000  Uiso   1.00
C581   C     0.85729   0.96145   0.35760   0.00000  Uiso   1.00
C582   C     0.92149   0.70647   0.30643   0.00000  Uiso   1.00
C583   C     0.83317   0.83318   0.16495   0.00000  Uiso   1.00
C584   C     0.75617   0.94261   0.18221   0.00000  Uiso   1.00
C585   C     0.83316   0.83343   0.33486   0.00000  Uiso   1.00
C586   C     0.81347   0.69122   0.21673   0.00000  Uiso   1.00
C587   C     0.85339   0.97544   0.28321   0.00000  Uiso   1.00
C588   C     0.85530   0.69200   0.28168   0.00000  Uiso   1.00
C589   C     0.81352   0.97502   0.21667   0.00000  Uiso   1.00
C590   C     0.68777   0.79187   0.24529   0.00000  Uiso   1.00
Cu591  Cu    0.83333   0.88022   0.25000   0.00000  Uiso   1.00
Cu592  Cu    0.83333   0.78645   0.25000   0.00000  Uiso   1.00
H593   H     0.83862   0.90740   0.03038   0.00000  Uiso   1.00
H594   H     0.96279   0.90765   0.26350   0.00000  Uiso   1.00
H595   H     0.96260   0.75970   0.23748   0.00000  Uiso   1.00
H596   H     0.70418   0.90752   0.26436   0.00000  Uiso   1.00
H597   H     0.75030   0.75787   0.17744   0.00000  Uiso   1.00
H598   H     0.74091   0.70376   0.20557   0.00000  Uiso   1.00
H599   H     0.74429   0.70603   0.14615   0.00000  Uiso   1.00
H600   H     0.86794   0.93464   0.38143   0.00000  Uiso   1.00
H601   H     0.82300   0.96072   0.35605   0.00000  Uiso   1.00
H602   H     0.86821   0.99526   0.37119   0.00000  Uiso   1.00
H603   H     0.93997   0.73717   0.31702   0.00000  Uiso   1.00
H604   H     0.87198   0.77288   0.47023   0.00000  Uiso   1.00
H605   H     0.92913   0.69819   0.27154   0.00000  Uiso   1.00
H606   H     0.93118   0.67734   0.32814   0.00000  Uiso   1.00
H607   H     0.74246   0.95269   0.21428   0.00000  Uiso   1.00
H608   H     0.75086   0.90502   0.17630   0.00000  Uiso   1.00
H609   H     0.73919   0.96060   0.15507   0.00000  Uiso   1.00
H610   H     0.79104   0.89221   0.46836   0.00000  Uiso   1.00
H611   H     0.82507   0.75816   0.02920   0.00000  Uiso   1.00
H612   H     0.83907   0.90773   0.11084   0.00000  Uiso   1.00
H613   H     0.87222   0.77305   0.38948   0.00000  Uiso   1.00
H614   H     0.79176   0.89244   0.38754   0.00000  Uiso   1.00
H615   H     0.82669   0.75817   0.10965   0.00000  Uiso   1.00
H616   H     0.70348   0.75918   0.24117   0.00000  Uiso   1.00
N617   N     0.83333   0.95069   0.25000   0.00000  Uiso   1.00
N618   N     0.83333   0.71598   0.25000   0.00000  Uiso   1.00
O619   O     0.77321   0.87291   0.25000   0.00000  Uiso   1.00
O620   O     0.87450   0.95139   0.31618   0.00000  Uiso   1.00
O621   O     0.87943   0.71702   0.31186   0.00000  Uiso   1.00
O622   O     0.79869   0.95185   0.17929   0.00000  Uiso   1.00
O623   O     0.89345   0.79375   0.25001   0.00000  Uiso   1.00
O624   O     0.89345   0.87291   0.25001   0.00000  Uiso   1.00
O625   O     0.77321   0.79375   0.25000   0.00000  Uiso   1.00
O626   O     0.83333   0.87293   0.18573   0.00000  Uiso   1.00
O627   O     0.83334   0.79374   0.31427   0.00000  Uiso   1.00
O628   O     0.83334   0.87293   0.31427   0.00000  Uiso   1.00
O629   O     0.83333   0.79374   0.18573   0.00000  Uiso   1.00
O630   O     0.80025   0.71383   0.17878   0.00000  Uiso   1.00
C631   C     0.08744   0.16672   0.75064   0.00000  Uiso   1.00
C632   C     0.31210   0.20850   0.75792   0.00000  Uiso   1.00
C633   C     0.31192   0.12536   0.74397   0.00000  Uiso   1.00
C634   C     0.02141   0.20846   0.75833   0.00000  Uiso   1.00
C635   C     0.16879   0.20808   0.54745   0.00000  Uiso   1.00
C636   C     0.18746   0.13225   0.95250   0.00000  Uiso   1.00
C637   C     0.14259   0.19976   0.95146   0.00000  Uiso   1.00
C638   C     0.16181   0.12424   0.54681   0.00000  Uiso   1.00
C639   C     0.16925   0.20819   0.59344   0.00000  Uiso   1.00
C640   C     0.18775   0.13244   0.90655   0.00000  Uiso   1.00
C641   C     0.14306   0.20002   0.90550   0.00000  Uiso   1.00
C642   C     0.24589   0.16670   0.75013   0.00000  Uiso   1.00
C643   C     0.16248   0.12431   0.59280   0.00000  Uiso   1.00
C644   C     0.16611   0.16629   0.61648   0.00000  Uiso   1.00
C645   C     0.16594   0.16664   0.88295   0.00000  Uiso   1.00
C646   C     0.16504   0.16611   0.52383   0.00000  Uiso   1.00
C647   C     0.16496   0.16600   0.97528   0.00000  Uiso   1.00
C648   C     0.29053   0.16689   0.75055   0.00000  Uiso   1.00
C649   C     0.04278   0.16682   0.75152   0.00000  Uiso   1.00
C650   C     0.09051   0.05352   0.67782   0.00000  Uiso   1.00
C651   C     0.19063   0.29478   0.85760   0.00000  Uiso   1.00
C652   C     0.25482   0.03980   0.80643   0.00000  Uiso   1.00
C653   C     0.16651   0.16652   0.66495   0.00000  Uiso   1.00
C654   C     0.08950   0.27594   0.68221   0.00000  Uiso   1.00
C655   C     0.16650   0.16676   0.83486   0.00000  Uiso   1.00
C656   C     0.14680   0.02455   0.71673   0.00000  Uiso   1.00
C657   C     0.18672   0.30877   0.78321   0.00000  Uiso   1.00
C658   C     0.18863   0.02534   0.78168   0.00000  Uiso   1.00
C659   C     0.14685   0.30835   0.71667   0.00000  Uiso   1.00
C660   C     0.02111   0.12520   0.74529   0.00000  Uiso   1.00
Cu661  Cu    0.16667   0.21355   0.75000   0.00000  Uiso   1.00
Cu662  Cu    0.16667   0.11978   0.75000   0.00000  Uiso   1.00
H663   H     0.17195   0.24074   0.53038   0.00000  Uiso   1.00
H664   H     0.29613   0.24098   0.76350   0.00000  Uiso   1.00
H665   H     0.29593   0.09303   0.73748   0.00000  Uiso   1.00
H666   H     0.03751   0.24085   0.76436   0.00000  Uiso   1.00
H667   H     0.08364   0.09120   0.67744   0.00000  Uiso   1.00
H668   H     0.07424   0.03710   0.70557   0.00000  Uiso   1.00
H669   H     0.07763   0.03936   0.64615   0.00000  Uiso   1.00
H670   H     0.20127   0.26797   0.88143   0.00000  Uiso   1.00
H671   H     0.15633   0.29405   0.85605   0.00000  Uiso   1.00
H672   H     0.20155   0.32859   0.87119   0.00000  Uiso   1.00
H673   H     0.27331   0.07050   0.81702   0.00000  Uiso   1.00
H674   H     0.20531   0.10621   0.97023   0.00000  Uiso   1.00
H675   H     0.26247   0.03152   0.77154   0.00000  Uiso   1.00
H676   H     0.26452   0.01067   0.82814   0.00000  Uiso   1.00
H677   H     0.07580   0.28602   0.71428   0.00000  Uiso   1.00
H678   H     0.08419   0.23835   0.67630   0.00000  Uiso   1.00
H679   H     0.07252   0.29393   0.65507   0.00000  Uiso   1.00
H680   H     0.12438   0.22555   0.96836   0.00000  Uiso   1.00
H681   H     0.15841   0.09149   0.52920   0.00000  Uiso   1.00
H682   H     0.17241   0.24107   0.61084   0.00000  Uiso   1.00
H683   H     0.20555   0.10638   0.88948   0.00000  Uiso   1.00
H684   H     0.12510   0.22578   0.88754   0.00000  Uiso   1.00
H685   H     0.16002   0.09150   0.60965   0.00000  Uiso   1.00
H686   H     0.03682   0.09251   0.74117   0.00000  Uiso   1.00
N687   N     0.16667   0.28402   0.75000   0.00000  Uiso   1.00
N688   N     0.16667   0.04931   0.75000   0.00000  Uiso   1.00
O689   O     0.10655   0.20625   0.75000   0.00000  Uiso   1.00
O690   O     0.20784   0.28472   0.81618   0.00000  Uiso   1.00
O691   O     0.21276   0.05035   0.81186   0.00000  Uiso   1.00
O692   O     0.13202   0.28518   0.67929   0.00000  Uiso   1.00
O693   O     0.22679   0.12709   0.75001   0.00000  Uiso   1.00
O694   O     0.22679   0.20625   0.75001   0.00000  Uiso   1.00
O695   O     0.10655   0.12709   0.75000   0.00000  Uiso   1.00
O696   O     0.16666   0.20626   0.68573   0.00000  Uiso   1.00
O697   O     0.16667   0.12707   0.81427   0.00000  Uiso   1.00
O698   O     0.16667   0.20626   0.81427   0.00000  Uiso   1.00
O699   O     0.16666   0.12707   0.68573   0.00000  Uiso   1.00
O700   O     0.13358   0.04716   0.67878   0.00000  Uiso   1.00
C701   C     0.42077   0.16672   0.75064   0.00000  Uiso   1.00
C702   C     0.64543   0.20850   0.75792   0.00000  Uiso   1.00
C703   C     0.64526   0.12536   0.74397   0.00000  Uiso   1.00
C704   C     0.35474   0.20846   0.75833   0.00000  Uiso   1.00
C705   C     0.50212   0.20808   0.54745   0.00000  Uiso   1.00
C706   C     0.52079   0.13225   0.95250   0.00000  Uiso   1.00
C707   C     0.47592   0.19976   0.95146   0.00000  Uiso   1.00
C708   C     0.49515   0.12424   0.54681   0.00000  Uiso   1.00
C709   C     0.50259   0.20819   0.59344   0.00000  Uiso   1.00
C710   C     0.52109   0.13244   0.90655   0.00000  Uiso   1.00
C711   C     0.47639   0.20002   0.90550   0.00000  Uiso   1.00
C712   C     0.57922   0.16670   0.75013   0.00000  Uiso   1.00
C713   C     0.49581   0.12431   0.59280   0.00000  Uiso   1.00
C714   C     0.49945   0.16629   0.61648   0.00000  Uiso   1.00
C715   C     0.49927   0.16664   0.88295   0.00000  Uiso   1.00
C716   C     0.49838   0.16611   0.52383   0.00000  Uiso   1.00
C717   C     0.49829   0.16600   0.97528   0.00000  Uiso   1.00
C718   C     0.62386   0.16689   0.75055   0.00000  Uiso   1.00
C719   C     0.37611   0.16682   0.75152   0.00000  Uiso   1.00
C720   C     0.42385   0.05352   0.67782   0.00000  Uiso   1.00
C721   C     0.52396   0.29478   0.85760   0.00000  Uiso   1.00
C722   C     0.58815   0.03980   0.80643   0.00000  Uiso   1.00
C723   C     0.49984   0.16652   0.66495   0.00000  Uiso   1.00
C724   C     0.42283   0.27594   0.68221   0.00000  Uiso   1.00
C725   C     0.49983   0.16676   0.83486   0.00000  Uiso   1.00
C726   C     0.48014   0.02455   0.71673   0.00000  Uiso   1.00
C727   C     0.52005   0.30877   0.78321   0.00000  Uiso   1.00
C728   C     0.52197   0.02534   0.78168   0.00000  Uiso   1.00
C729   C     0.48018   0.30835   0.71667   0.00000  Uiso   1.00
C730   C     0.35444   0.12520   0.74529   0.00000  Uiso   1.00
Cu731  Cu    0.50000   0.21355   0.75000   0.00000  Uiso   1.00
Cu732  Cu    0.50000   0.11978   0.75000   0.00000  Uiso   1.00
H733   H     0.50529   0.24074   0.53038   0.00000  Uiso   1.00
H734   H     0.62946   0.24098   0.76350   0.00000  Uiso   1.00
H735   H     0.62926   0.09303   0.73748   0.00000  Uiso   1.00
H736   H     0.37085   0.24085   0.76436   0.00000  Uiso   1.00
H737   H     0.41697   0.09120   0.67744   0.00000  Uiso   1.00
H738   H     0.40757   0.03710   0.70557   0.00000  Uiso   1.00
H739   H     0.41096   0.03936   0.64615   0.00000  Uiso   1.00
H740   H     0.53461   0.26797   0.88143   0.00000  Uiso   1.00
H741   H     0.48967   0.29405   0.85605   0.00000  Uiso   1.00
H742   H     0.53488   0.32859   0.87119   0.00000  Uiso   1.00
H743   H     0.60664   0.07050   0.81702   0.00000  Uiso   1.00
H744   H     0.53865   0.10621   0.97023   0.00000  Uiso   1.00
H745   H     0.59580   0.03152   0.77154   0.00000  Uiso   1.00
H746   H     0.59785   0.01067   0.82814   0.00000  Uiso   1.00
H747   H     0.40913   0.28602   0.71428   0.00000  Uiso   1.00
H748   H     0.41753   0.23835   0.67630   0.00000  Uiso   1.00
H749   H     0.40586   0.29393   0.65507   0.00000  Uiso   1.00
H750   H     0.45771   0.22555   0.96836   0.00000  Uiso   1.00
H751   H     0.49174   0.09149   0.52920   0.00000  Uiso   1.00
H752   H     0.50574   0.24107   0.61084   0.00000  Uiso   1.00
H753   H     0.53889   0.10638   0.88948   0.00000  Uiso   1.00
H754   H     0.45843   0.22578   0.88754   0.00000  Uiso   1.00
H755   H     0.49336   0.09150   0.60965   0.00000  Uiso   1.00
H756   H     0.37015   0.09251   0.74117   0.00000  Uiso   1.00
N757   N     0.50000   0.28402   0.75000   0.00000  Uiso   1.00
N758   N     0.50000   0.04931   0.75000   0.00000  Uiso   1.00
O759   O     0.43988   0.20625   0.75000   0.00000  Uiso   1.00
O760   O     0.54117   0.28472   0.81618   0.00000  Uiso   1.00
O761   O     0.54610   0.05035   0.81186   0.00000  Uiso   1.00
O762   O     0.46535   0.28518   0.67929   0.00000  Uiso   1.00
O763   O     0.56012   0.12709   0.75001   0.00000  Uiso   1.00
O764   O     0.56012   0.20625   0.75001   0.00000  Uiso   1.00
O765   O     0.43988   0.12709   0.75000   0.00000  Uiso   1.00
O766   O     0.50000   0.20626   0.68573   0.00000  Uiso   1.00
O767   O     0.50000   0.12707   0.81427   0.00000  Uiso   1.00
O768   O     0.50000   0.20626   0.81427   0.00000  Uiso   1.00
O769   O     0.50000   0.12707   0.68573   0.00000  Uiso   1.00
O770   O     0.46691   0.04716   0.67878   0.00000  Uiso   1.00
C771   C     0.75411   0.16672   0.75064   0.00000  Uiso   1.00
C772   C     0.97876   0.20850   0.75792   0.00000  Uiso   1.00
C773   C     0.97859   0.12536   0.74397   0.00000  Uiso   1.00
C774   C     0.68807   0.20846   0.75833   0.00000  Uiso   1.00
C775   C     0.83545   0.20808   0.54745   0.00000  Uiso   1.00
C776   C     0.85413   0.13225   0.95250   0.00000  Uiso   1.00
C777   C     0.80926   0.19976   0.95146   0.00000  Uiso   1.00
C778   C     0.82848   0.12424   0.54681   0.00000  Uiso   1.00
C779   C     0.83592   0.20819   0.59344   0.00000  Uiso   1.00
C780   C     0.85442   0.13244   0.90655   0.00000  Uiso   1.00
C781   C     0.80972   0.20002   0.90550   0.00000  Uiso   1.00
C782   C     0.91255   0.16670   0.75013   0.00000  Uiso   1.00
C783   C     0.82915   0.12431   0.59280   0.00000  Uiso   1.00
C784   C     0.83278   0.16629   0.61648   0.00000  Uiso   1.00
C785   C     0.83261   0.16664   0.88295   0.00000  Uiso   1.00
C786   C     0.83171   0.16611   0.52383   0.00000  Uiso   1.00
C787   C     0.83163   0.16600   0.97528   0.00000  Uiso   1.00
C788   C     0.95719   0.16689   0.75055   0.00000  Uiso   1.00
C789   C     0.70944   0.16682   0.75152   0.00000  Uiso   1.00
C790   C     0.75718   0.05352   0.67782   0.00000  Uiso   1.00
C791   C     0.85729   0.29478   0.85760   0.00000  Uiso   1.00
C792   C     0.92149   0.03980   0.80643   0.00000  Uiso   1.00
C793   C     0.83317   0.16652   0.66495   0.00000  Uiso   1.00
C794   C     0.75617   0.27594   0.68221   0.00000  Uiso   1.00
C795   C     0.83316   0.16676   0.83486   0.00000  Uiso   1.00
C796   C     0.81347   0.02455   0.71673   0.00000  Uiso   1.00
C797   C     0.85339   0.30877   0.78321   0.00000  Uiso   1.00
C798   C     0.85530   0.02534   0.78168   0.00000  Uiso   1.00
C799   C     0.81352   0.30835   0.71667   0.00000  Uiso   1.00
C800   C     0.68777   0.12520   0.74529   0.00000  Uiso   1.00
Cu801  Cu    0.83333   0.21355   0.75000   0.00000  Uiso   1.00
Cu802  Cu    0.83333   0.11978   0.75000   0.00000  Uiso   1.00
H803   H     0.83862   0.24074   0.53038   0.00000  Uiso   1.00
H804   H     0.96279   0.24098   0.76350   0.00000  Uiso   1.00
H805   H     0.96260   0.09303   0.73748   0.00000  Uiso   1.00
H806   H     0.70418   0.24085   0.76436   0.00000  Uiso   1.00
H807   H     0.75030   0.09120   0.67744   0.00000  Uiso   1.00
H808   H     0.74091   0.03710   0.70557   0.00000  Uiso   1.00
H809   H     0.74429   0.03936   0.64615   0.00000  Uiso   1.00
H810   H     0.86794   0.26797   0.88143   0.00000  Uiso   1.00
H811   H     0.82300   0.29405   0.85605   0.00000  Uiso   1.00
H812   H     0.86821   0.32859   0.87119   0.00000  Uiso   1.00
H813   H     0.93997   0.07050   0.81702   0.00000  Uiso   1.00
H814   H     0.87198   0.10621   0.97023   0.00000  Uiso   1.00
H815   H     0.92913   0.03152   0.77154   0.00000  Uiso   1.00
H816   H     0.93118   0.01067   0.82814   0.00000  Uiso   1.00
H817   H     0.74246   0.28602   0.71428   0.00000  Uiso   1.00
H818   H     0.75086   0.23835   0.67630   0.00000  Uiso   1.00
H819   H     0.73919   0.29393   0.65507   0.00000  Uiso   1.00
H820   H     0.79104   0.22555   0.96836   0.00000  Uiso   1.00
H821   H     0.82507   0.09149   0.52920   0.00000  Uiso   1.00
H822   H     0.83907   0.24107   0.61084   0.00000  Uiso   1.00
H823   H     0.87222   0.10638   0.88948   0.00000  Uiso   1.00
H824   H     0.79176   0.22578   0.88754   0.00000  Uiso   1.00
H825   H     0.82669   0.09150   0.60965   0.00000  Uiso   1.00
H826   H     0.70348   0.09251   0.74117   0.00000  Uiso   1.00
N827   N     0.83333   0.28402   0.75000   0.00000  Uiso   1.00
N828   N     0.83333   0.04931   0.75000   0.00000  Uiso   1.00
O829   O     0.77321   0.20625   0.75000   0.00000  Uiso   1.00
O830   O     0.87450   0.28472   0.81618   0.00000  Uiso   1.00
O831   O     0.87943   0.05035   0.81186   0.00000  Uiso   1.00
O832   O     0.79869   0.28518   0.67929   0.00000  Uiso   1.00
O833   O     0.89345   0.12709   0.75001   0.00000  Uiso   1.00
O834   O     0.89345   0.20625   0.75001   0.00000  Uiso   1.00
O835   O     0.77321   0.12709   0.75000   0.00000  Uiso   1.00
O836   O     0.83333   0.20626   0.68573   0.00000  Uiso   1.00
O837   O     0.83334   0.12707   0.81427   0.00000  Uiso   1.00
O838   O     0.83334   0.20626   0.81427   0.00000  Uiso   1.00
O839   O     0.83333   0.12707   0.68573   0.00000  Uiso   1.00
O840   O     0.80025   0.04716   0.67878   0.00000  Uiso   1.00
C841   C     0.08744   0.50005   0.75064   0.00000  Uiso   1.00
C842   C     0.31210   0.54183   0.75792   0.00000  Uiso   1.00
C843   C     0.31192   0.45869   0.74397   0.00000  Uiso   1.00
C844   C     0.02141   0.54179   0.75833   0.00000  Uiso   1.00
C845   C     0.16879   0.54141   0.54745   0.00000  Uiso   1.00
C846   C     0.18746   0.46559   0.95250   0.00000  Uiso   1.00
C847   C     0.14259   0.53309   0.95146   0.00000  Uiso   1.00
C848   C     0.16181   0.45757   0.54681   0.00000  Uiso   1.00
C849   C     0.16925   0.54152   0.59344   0.00000  Uiso   1.00
C850   C     0.18775   0.46577   0.90655   0.00000  Uiso   1.00
C851   C     0.14306   0.53335   0.90550   0.00000  Uiso   1.00
C852   C     0.24589   0.50003   0.75013   0.00000  Uiso   1.00
C853   C     0.16248   0.45764   0.59280   0.00000  Uiso   1.00
C854   C     0.16611   0.49963   0.61648   0.00000  Uiso   1.00
C855   C     0.16594   0.49997   0.88295   0.00000  Uiso   1.00
C856   C     0.16504   0.49944   0.52383   0.00000  Uiso   1.00
C857   C     0.16496   0.49933   0.97528   0.00000  Uiso   1.00
C858   C     0.29053   0.50022   0.75055   0.00000  Uiso   1.00
C859   C     0.04278   0.50015   0.75152   0.00000  Uiso   1.00
C860   C     0.09051   0.38685   0.67782   0.00000  Uiso   1.00
C861   C     0.19063   0.62812   0.85760   0.00000  Uiso   1.00
C862   C     0.25482   0.37314   0.80643   0.00000  Uiso   1.00
C863   C     0.16651   0.49985   0.66495   0.00000  Uiso   1.00
C864   C     0.08950   0.60928   0.68221   0.00000  Uiso   1.00
C865   C     0.16650   0.50010   0.83486   0.00000  Uiso   1.00
C866   C     0.14680   0.35788   0.71673   0.00000  Uiso   1.00
C867   C     0.18672   0.64211   0.78321   0.00000  Uiso   1.00
C868   C     0.18863   0.35867   0.78168   0.00000  Uiso   1.00
C869   C     0.14685   0.64168   0.71667   0.00000  Uiso   1.00
C870   C     0.02111   0.45854   0.74529   0.00000  Uiso   1.00
Cu871  Cu    0.16667   0.54689   0.75000   0.00000  Uiso   1.00
Cu872  Cu    0.16667   0.45311   0.75000   0.00000  Uiso   1.00
H873   H     0.17195   0.57407   0.53038   0.00000  Uiso   1.00
H874   H     0.29613   0.57432   0.76350   0.00000  Uiso   1.00
H875   H     0.29593   0.42636   0.73748   0.00000  Uiso   1.00
H876   H     0.03751   0.57419   0.76436   0.00000  Uiso   1.00
H877   H     0.08364   0.42454   0.67744   0.00000  Uiso   1.00
H878   H     0.07424   0.37043   0.70557   0.00000  Uiso   1.00
H879   H     0.07763   0.37270   0.64615   0.00000  Uiso   1.00
H880   H     0.20127   0.60131   0.88143   0.00000  Uiso   1.00
H881   H     0.15633   0.62739   0.85605   0.00000  Uiso   1.00
H882   H     0.20155   0.66193   0.87119   0.00000  Uiso   1.00
H883   H     0.27331   0.40384   0.81702   0.00000  Uiso   1.00
H884   H     0.20531   0.43955   0.97023   0.00000  Uiso   1.00
H885   H     0.26247   0.36486   0.77154   0.00000  Uiso   1.00
H886   H     0.26452   0.34401   0.82814   0.00000  Uiso   1.00
H887   H     0.07580   0.61935   0.71428   0.00000  Uiso   1.00
H888   H     0.08419   0.57168   0.67630   0.00000  Uiso   1.00
H889   H     0.07252   0.62726   0.65507   0.00000  Uiso   1.00
H890   H     0.12438   0.55888   0.96836   0.00000  Uiso   1.00
H891   H     0.15841   0.42482   0.52920   0.00000  Uiso   1.00
H892   H     0.17241   0.57440   0.61084   0.00000  Uiso   1.00
H893   H     0.20555   0.43971   0.88948   0.00000  Uiso   1.00
H894   H     0.12510   0.55911   0.88754   0.00000  Uiso   1.00
H895   H     0.16002   0.42484   0.60965   0.00000  Uiso   1.00
H896   H     0.03682   0.42584   0.74117   0.00000  Uiso   1.00
N897   N     0.16667   0.61736   0.75000   0.00000  Uiso   1.00
N898   N     0.16667   0.38264   0.75000   0.00000  Uiso   1.00
O899   O     0.10655   0.53958   0.75000   0.00000  Uiso   1.00
O900   O     0.20784   0.61806   0.81618   0.00000  Uiso   1.00
O901   O     0.21276   0.38368   0.81186   0.00000  Uiso   1.00
O902   O     0.13202   0.61852   0.67929   0.00000  Uiso   1.00
O903   O     0.22679   0.46042   0.75001   0.00000  Uiso   1.00
O904   O     0.22679   0.53958   0.75001   0.00000  Uiso   1.00
O905   O     0.10655   0.46042   0.75000   0.00000  Uiso   1.00
O906   O     0.16666   0.53959   0.68573   0.00000  Uiso   1.00
O907   O     0.16667   0.46041   0.81427   0.00000  Uiso   1.00
O908   O     0.16667   0.53959   0.81427   0.00000  Uiso   1.00
O909   O     0.16666   0.46041   0.68573   0.00000  Uiso   1.00
O910   O     0.13358   0.38050   0.67878   0.00000  Uiso   1.00
C911   C     0.42077   0.50005   0.75064   0.00000  Uiso   1.00
C912   C     0.64543   0.54183   0.75792   0.00000  Uiso   1.00
C913   C     0.64526   0.45869   0.74397   0.00000  Uiso   1.00
C914   C     0.35474   0.54179   0.75833   0.00000  Uiso   1.00
C915   C     0.50212   0.54141   0.54745   0.00000  Uiso   1.00
C916   C     0.52079   0.46559   0.95250   0.00000  Uiso   1.00
C917   C     0.47592   0.53309   0.95146   0.00000  Uiso   1.00
C918   C     0.49515   0.45757   0.54681   0.00000  Uiso   1.00
C919   C     0.50259   0.54152   0.59344   0.00000  Uiso   1.00
C920   C     0.52109   0.46577   0.90655   0.00000  Uiso   1.00
C921   C     0.47639   0.53335   0.90550   0.00000  Uiso   1.00
C922   C     0.57922   0.50003   0.75013   0.00000  Uiso   1.00
C923   C     0.49581   0.45764   0.59280   0.00000  Uiso   1.00
C924   C     0.49945   0.49963   0.61648   0.00000  Uiso   1.00
C925   C     0.49927   0.49997   0.88295   0.00000  Uiso   1.00
C926   C     0.49838   0.49944   0.52383   0.00000  Uiso   1.00
C927   C     0.49829   0.49933   0.97528   0.00000  Uiso   1.00
C928   C     0.62386   0.50022   0.75055   0.00000  Uiso   1.00
C929   C     0.37611   0.50015   0.75152   0.00000  Uiso   1.00
C930   C     0.42385   0.38685   0.67782   0.00000  Uiso   1.00
C931   C     0.52396   0.62812   0.85760   0.00000  Uiso   1.00
C932   C     0.58815   0.37314   0.80643   0.00000  Uiso   1.00
C933   C     0.49984   0.49985   0.66495   0.00000  Uiso   1.00
C934   C     0.42283   0.60928   0.68221   0.00000  Uiso   1.00
C935   C     0.49983   0.50010   0.83486   0.00000  Uiso   1.00
C936   C     0.48014   0.35788   0.71673   0.00000  Uiso   1.00
C937   C     0.52005   0.64211   0.78321   0.00000  Uiso   1.00
C938   C     0.52197   0.35867   0.78168   0.00000  Uiso   1.00
C939   C     0.48018   0.64168   0.71667   0.00000  Uiso   1.00
C940   C     0.35444   0.45854   0.74529   0.00000  Uiso   1.00
Cu941  Cu    0.50000   0.54689   0.75000   0.00000  Uiso   1.00
Cu942  Cu    0.50000   0.45311   0.75000   0.00000  Uiso   1.00
H943   H     0.50529   0.57407   0.53038   0.00000  Uiso   1.00
H944   H     0.62946   0.57432   0.76350   0.00000  Uiso   1.00
H945   H     0.62926   0.42636   0.73748   0.00000  Uiso   1.00
H946   H     0.37085   0.57419   0.76436   0.00000  Uiso   1.00
H947   H     0.41697   0.42454   0.67744   0.00000  Uiso   1.00
H948   H     0.40757   0.37043   0.70557   0.00000  Uiso   1.00
H949   H     0.41096   0.37270   0.64615   0.00000  Uiso   1.00
H950   H     0.53461   0.60131   0.88143   0.00000  Uiso   1.00
H951   H     0.48967   0.62739   0.85605   0.00000  Uiso   1.00
H952   H     0.53488   0.66193   0.87119   0.00000  Uiso   1.00
H953   H     0.60664   0.40384   0.81702   0.00000  Uiso   1.00
H954   H     0.53865   0.43955   0.97023   0.00000  Uiso   1.00
H955   H     0.59580   0.36486   0.77154   0.00000  Uiso   1.00
H956   H     0.59785   0.34401   0.82814   0.00000  Uiso   1.00
H957   H     0.40913   0.61935   0.71428   0.00000  Uiso   1.00
H958   H     0.41753   0.57168   0.67630   0.00000  Uiso   1.00
H959   H     0.40586   0.62726   0.65507   0.00000  Uiso   1.00
H960   H     0.45771   0.55888   0.96836   0.00000  Uiso   1.00
H961   H     0.49174   0.42482   0.52920   0.00000  Uiso   1.00
H962   H     0.50574   0.57440   0.61084   0.00000  Uiso   1.00
H963   H     0.53889   0.43971   0.88948   0.00000  Uiso   1.00
H964   H     0.45843   0.55911   0.88754   0.00000  Uiso   1.00
H965   H     0.49336   0.42484   0.60965   0.00000  Uiso   1.00
H966   H     0.37015   0.42584   0.74117   0.00000  Uiso   1.00
N967   N     0.50000   0.61736   0.75000   0.00000  Uiso   1.00
N968   N     0.50000   0.38264   0.75000   0.00000  Uiso   1.00
O969   O     0.43988   0.53958   0.75000   0.00000  Uiso   1.00
O970   O     0.54117   0.61806   0.81618   0.00000  Uiso   1.00
O971   O     0.54610   0.38368   0.81186   0.00000  Uiso   1.00
O972   O     0.46535   0.61852   0.67929   0.00000  Uiso   1.00
O973   O     0.56012   0.46042   0.75001   0.00000  Uiso   1.00
O974   O     0.56012   0.53958   0.75001   0.00000  Uiso   1.00
O975   O     0.43988   0.46042   0.75000   0.00000  Uiso   1.00
O976   O     0.50000   0.53959   0.68573   0.00000  Uiso   1.00
O977   O     0.50000   0.46041   0.81427   0.00000  Uiso   1.00
O978   O     0.50000   0.53959   0.81427   0.00000  Uiso   1.00
O979   O     0.50000   0.46041   0.68573   0.00000  Uiso   1.00
O980   O     0.46691   0.38050   0.67878   0.00000  Uiso   1.00
C981   C     0.75411   0.50005   0.75064   0.00000  Uiso   1.00
C982   C     0.97876   0.54183   0.75792   0.00000  Uiso   1.00
C983   C     0.97859   0.45869   0.74397   0.00000  Uiso   1.00
C984   C     0.68807   0.54179   0.75833   0.00000  Uiso   1.00
C985   C     0.83545   0.54141   0.54745   0.00000  Uiso   1.00
C986   C     0.85413   0.46559   0.95250   0.00000  Uiso   1.00
C987   C     0.80926   0.53309   0.95146   0.00000  Uiso   1.00
C988   C     0.82848   0.45757   0.54681   0.00000  Uiso   1.00
C989   C     0.83592   0.54152   0.59344   0.00000  Uiso   1.00
C990   C     0.85442   0.46577   0.90655   0.00000  Uiso   1.00
C991   C     0.80972   0.53335   0.90550   0.00000  Uiso   1.00
C992   C     0.91255   0.50003   0.75013   0.00000  Uiso   1.00
C993   C     0.82915   0.45764   0.59280   0.00000  Uiso   1.00
C994   C     0.83278   0.49963   0.61648   0.00000  Uiso   1.00
C995   C     0.83261   0.49997   0.88295   0.00000  Uiso   1.00
C996   C     0.83171   0.49944   0.52383   0.00000  Uiso   1.00
C997   C     0.83163   0.49933   0.97528   0.00000  Uiso   1.00
C998   C     0.95719   0.50022   0.75055   0.00000  Uiso   1.00
C999   C     0.70944   0.50015   0.75152   0.00000  Uiso   1.00
C1000  C     0.75718   0.38685   0.67782   0.00000  Uiso   1.00
C1001  C     0.85729   0.62812   0.85760   0.00000  Uiso   1.00
C1002  C     0.92149   0.37314   0.80643   0.00000  Uiso   1.00
C1003  C     0.83317   0.49985   0.66495   0.00000  Uiso   1.00
C1004  C     0.75617   0.60928   0.68221   0.00000  Uiso   1.00
C1005  C     0.83316   0.50010   0.83486   0.00000  Uiso   1.00
C1006  C     0.81347   0.35788   0.71673   0.00000  Uiso   1.00
C1007  C     0.85339   0.64211   0.78321   0.00000  Uiso   1.00
C1008  C     0.85530   0.35867   0.78168   0.00000  Uiso   1.00
C1009  C     0.81352   0.64168   0.71667   0.00000  Uiso   1.00
C1010  C     0.68777   0.45854   0.74529   0.00000  Uiso   1.00
Cu1011 Cu    0.83333   0.54689   0.75000   0.00000  Uiso   1.00
Cu1012 Cu    0.83333   0.45311   0.75000   0.00000  Uiso   1.00
H1013  H     0.83862   0.57407   0.53038   0.00000  Uiso   1.00
H1014  H     0.96279   0.57432   0.76350   0.00000  Uiso   1.00
H1015  H     0.96260   0.42636   0.73748   0.00000  Uiso   1.00
H1016  H     0.70418   0.57419   0.76436   0.00000  Uiso   1.00
H1017  H     0.75030   0.42454   0.67744   0.00000  Uiso   1.00
H1018  H     0.74091   0.37043   0.70557   0.00000  Uiso   1.00
H1019  H     0.74429   0.37270   0.64615   0.00000  Uiso   1.00
H1020  H     0.86794   0.60131   0.88143   0.00000  Uiso   1.00
H1021  H     0.82300   0.62739   0.85605   0.00000  Uiso   1.00
H1022  H     0.86821   0.66193   0.87119   0.00000  Uiso   1.00
H1023  H     0.93997   0.40384   0.81702   0.00000  Uiso   1.00
H1024  H     0.87198   0.43955   0.97023   0.00000  Uiso   1.00
H1025  H     0.92913   0.36486   0.77154   0.00000  Uiso   1.00
H1026  H     0.93118   0.34401   0.82814   0.00000  Uiso   1.00
H1027  H     0.74246   0.61935   0.71428   0.00000  Uiso   1.00
H1028  H     0.75086   0.57168   0.67630   0.00000  Uiso   1.00
H1029  H     0.73919   0.62726   0.65507   0.00000  Uiso   1.00
H1030  H     0.79104   0.55888   0.96836   0.00000  Uiso   1.00
H1031  H     0.82507   0.42482   0.52920   0.00000  Uiso   1.00
H1032  H     0.83907   0.57440   0.61084   0.00000  Uiso   1.00
H1033  H     0.87222   0.43971   0.88948   0.00000  Uiso   1.00
H1034  H     0.79176   0.55911   0.88754   0.00000  Uiso   1.00
H1035  H     0.82669   0.42484   0.60965   0.00000  Uiso   1.00
H1036  H     0.70348   0.42584   0.74117   0.00000  Uiso   1.00
N1037  N     0.83333   0.61736   0.75000   0.00000  Uiso   1.00
N1038  N     0.83333   0.38264   0.75000   0.00000  Uiso   1.00
O1039  O     0.77321   0.53958   0.75000   0.00000  Uiso   1.00
O1040  O     0.87450   0.61806   0.81618   0.00000  Uiso   1.00
O1041  O     0.87943   0.38368   0.81186   0.00000  Uiso   1.00
O1042  O     0.79869   0.61852   0.67929   0.00000  Uiso   1.00
O1043  O     0.89345   0.46042   0.75001   0.00000  Uiso   1.00
O1044  O     0.89345   0.53958   0.75001   0.00000  Uiso   1.00
O1045  O     0.77321   0.46042   0.75000   0.00000  Uiso   1.00
O1046  O     0.83333   0.53959   0.68573   0.00000  Uiso   1.00
O1047  O     0.83334   0.46041   0.81427   0.00000  Uiso   1.00
O1048  O     0.83334   0.53959   0.81427   0.00000  Uiso   1.00
O1049  O     0.83333   0.46041   0.68573   0.00000  Uiso   1.00
O1050  O     0.80025   0.38050   0.67878   0.00000  Uiso   1.00
C1051  C     0.08744   0.83339   0.75064   0.00000  Uiso   1.00
C1052  C     0.31210   0.87516   0.75792   0.00000  Uiso   1.00
C1053  C     0.31192   0.79203   0.74397   0.00000  Uiso   1.00
C1054  C     0.02141   0.87513   0.75833   0.00000  Uiso   1.00
C1055  C     0.16879   0.87475   0.54745   0.00000  Uiso   1.00
C1056  C     0.18746   0.79892   0.95250   0.00000  Uiso   1.00
C1057  C     0.14259   0.86643   0.95146   0.00000  Uiso   1.00
C1058  C     0.16181   0.79091   0.54681   0.00000  Uiso   1.00
C1059  C     0.16925   0.87486   0.59344   0.00000  Uiso   1.00
C1060  C     0.18775   0.79910   0.90655   0.00000  Uiso   1.00
C1061  C     0.14306   0.86668   0.90550   0.00000  Uiso   1.00
C1062  C     0.24589   0.83336   0.75013   0.00000  Uiso   1.00
C1063  C     0.16248   0.79098   0.59280   0.00000  Uiso   1.00
C1064  C     0.16611   0.83296   0.61648   0.00000  Uiso   1.00
C1065  C     0.16594   0.83331   0.88295   0.00000  Uiso   1.00
C1066  C     0.16504   0.83278   0.52383   0.00000  Uiso   1.00
C1067  C     0.16496   0.83267   0.97528   0.00000  Uiso   1.00
C1068  C     0.29053   0.83356   0.75055   0.00000  Uiso   1.00
C1069  C     0.04278   0.83349   0.75152   0.00000  Uiso   1.00
C1070  C     0.09051   0.72018   0.67782   0.00000  Uiso   1.00
C1071  C     0.19063   0.96145   0.85760   0.00000  Uiso   1.00
C1072  C     0.25482   0.70647   0.80643   0.00000  Uiso   1.00
C1073  C     0.16651   0.83318   0.66495   0.00000  Uiso   1.00
C1074  C     0.08950   0.94261   0.68221   0.00000  Uiso   1.00
C1075  C     0.16650   0.83343   0.83486   0.00000  Uiso   1.00
C1076  C     0.14680   0.69122   0.71673   0.00000  Uiso   1.00
C1077  C     0.18672   0.97544   0.78321   0.00000  Uiso   1.00
C1078  C     0.18863   0.69200   0.78168   0.00000  Uiso   1.00
C1079  C     0.14685   0.97502   0.71667   0.00000  Uiso   1.00
C1080  C     0.02111   0.79187   0.74529   0.00000  Uiso   1.00
Cu1081 Cu    0.16667   0.88022   0.75000   0.00000  Uiso   1.00
Cu1082 Cu    0.16667   0.78645   0.75000   0.00000  Uiso   1.00
H1083  H     0.17195   0.90740   0.53038   0.00000  Uiso   1.00
H1084  H     0.29613   0.90765   0.76350   0.00000  Uiso   1.00
H1085  H     0.29593   0.75970   0.73748   0.00000  Uiso   1.00
H1086  H     0.03751   0.90752   0.76436   0.00000  Uiso   1.00
H1087  H     0.08364   0.75787   0.67744   0.00000  Uiso   1.00
H1088  H     0.07424   0.70376   0.70557   0.00000  Uiso   1.00
H1089  H     0.07763   0.70603   0.64615   0.00000  Uiso   1.00
H1090  H     0.20127   0.93464   0.88143   0.00000  Uiso   1.00
H1091  H     0.15633   0.96072   0.85605   0.00000  Uiso   1.00
H1092  H     0.20155   0.99526   0.87119   0.00000  Uiso   1.00
H1093  H     0.27331   0.73717   0.81702   0.00000  Uiso   1.00
H1094  H     0.20531   0.77288   0.97023   0.00000  Uiso   1.00
H1095  H     0.26247   0.69819   0.77154   0.00000  Uiso   1.00
H1096  H     0.26452   0.67734   0.82814   0.00000  Uiso   1.00
H1097  H     0.07580   0.95269   0.71428   0.00000  Uiso   1.00
H1098  H     0.08419   0.90502   0.67630   0.00000  Uiso   1.00
H1099  H     0.07252   0.96060   0.65507   0.00000  Uiso   1.00
H1100  H     0.12438   0.89221   0.96836   0.00000  Uiso   1.00
H1101  H     0.15841   0.75816   0.52920   0.00000  Uiso   1.00
H1102  H     0.17241   0.90773   0.61084   0.00000  Uiso   1.00
H1103  H     0.20555   0.77305   0.88948   0.00000  Uiso   1.00
H1104  H     0.12510   0.89244   0.88754   0.00000  Uiso   1.00
H1105  H     0.16002   0.75817   0.60965   0.00000  Uiso   1.00
H1106  H     0.03682   0.75918   0.74117   0.00000  Uiso   1.00
N1107  N     0.16667   0.95069   0.75000   0.00000  Uiso   1.00
N1108  N     0.16667   0.71598   0.75000   0.00000  Uiso   1.00
O1109  O     0.10655   0.87291   0.75000   0.00000  Uiso   1.00
O1110  O     0.20784   0.95139   0.81618   0.00000  Uiso   1.00
O1111  O     0.21276   0.71702   0.81186   0.00000  Uiso   1.00
O1112  O     0.13202   0.95185   0.67929   0.00000  Uiso   1.00
O1113  O     0.22679   0.79375   0.75001   0.00000  Uiso   1.00
O1114  O     0.22679   0.87291   0.75001   0.00000  Uiso   1.00
O1115  O     0.10655   0.79375   0.75000   0.00000  Uiso   1.00
O1116  O     0.16666   0.87293   0.68573   0.00000  Uiso   1.00
O1117  O     0.16667   0.79374   0.81427   0.00000  Uiso   1.00
O1118  O     0.16667   0.87293   0.81427   0.00000  Uiso   1.00
O1119  O     0.16666   0.79374   0.68573   0.00000  Uiso   1.00
O1120  O     0.13358   0.71383   0.67878   0.00000  Uiso   1.00
C1121  C     0.42077   0.83339   0.75064   0.00000  Uiso   1.00
C1122  C     0.64543   0.87516   0.75792   0.00000  Uiso   1.00
C1123  C     0.64526   0.79203   0.74397   0.00000  Uiso   1.00
C1124  C     0.35474   0.87513   0.75833   0.00000  Uiso   1.00
C1125  C     0.50212   0.87475   0.54745   0.00000  Uiso   1.00
C1126  C     0.52079   0.79892   0.95250   0.00000  Uiso   1.00
C1127  C     0.47592   0.86643   0.95146   0.00000  Uiso   1.00
C1128  C     0.49515   0.79091   0.54681   0.00000  Uiso   1.00
C1129  C     0.50259   0.87486   0.59344   0.00000  Uiso   1.00
C1130  C     0.52109   0.79910   0.90655   0.00000  Uiso   1.00
C1131  C     0.47639   0.86668   0.90550   0.00000  Uiso   1.00
C1132  C     0.57922   0.83336   0.75013   0.00000  Uiso   1.00
C1133  C     0.49581   0.79098   0.59280   0.00000  Uiso   1.00
C1134  C     0.49945   0.83296   0.61648   0.00000  Uiso   1.00
C1135  C     0.49927   0.83331   0.88295   0.00000  Uiso   1.00
C1136  C     0.49838   0.83278   0.52383   0.00000  Uiso   1.00
C1137  C     0.49829   0.83267   0.97528   0.00000  Uiso   1.00
C1138  C     0.62386   0.83356   0.75055   0.00000  Uiso   1.00
C1139  C     0.37611   0.83349   0.75152   0.00000  Uiso   1.00
C1140  C     0.42385   0.72018   0.67782   0.00000  Uiso   1.00
C1141  C     0.52396   0.96145   0.85760   0.00000  Uiso   1.00
C1142  C     0.58815   0.70647   0.80643   0.00000  Uiso   1.00
C1143  C     0.49984   0.83318   0.66495   0.00000  Uiso   1.00
C1144  C     0.42283   0.94261   0.68221   0.00000  Uiso   1.00
C1145  C     0.49983   0.83343   0.83486   0.00000  Uiso   1.00
C1146  C     0.48014   0.69122   0.71673   0.00000  Uiso   1.00
C1147  C     0.52005   0.97544   0.78321   0.00000  Uiso   1.00
C1148  C     0.52197   0.69200   0.78168   0.00000  Uiso   1.00
C1149  C     0.48018   0.97502   0.71667   0.00000  Uiso   1.00
C1150  C     0.35444   0.79187   0.74529   0.00000  Uiso   1.00
Cu1151 Cu    0.50000   0.88022   0.75000   0.00000  Uiso   1.00
Cu1152 Cu    0.50000   0.78645   0.75000   0.00000  Uiso   1.00
H1153  H     0.50529   0.90740   0.53038   0.00000  Uiso   1.00
H1154  H     0.62946   0.90765   0.76350   0.00000  Uiso   1.00
H1155  H     0.62926   0.75970   0.73748   0.00000  Uiso   1.00
H1156  H     0.37085   0.90752   0.76436   0.00000  Uiso   1.00
H1157  H     0.41697   0.75787   0.67744   0.00000  Uiso   1.00
H1158  H     0.40757   0.70376   0.70557   0.00000  Uiso   1.00
H1159  H     0.41096   0.70603   0.64615   0.00000  Uiso   1.00
H1160  H     0.53461   0.93464   0.88143   0.00000  Uiso   1.00
H1161  H     0.48967   0.96072   0.85605   0.00000  Uiso   1.00
H1162  H     0.53488   0.99526   0.87119   0.00000  Uiso   1.00
H1163  H     0.60664   0.73717   0.81702   0.00000  Uiso   1.00
H1164  H     0.53865   0.77288   0.97023   0.00000  Uiso   1.00
H1165  H     0.59580   0.69819   0.77154   0.00000  Uiso   1.00
H1166  H     0.59785   0.67734   0.82814   0.00000  Uiso   1.00
H1167  H     0.40913   0.95269   0.71428   0.00000  Uiso   1.00
H1168  H     0.41753   0.90502   0.67630   0.00000  Uiso   1.00
H1169  H     0.40586   0.96060   0.65507   0.00000  Uiso   1.00
H1170  H     0.45771   0.89221   0.96836   0.00000  Uiso   1.00
H1171  H     0.49174   0.75816   0.52920   0.00000  Uiso   1.00
H1172  H     0.50574   0.90773   0.61084   0.00000  Uiso   1.00
H1173  H     0.53889   0.77305   0.88948   0.00000  Uiso   1.00
H1174  H     0.45843   0.89244   0.88754   0.00000  Uiso   1.00
H1175  H     0.49336   0.75817   0.60965   0.00000  Uiso   1.00
H1176  H     0.37015   0.75918   0.74117   0.00000  Uiso   1.00
N1177  N     0.50000   0.95069   0.75000   0.00000  Uiso   1.00
N1178  N     0.50000   0.71598   0.75000   0.00000  Uiso   1.00
O1179  O     0.43988   0.87291   0.75000   0.00000  Uiso   1.00
O1180  O     0.54117   0.95139   0.81618   0.00000  Uiso   1.00
O1181  O     0.54610   0.71702   0.81186   0.00000  Uiso   1.00
O1182  O     0.46535   0.95185   0.67929   0.00000  Uiso   1.00
O1183  O     0.56012   0.79375   0.75001   0.00000  Uiso   1.00
O1184  O     0.56012   0.87291   0.75001   0.00000  Uiso   1.00
O1185  O     0.43988   0.79375   0.75000   0.00000  Uiso   1.00
O1186  O     0.50000   0.87293   0.68573   0.00000  Uiso   1.00
O1187  O     0.50000   0.79374   0.81427   0.00000  Uiso   1.00
O1188  O     0.50000   0.87293   0.81427   0.00000  Uiso   1.00
O1189  O     0.50000   0.79374   0.68573   0.00000  Uiso   1.00
O1190  O     0.46691   0.71383   0.67878   0.00000  Uiso   1.00
C1191  C     0.75411   0.83339   0.75064   0.00000  Uiso   1.00
C1192  C     0.97876   0.87516   0.75792   0.00000  Uiso   1.00
C1193  C     0.97859   0.79203   0.74397   0.00000  Uiso   1.00
C1194  C     0.68807   0.87513   0.75833   0.00000  Uiso   1.00
C1195  C     0.83545   0.87475   0.54745   0.00000  Uiso   1.00
C1196  C     0.85413   0.79892   0.95250   0.00000  Uiso   1.00
C1197  C     0.80926   0.86643   0.95146   0.00000  Uiso   1.00
C1198  C     0.82848   0.79091   0.54681   0.00000  Uiso   1.00
C1199  C     0.83592   0.87486   0.59344   0.00000  Uiso   1.00
C1200  C     0.85442   0.79910   0.90655   0.00000  Uiso   1.00
C1201  C     0.80972   0.86668   0.90550   0.00000  Uiso   1.00
C1202  C     0.91255   0.83336   0.75013   0.00000  Uiso   1.00
C1203  C     0.82915   0.79098   0.59280   0.00000  Uiso   1.00
C1204  C     0.83278   0.83296   0.61648   0.00000  Uiso   1.00
C1205  C     0.83261   0.83331   0.88295   0.00000  Uiso   1.00
C1206  C     0.83171   0.83278   0.52383   0.00000  Uiso   1.00
C1207  C     0.83163   0.83267   0.97528   0.00000  Uiso   1.00
C1208  C     0.95719   0.83356   0.75055   0.00000  Uiso   1.00
C1209  C     0.70944   0.83349   0.75152   0.00000  Uiso   1.00
C1210  C     0.75718   0.72018   0.67782   0.00000  Uiso   1.00
C1211  C     0.85729   0.96145   0.85760   0.00000  Uiso   1.00
C1212  C     0.92149   0.70647   0.80643   0.00000  Uiso   1.00
C1213  C     0.83317   0.83318   0.66495   0.00000  Uiso   1.00
C1214  C     0.75617   0.94261   0.68221   0.00000  Uiso   1.00
C1215  C     0.83316   0.83343   0.83486   0.00000  Uiso   1.00
C1216  C     0.81347   0.69122   0.71673   0.00000  Uiso   1.00
C1217  C     0.85339   0.97544   0.78321   0.00000  Uiso   1.00
C1218  C     0.85530   0.69200   0.78168   0.00000  Uiso   1.00
C1219  C     0.81352   0.97502   0.71667   0.00000  Uiso   1.00
C1220  C     0.68777   0.79187   0.74529   0.00000  Uiso   1.00
Cu1221 Cu    0.83333   0.88022   0.75000   0.00000  Uiso   1.00
Cu1222 Cu    0.83333   0.78645   0.75000   0.00000  Uiso   1.00
H1223  H     0.83862   0.90740   0.53038   0.00000  Uiso   1.00
H1224  H     0.96279   0.90765   0.76350   0.00000  Uiso   1.00
H1225  H     0.96260   0.75970   0.73748   0.00000  Uiso   1.00
H1226  H     0.70418   0.90752   0.76436   0.00000  Uiso   1.00
H1227  H     0.75030   0.75787   0.67744   0.00000  Uiso   1.00
H1228  H     0.74091   0.70376   0.70557   0.00000  Uiso   1.00
H1229  H     0.74429   0.70603   0.64615   0.00000  Uiso   1.00
H1230  H     0.86794   0.93464   0.88143   0.00000  Uiso   1.00
H1231  H     0.82300   0.96072   0.85605   0.00000  Uiso   1.00
H1232  H     0.86821   0.99526   0.87119   0.00000  Uiso   1.00
H1233  H     0.93997   0.73717   0.81702   0.00000  Uiso   1.00
H1234  H     0.87198   0.77288   0.97023   0.00000  Uiso   1.00
H1235  H     0.92913   0.69819   0.77154   0.00000  Uiso   1.00
H1236  H     0.93118   0.67734   0.82814   0.00000  Uiso   1.00
H1237  H     0.74246   0.95269   0.71428   0.00000  Uiso   1.00
H1238  H     0.75086   0.90502   0.67630   0.00000  Uiso   1.00
H1239  H     0.73919   0.96060   0.65507   0.00000  Uiso   1.00
H1240  H     0.79104   0.89221   0.96836   0.00000  Uiso   1.00
H1241  H     0.82507   0.75816   0.52920   0.00000  Uiso   1.00
H1242  H     0.83907   0.90773   0.61084   0.00000  Uiso   1.00
H1243  H     0.87222   0.77305   0.88948   0.00000  Uiso   1.00
H1244  H     0.79176   0.89244   0.88754   0.00000  Uiso   1.00
H1245  H     0.82669   0.75817   0.60965   0.00000  Uiso   1.00
H1246  H     0.70348   0.75918   0.74117   0.00000  Uiso   1.00
N1247  N     0.83333   0.95069   0.75000   0.00000  Uiso   1.00
N1248  N     0.83333   0.71598   0.75000   0.00000  Uiso   1.00
O1249  O     0.77321   0.87291   0.75000   0.00000  Uiso   1.00
O1250  O     0.87450   0.95139   0.81618   0.00000  Uiso   1.00
O1251  O     0.87943   0.71702   0.81186   0.00000  Uiso   1.00
O1252  O     0.79869   0.95185   0.67929   0.00000  Uiso   1.00
O1253  O     0.89345   0.79375   0.75001   0.00000  Uiso   1.00
O1254  O     0.89345   0.87291   0.75001   0.00000  Uiso   1.00
O1255  O     0.77321   0.79375   0.75000   0.00000  Uiso   1.00
O1256  O     0.83333   0.87293   0.68573   0.00000  Uiso   1.00
O1257  O     0.83334   0.79374   0.81427   0.00000  Uiso   1.00
O1258  O     0.83334   0.87293   0.81427   0.00000  Uiso   1.00
O1259  O     0.83333   0.79374   0.68573   0.00000  Uiso   1.00
O1260  O     0.80025   0.71383   0.67878   0.00000  Uiso   1.00
loop_
_geom_bond_atom_site_label_1
_geom_bond_atom_site_label_2
_geom_bond_distance
_geom_bond_site_symmetry_2
_ccdc_geom_bond_type
C1     O65     1.299   .     A
C1     O59     1.298   .     A
C1     C19     1.453   .     S
C2     C18     1.402   .     A
C2     H34     1.083   .     S
C2     C74     1.385   .     S
C3     H35     1.081   .     S
C3     C18     1.398   .     A
C3     C100    1.381   .     S
C4     H36     1.082   .     S
C4     C19     1.401   .     A
C4     C142    1.385   1_455 S
C5     C9      1.390   .     A
C5     C16     1.402   .     A
C5     H33     1.083   .     S
C6     C10     1.390   .     A
C6     C17     1.403   .     A
C6     H44     1.083   .     S
C7     C11     1.390   .     A
C7     H50     1.083   .     S
C7     C17     1.404   .     A
C8     C13     1.390   .     A
C8     C16     1.402   .     A
C8     H51     1.083   .     S
C9     C14     1.404   .     A
C9     H52     1.083   .     S
C10    C15     1.400   .     A
C10    H53     1.083   .     S
C11    C15     1.399   .     A
C11    H54     1.083   .     S
C12    O64     1.296   .     A
C12    C18     1.450   .     S
C12    O63     1.299   .     A
C13    C14     1.403   .     A
C13    H55     1.081   .     S
C14    C23     1.465   .     S
C15    C25     1.455   .     S
C16    C647    1.468   1_554 S
C17    C646    1.468   .     S
C19    C30     1.400   .     A
C20    H38     1.114   .     S
C20    H37     1.108   .     S
C20    O70     1.411   .     S
C20    H39     1.108   .     S
C21    O60     1.414   .     S
C21    H41     1.114   .     S
C21    H40     1.108   .     S
C21    H42     1.108   .     S
C22    H43     1.109   .     S
C22    O61     1.414   .     S
C22    H46     1.109   .     S
C22    H45     1.115   .     S
C23    O69     1.303   .     A
C23    O66     1.301   .     A
C24    H47     1.115   .     S
C24    H48     1.109   .     S
C24    H49     1.107   .     S
C24    O62     1.413   .     S
C25    O67     1.297   .     A
C25    O68     1.301   .     A
C26    O70     1.381   .     S
C26    N58     1.374   .     A
C26    C449    1.426   1_545 S
C27    O60     1.383   .     S
C27    N57     1.375   .     A
C27    C238    1.439   .     S
C28    N58     1.368   .     A
C28    O61     1.384   .     S
C28    C447    1.439   1_545 S
C29    N57     1.376   .     A
C29    O62     1.382   .     S
C29    C236    1.426   .     S
C30    H56     1.078   .     S
C30    C143    1.381   1_455 S
Cu31   N57     2.029   .     S
Cu31   O66     1.953   .     S
Cu31   O68     1.956   .     S
Cu31   O59     1.965   .     S
Cu31   O64     1.965   .     S
Cu31   Cu32    2.700   .     S
Cu32   N58     2.029   .     S
Cu32   O69     1.956   .     S
Cu32   O67     1.953   .     S
Cu32   O63     1.965   .     S
Cu32   O65     1.965   .     S
C71    O135    1.299   .     A
C71    O129    1.298   .     A
C71    C89     1.453   .     S
C72    C88     1.402   .     A
C72    H104    1.083   .     S
C72    C144    1.385   .     S
C73    H105    1.081   .     S
C73    C88     1.398   .     A
C73    C170    1.381   .     S
C74    H106    1.082   .     S
C74    C89     1.401   .     A
C75    C79     1.390   .     A
C75    C86     1.402   .     A
C75    H103    1.083   .     S
C76    C80     1.390   .     A
C76    C87     1.403   .     A
C76    H114    1.083   .     S
C77    C81     1.390   .     A
C77    H120    1.083   .     S
C77    C87     1.404   .     A
C78    C83     1.390   .     A
C78    C86     1.402   .     A
C78    H121    1.083   .     S
C79    C84     1.404   .     A
C79    H122    1.083   .     S
C80    C85     1.400   .     A
C80    H123    1.083   .     S
C81    C85     1.399   .     A
C81    H124    1.083   .     S
C82    O134    1.296   .     A
C82    C88     1.450   .     S
C82    O133    1.299   .     A
C83    C84     1.403   .     A
C83    H125    1.081   .     S
C84    C93     1.465   .     S
C85    C95     1.455   .     S
C86    C717    1.468   1_554 S
C87    C716    1.468   .     S
C89    C100    1.400   .     A
C90    H108    1.114   .     S
C90    H107    1.108   .     S
C90    O140    1.411   .     S
C90    H109    1.108   .     S
C91    O130    1.414   .     S
C91    H111    1.114   .     S
C91    H110    1.108   .     S
C91    H112    1.108   .     S
C92    H113    1.109   .     S
C92    O131    1.414   .     S
C92    H116    1.109   .     S
C92    H115    1.115   .     S
C93    O139    1.303   .     A
C93    O136    1.301   .     A
C94    H117    1.115   .     S
C94    H118    1.109   .     S
C94    H119    1.107   .     S
C94    O132    1.413   .     S
C95    O137    1.297   .     A
C95    O138    1.301   .     A
C96    O140    1.381   .     S
C96    N128    1.374   .     A
C96    C519    1.426   1_545 S
C97    O130    1.383   .     S
C97    N127    1.375   .     A
C97    C308    1.439   .     S
C98    N128    1.368   .     A
C98    O131    1.384   .     S
C98    C517    1.439   1_545 S
C99    N127    1.376   .     A
C99    O132    1.382   .     S
C99    C306    1.426   .     S
C100   H126    1.078   .     S
Cu101  N127    2.029   .     S
Cu101  O136    1.953   .     S
Cu101  O138    1.956   .     S
Cu101  O129    1.965   .     S
Cu101  O134    1.965   .     S
Cu101  Cu102   2.700   .     S
Cu102  N128    2.029   .     S
Cu102  O139    1.956   .     S
Cu102  O137    1.953   .     S
Cu102  O133    1.965   .     S
Cu102  O135    1.965   .     S
C141   O205    1.299   .     A
C141   O199    1.298   .     A
C141   C159    1.453   .     S
C142   C158    1.402   .     A
C142   H174    1.083   .     S
C142   C4      1.385   1_655 S
C143   H175    1.081   .     S
C143   C158    1.398   .     A
C143   C30     1.381   1_655 S
C144   H176    1.082   .     S
C144   C159    1.401   .     A
C145   C149    1.390   .     A
C145   C156    1.402   .     A
C145   H173    1.083   .     S
C146   C150    1.390   .     A
C146   C157    1.403   .     A
C146   H184    1.083   .     S
C147   C151    1.390   .     A
C147   H190    1.083   .     S
C147   C157    1.404   .     A
C148   C153    1.390   .     A
C148   C156    1.402   .     A
C148   H191    1.083   .     S
C149   C154    1.404   .     A
C149   H192    1.083   .     S
C150   C155    1.400   .     A
C150   H193    1.083   .     S
C151   C155    1.399   .     A
C151   H194    1.083   .     S
C152   O204    1.296   .     A
C152   C158    1.450   .     S
C152   O203    1.299   .     A
C153   C154    1.403   .     A
C153   H195    1.081   .     S
C154   C163    1.465   .     S
C155   C165    1.455   .     S
C156   C787    1.468   1_554 S
C157   C786    1.468   .     S
C159   C170    1.400   .     A
C160   H178    1.114   .     S
C160   H177    1.108   .     S
C160   O210    1.411   .     S
C160   H179    1.108   .     S
C161   O200    1.414   .     S
C161   H181    1.114   .     S
C161   H180    1.108   .     S
C161   H182    1.108   .     S
C162   H183    1.109   .     S
C162   O201    1.414   .     S
C162   H186    1.109   .     S
C162   H185    1.115   .     S
C163   O209    1.303   .     A
C163   O206    1.301   .     A
C164   H187    1.115   .     S
C164   H188    1.109   .     S
C164   H189    1.107   .     S
C164   O202    1.413   .     S
C165   O207    1.297   .     A
C165   O208    1.301   .     A
C166   O210    1.381   .     S
C166   N198    1.374   .     A
C166   C589    1.426   1_545 S
C167   O200    1.383   .     S
C167   N197    1.375   .     A
C167   C378    1.439   .     S
C168   N198    1.368   .     A
C168   O201    1.384   .     S
C168   C587    1.439   1_545 S
C169   N197    1.376   .     A
C169   O202    1.382   .     S
C169   C376    1.426   .     S
C170   H196    1.078   .     S
Cu171  N197    2.029   .     S
Cu171  O206    1.953   .     S
Cu171  O208    1.956   .     S
Cu171  O199    1.965   .     S
Cu171  O204    1.965   .     S
Cu171  Cu172   2.700   .     S
Cu172  N198    2.029   .     S
Cu172  O209    1.956   .     S
Cu172  O207    1.953   .     S
Cu172  O203    1.965   .     S
Cu172  O205    1.965   .     S
C211   O275    1.299   .     A
C211   O269    1.298   .     A
C211   C229    1.453   .     S
C212   C228    1.402   .     A
C212   H244    1.083   .     S
C212   C284    1.385   .     S
C213   H245    1.081   .     S
C213   C228    1.398   .     A
C213   C310    1.381   .     S
C214   H246    1.082   .     S
C214   C229    1.401   .     A
C214   C352    1.385   1_455 S
C215   C219    1.390   .     A
C215   C226    1.402   .     A
C215   H243    1.083   .     S
C216   C220    1.390   .     A
C216   C227    1.403   .     A
C216   H254    1.083   .     S
C217   C221    1.390   .     A
C217   H260    1.083   .     S
C217   C227    1.404   .     A
C218   C223    1.390   .     A
C218   C226    1.402   .     A
C218   H261    1.083   .     S
C219   C224    1.404   .     A
C219   H262    1.083   .     S
C220   C225    1.400   .     A
C220   H263    1.083   .     S
C221   C225    1.399   .     A
C221   H264    1.083   .     S
C222   O274    1.296   .     A
C222   C228    1.450   .     S
C222   O273    1.299   .     A
C223   C224    1.403   .     A
C223   H265    1.081   .     S
C224   C233    1.465   .     S
C225   C235    1.455   .     S
C226   C857    1.468   1_554 S
C227   C856    1.468   .     S
C229   C240    1.400   .     A
C230   H248    1.114   .     S
C230   H247    1.108   .     S
C230   O280    1.411   .     S
C230   H249    1.108   .     S
C231   O270    1.414   .     S
C231   H251    1.114   .     S
C231   H250    1.108   .     S
C231   H252    1.108   .     S
C232   H253    1.109   .     S
C232   O271    1.414   .     S
C232   H256    1.109   .     S
C232   H255    1.115   .     S
C233   O279    1.303   .     A
C233   O276    1.301   .     A
C234   H257    1.115   .     S
C234   H258    1.109   .     S
C234   H259    1.107   .     S
C234   O272    1.413   .     S
C235   O277    1.297   .     A
C235   O278    1.301   .     A
C236   O280    1.381   .     S
C236   N268    1.374   .     A
C237   O270    1.383   .     S
C237   N267    1.375   .     A
C237   C448    1.439   .     S
C238   N268    1.368   .     A
C238   O271    1.384   .     S
C239   N267    1.376   .     A
C239   O272    1.382   .     S
C239   C446    1.426   .     S
C240   H266    1.078   .     S
C240   C353    1.381   1_455 S
Cu241  N267    2.029   .     S
Cu241  O276    1.953   .     S
Cu241  O278    1.956   .     S
Cu241  O269    1.965   .     S
Cu241  O274    1.965   .     S
Cu241  Cu242   2.700   .     S
Cu242  N268    2.029   .     S
Cu242  O279    1.956   .     S
Cu242  O277    1.953   .     S
Cu242  O273    1.965   .     S
Cu242  O275    1.965   .     S
C281   O345    1.299   .     A
C281   O339    1.298   .     A
C281   C299    1.453   .     S
C282   C298    1.402   .     A
C282   H314    1.083   .     S
C282   C354    1.385   .     S
C283   H315    1.081   .     S
C283   C298    1.398   .     A
C283   C380    1.381   .     S
C284   H316    1.082   .     S
C284   C299    1.401   .     A
C285   C289    1.390   .     A
C285   C296    1.402   .     A
C285   H313    1.083   .     S
C286   C290    1.390   .     A
C286   C297    1.403   .     A
C286   H324    1.083   .     S
C287   C291    1.390   .     A
C287   H330    1.083   .     S
C287   C297    1.404   .     A
C288   C293    1.390   .     A
C288   C296    1.402   .     A
C288   H331    1.083   .     S
C289   C294    1.404   .     A
C289   H332    1.083   .     S
C290   C295    1.400   .     A
C290   H333    1.083   .     S
C291   C295    1.399   .     A
C291   H334    1.083   .     S
C292   O344    1.296   .     A
C292   C298    1.450   .     S
C292   O343    1.299   .     A
C293   C294    1.403   .     A
C293   H335    1.081   .     S
C294   C303    1.465   .     S
C295   C305    1.455   .     S
C296   C927    1.468   1_554 S
C297   C926    1.468   .     S
C299   C310    1.400   .     A
C300   H318    1.114   .     S
C300   H317    1.108   .     S
C300   O350    1.411   .     S
C300   H319    1.108   .     S
C301   O340    1.414   .     S
C301   H321    1.114   .     S
C301   H320    1.108   .     S
C301   H322    1.108   .     S
C302   H323    1.109   .     S
C302   O341    1.414   .     S
C302   H326    1.109   .     S
C302   H325    1.115   .     S
C303   O349    1.303   .     A
C303   O346    1.301   .     A
C304   H327    1.115   .     S
C304   H328    1.109   .     S
C304   H329    1.107   .     S
C304   O342    1.413   .     S
C305   O347    1.297   .     A
C305   O348    1.301   .     A
C306   O350    1.381   .     S
C306   N338    1.374   .     A
C307   O340    1.383   .     S
C307   N337    1.375   .     A
C307   C518    1.439   .     S
C308   N338    1.368   .     A
C308   O341    1.384   .     S
C309   N337    1.376   .     A
C309   O342    1.382   .     S
C309   C516    1.426   .     S
C310   H336    1.078   .     S
Cu311  N337    2.029   .     S
Cu311  O346    1.953   .     S
Cu311  O348    1.956   .     S
Cu311  O339    1.965   .     S
Cu311  O344    1.965   .     S
Cu311  Cu312   2.700   .     S
Cu312  N338    2.029   .     S
Cu312  O349    1.956   .     S
Cu312  O347    1.953   .     S
Cu312  O343    1.965   .     S
Cu312  O345    1.965   .     S
C351   O415    1.299   .     A
C351   O409    1.298   .     A
C351   C369    1.453   .     S
C352   C368    1.402   .     A
C352   H384    1.083   .     S
C352   C214    1.385   1_655 S
C353   H385    1.081   .     S
C353   C368    1.398   .     A
C353   C240    1.381   1_655 S
C354   H386    1.082   .     S
C354   C369    1.401   .     A
C355   C359    1.390   .     A
C355   C366    1.402   .     A
C355   H383    1.083   .     S
C356   C360    1.390   .     A
C356   C367    1.403   .     A
C356   H394    1.083   .     S
C357   C361    1.390   .     A
C357   H400    1.083   .     S
C357   C367    1.404   .     A
C358   C363    1.390   .     A
C358   C366    1.402   .     A
C358   H401    1.083   .     S
C359   C364    1.404   .     A
C359   H402    1.083   .     S
C360   C365    1.400   .     A
C360   H403    1.083   .     S
C361   C365    1.399   .     A
C361   H404    1.083   .     S
C362   O414    1.296   .     A
C362   C368    1.450   .     S
C362   O413    1.299   .     A
C363   C364    1.403   .     A
C363   H405    1.081   .     S
C364   C373    1.465   .     S
C365   C375    1.455   .     S
C366   C997    1.468   1_554 S
C367   C996    1.468   .     S
C369   C380    1.400   .     A
C370   H388    1.114   .     S
C370   H387    1.108   .     S
C370   O420    1.411   .     S
C370   H389    1.108   .     S
C371   O410    1.414   .     S
C371   H391    1.114   .     S
C371   H390    1.108   .     S
C371   H392    1.108   .     S
C372   H393    1.109   .     S
C372   O411    1.414   .     S
C372   H396    1.109   .     S
C372   H395    1.115   .     S
C373   O419    1.303   .     A
C373   O416    1.301   .     A
C374   H397    1.115   .     S
C374   H398    1.109   .     S
C374   H399    1.107   .     S
C374   O412    1.413   .     S
C375   O417    1.297   .     A
C375   O418    1.301   .     A
C376   O420    1.381   .     S
C376   N408    1.374   .     A
C377   O410    1.383   .     S
C377   N407    1.375   .     A
C377   C588    1.439   .     S
C378   N408    1.368   .     A
C378   O411    1.384   .     S
C379   N407    1.376   .     A
C379   O412    1.382   .     S
C379   C586    1.426   .     S
C380   H406    1.078   .     S
Cu381  N407    2.029   .     S
Cu381  O416    1.953   .     S
Cu381  O418    1.956   .     S
Cu381  O409    1.965   .     S
Cu381  O414    1.965   .     S
Cu381  Cu382   2.700   .     S
Cu382  N408    2.029   .     S
Cu382  O419    1.956   .     S
Cu382  O417    1.953   .     S
Cu382  O413    1.965   .     S
Cu382  O415    1.965   .     S
C421   O485    1.299   .     A
C421   O479    1.298   .     A
C421   C439    1.453   .     S
C422   C438    1.402   .     A
C422   H454    1.083   .     S
C422   C494    1.385   .     S
C423   H455    1.081   .     S
C423   C438    1.398   .     A
C423   C520    1.381   .     S
C424   H456    1.082   .     S
C424   C439    1.401   .     A
C424   C562    1.385   1_455 S
C425   C429    1.390   .     A
C425   C436    1.402   .     A
C425   H453    1.083   .     S
C426   C430    1.390   .     A
C426   C437    1.403   .     A
C426   H464    1.083   .     S
C427   C431    1.390   .     A
C427   H470    1.083   .     S
C427   C437    1.404   .     A
C428   C433    1.390   .     A
C428   C436    1.402   .     A
C428   H471    1.083   .     S
C429   C434    1.404   .     A
C429   H472    1.083   .     S
C430   C435    1.400   .     A
C430   H473    1.083   .     S
C431   C435    1.399   .     A
C431   H474    1.083   .     S
C432   O484    1.296   .     A
C432   C438    1.450   .     S
C432   O483    1.299   .     A
C433   C434    1.403   .     A
C433   H475    1.081   .     S
C434   C443    1.465   .     S
C435   C445    1.455   .     S
C436   C1067   1.468   1_554 S
C437   C1066   1.468   .     S
C439   C450    1.400   .     A
C440   H458    1.114   .     S
C440   H457    1.108   .     S
C440   O490    1.411   .     S
C440   H459    1.108   .     S
C441   O480    1.414   .     S
C441   H461    1.114   .     S
C441   H460    1.108   .     S
C441   H462    1.108   .     S
C442   H463    1.109   .     S
C442   O481    1.414   .     S
C442   H466    1.109   .     S
C442   H465    1.115   .     S
C443   O489    1.303   .     A
C443   O486    1.301   .     A
C444   H467    1.115   .     S
C444   H468    1.109   .     S
C444   H469    1.107   .     S
C444   O482    1.413   .     S
C445   O487    1.297   .     A
C445   O488    1.301   .     A
C446   O490    1.381   .     S
C446   N478    1.374   .     A
C447   O480    1.383   .     S
C447   N477    1.375   .     A
C447   C28     1.439   1_565 S
C448   N478    1.368   .     A
C448   O481    1.384   .     S
C449   N477    1.376   .     A
C449   O482    1.382   .     S
C449   C26     1.426   1_565 S
C450   H476    1.078   .     S
C450   C563    1.381   1_455 S
Cu451  N477    2.029   .     S
Cu451  O486    1.953   .     S
Cu451  O488    1.956   .     S
Cu451  O479    1.965   .     S
Cu451  O484    1.965   .     S
Cu451  Cu452   2.700   .     S
Cu452  N478    2.029   .     S
Cu452  O489    1.956   .     S
Cu452  O487    1.953   .     S
Cu452  O483    1.965   .     S
Cu452  O485    1.965   .     S
C491   O555    1.299   .     A
C491   O549    1.298   .     A
C491   C509    1.453   .     S
C492   C508    1.402   .     A
C492   H524    1.083   .     S
C492   C564    1.385   .     S
C493   H525    1.081   .     S
C493   C508    1.398   .     A
C493   C590    1.381   .     S
C494   H526    1.082   .     S
C494   C509    1.401   .     A
C495   C499    1.390   .     A
C495   C506    1.402   .     A
C495   H523    1.083   .     S
C496   C500    1.390   .     A
C496   C507    1.403   .     A
C496   H534    1.083   .     S
C497   C501    1.390   .     A
C497   H540    1.083   .     S
C497   C507    1.404   .     A
C498   C503    1.390   .     A
C498   C506    1.402   .     A
C498   H541    1.083   .     S
C499   C504    1.404   .     A
C499   H542    1.083   .     S
C500   C505    1.400   .     A
C500   H543    1.083   .     S
C501   C505    1.399   .     A
C501   H544    1.083   .     S
C502   O554    1.296   .     A
C502   C508    1.450   .     S
C502   O553    1.299   .     A
C503   C504    1.403   .     A
C503   H545    1.081   .     S
C504   C513    1.465   .     S
C505   C515    1.455   .     S
C506   C1137   1.468   1_554 S
C507   C1136   1.468   .     S
C509   C520    1.400   .     A
C510   H528    1.114   .     S
C510   H527    1.108   .     S
C510   O560    1.411   .     S
C510   H529    1.108   .     S
C511   O550    1.414   .     S
C511   H531    1.114   .     S
C511   H530    1.108   .     S
C511   H532    1.108   .     S
C512   H533    1.109   .     S
C512   O551    1.414   .     S
C512   H536    1.109   .     S
C512   H535    1.115   .     S
C513   O559    1.303   .     A
C513   O556    1.301   .     A
C514   H537    1.115   .     S
C514   H538    1.109   .     S
C514   H539    1.107   .     S
C514   O552    1.413   .     S
C515   O557    1.297   .     A
C515   O558    1.301   .     A
C516   O560    1.381   .     S
C516   N548    1.374   .     A
C517   O550    1.383   .     S
C517   N547    1.375   .     A
C517   C98     1.439   1_565 S
C518   N548    1.368   .     A
C518   O551    1.384   .     S
C519   N547    1.376   .     A
C519   O552    1.382   .     S
C519   C96     1.426   1_565 S
C520   H546    1.078   .     S
Cu521  N547    2.029   .     S
Cu521  O556    1.953   .     S
Cu521  O558    1.956   .     S
Cu521  O549    1.965   .     S
Cu521  O554    1.965   .     S
Cu521  Cu522   2.700   .     S
Cu522  N548    2.029   .     S
Cu522  O559    1.956   .     S
Cu522  O557    1.953   .     S
Cu522  O553    1.965   .     S
Cu522  O555    1.965   .     S
C561   O625    1.299   .     A
C561   O619    1.298   .     A
C561   C579    1.453   .     S
C562   C578    1.402   .     A
C562   H594    1.083   .     S
C562   C424    1.385   1_655 S
C563   H595    1.081   .     S
C563   C578    1.398   .     A
C563   C450    1.381   1_655 S
C564   H596    1.082   .     S
C564   C579    1.401   .     A
C565   C569    1.390   .     A
C565   C576    1.402   .     A
C565   H593    1.083   .     S
C566   C570    1.390   .     A
C566   C577    1.403   .     A
C566   H604    1.083   .     S
C567   C571    1.390   .     A
C567   H610    1.083   .     S
C567   C577    1.404   .     A
C568   C573    1.390   .     A
C568   C576    1.402   .     A
C568   H611    1.083   .     S
C569   C574    1.404   .     A
C569   H612    1.083   .     S
C570   C575    1.400   .     A
C570   H613    1.083   .     S
C571   C575    1.399   .     A
C571   H614    1.083   .     S
C572   O624    1.296   .     A
C572   C578    1.450   .     S
C572   O623    1.299   .     A
C573   C574    1.403   .     A
C573   H615    1.081   .     S
C574   C583    1.465   .     S
C575   C585    1.455   .     S
C576   C1207   1.468   1_554 S
C577   C1206   1.468   .     S
C579   C590    1.400   .     A
C580   H598    1.114   .     S
C580   H597    1.108   .     S
C580   O630    1.411   .     S
C580   H599    1.108   .     S
C581   O620    1.414   .     S
C581   H601    1.114   .     S
C581   H600    1.108   .     S
C581   H602    1.108   .     S
C582   H603    1.109   .     S
C582   O621    1.414   .     S
C582   H606    1.109   .     S
C582   H605    1.115   .     S
C583   O629    1.303   .     A
C583   O626    1.301   .     A
C584   H607    1.115   .     S
C584   H608    1.109   .     S
C584   H609    1.107   .     S
C584   O622    1.413   .     S
C585   O627    1.297   .     A
C585   O628    1.301   .     A
C586   O630    1.381   .     S
C586   N618    1.374   .     A
C587   O620    1.383   .     S
C587   N617    1.375   .     A
C587   C168    1.439   1_565 S
C588   N618    1.368   .     A
C588   O621    1.384   .     S
C589   N617    1.376   .     A
C589   O622    1.382   .     S
C589   C166    1.426   1_565 S
C590   H616    1.078   .     S
Cu591  N617    2.029   .     S
Cu591  O626    1.953   .     S
Cu591  O628    1.956   .     S
Cu591  O619    1.965   .     S
Cu591  O624    1.965   .     S
Cu591  Cu592   2.700   .     S
Cu592  N618    2.029   .     S
Cu592  O629    1.956   .     S
Cu592  O627    1.953   .     S
Cu592  O623    1.965   .     S
Cu592  O625    1.965   .     S
C631   O695    1.299   .     A
C631   O689    1.298   .     A
C631   C649    1.453   .     S
C632   C648    1.402   .     A
C632   H664    1.083   .     S
C632   C704    1.385   .     S
C633   H665    1.081   .     S
C633   C648    1.398   .     A
C633   C730    1.381   .     S
C634   H666    1.082   .     S
C634   C649    1.401   .     A
C634   C772    1.385   1_455 S
C635   C639    1.390   .     A
C635   C646    1.402   .     A
C635   H663    1.083   .     S
C636   C640    1.390   .     A
C636   C647    1.403   .     A
C636   H674    1.083   .     S
C637   C641    1.390   .     A
C637   H680    1.083   .     S
C637   C647    1.404   .     A
C638   C643    1.390   .     A
C638   C646    1.402   .     A
C638   H681    1.083   .     S
C639   C644    1.404   .     A
C639   H682    1.083   .     S
C640   C645    1.400   .     A
C640   H683    1.083   .     S
C641   C645    1.399   .     A
C641   H684    1.083   .     S
C642   O694    1.296   .     A
C642   C648    1.450   .     S
C642   O693    1.299   .     A
C643   C644    1.403   .     A
C643   H685    1.081   .     S
C644   C653    1.465   .     S
C645   C655    1.455   .     S
C647   C16     1.468   1_556 S
C649   C660    1.400   .     A
C650   H668    1.114   .     S
C650   H667    1.108   .     S
C650   O700    1.411   .     S
C650   H669    1.108   .     S
C651   O690    1.414   .     S
C651   H671    1.114   .     S
C651   H670    1.108   .     S
C651   H672    1.108   .     S
C652   H673    1.109   .     S
C652   O691    1.414   .     S
C652   H676    1.109   .     S
C652   H675    1.115   .     S
C653   O699    1.303   .     A
C653   O696    1.301   .     A
C654   H677    1.115   .     S
C654   H678    1.109   .     S
C654   H679    1.107   .     S
C654   O692    1.413   .     S
C655   O697    1.297   .     A
C655   O698    1.301   .     A
C656   O700    1.381   .     S
C656   N688    1.374   .     A
C656   C1079   1.426   1_545 S
C657   O690    1.383   .     S
C657   N687    1.375   .     A
C657   C868    1.439   .     S
C658   N688    1.368   .     A
C658   O691    1.384   .     S
C658   C1077   1.439   1_545 S
C659   N687    1.376   .     A
C659   O692    1.382   .     S
C659   C866    1.426   .     S
C660   H686    1.078   .     S
C660   C773    1.381   1_455 S
Cu661  N687    2.029   .     S
Cu661  O696    1.953   .     S
Cu661  O698    1.956   .     S
Cu661  O689    1.965   .     S
Cu661  O694    1.965   .     S
Cu661  Cu662   2.700   .     S
Cu662  N688    2.029   .     S
Cu662  O699    1.956   .     S
Cu662  O697    1.953   .     S
Cu662  O693    1.965   .     S
Cu662  O695    1.965   .     S
C701   O765    1.299   .     A
C701   O759    1.298   .     A
C701   C719    1.453   .     S
C702   C718    1.402   .     A
C702   H734    1.083   .     S
C702   C774    1.385   .     S
C703   H735    1.081   .     S
C703   C718    1.398   .     A
C703   C800    1.381   .     S
C704   H736    1.082   .     S
C704   C719    1.401   .     A
C705   C709    1.390   .     A
C705   C716    1.402   .     A
C705   H733    1.083   .     S
C706   C710    1.390   .     A
C706   C717    1.403   .     A
C706   H744    1.083   .     S
C707   C711    1.390   .     A
C707   H750    1.083   .     S
C707   C717    1.404   .     A
C708   C713    1.390   .     A
C708   C716    1.402   .     A
C708   H751    1.083   .     S
C709   C714    1.404   .     A
C709   H752    1.083   .     S
C710   C715    1.400   .     A
C710   H753    1.083   .     S
C711   C715    1.399   .     A
C711   H754    1.083   .     S
C712   O764    1.296   .     A
C712   C718    1.450   .     S
C712   O763    1.299   .     A
C713   C714    1.403   .     A
C713   H755    1.081   .     S
C714   C723    1.465   .     S
C715   C725    1.455   .     S
C717   C86     1.468   1_556 S
C719   C730    1.400   .     A
C720   H738    1.114   .     S
C720   H737    1.108   .     S
C720   O770    1.411   .     S
C720   H739    1.108   .     S
C721   O760    1.414   .     S
C721   H741    1.114   .     S
C721   H740    1.108   .     S
C721   H742    1.108   .     S
C722   H743    1.109   .     S
C722   O761    1.414   .     S
C722   H746    1.109   .     S
C722   H745    1.115   .     S
C723   O769    1.303   .     A
C723   O766    1.301   .     A
C724   H747    1.115   .     S
C724   H748    1.109   .     S
C724   H749    1.107   .     S
C724   O762    1.413   .     S
C725   O767    1.297   .     A
C725   O768    1.301   .     A
C726   O770    1.381   .     S
C726   N758    1.374   .     A
C726   C1149   1.426   1_545 S
C727   O760    1.383   .     S
C727   N757    1.375   .     A
C727   C938    1.439   .     S
C728   N758    1.368   .     A
C728   O761    1.384   .     S
C728   C1147   1.439   1_545 S
C729   N757    1.376   .     A
C729   O762    1.382   .     S
C729   C936    1.426   .     S
C730   H756    1.078   .     S
Cu731  N757    2.029   .     S
Cu731  O766    1.953   .     S
Cu731  O768    1.956   .     S
Cu731  O759    1.965   .     S
Cu731  O764    1.965   .     S
Cu731  Cu732   2.700   .     S
Cu732  N758    2.029   .     S
Cu732  O769    1.956   .     S
Cu732  O767    1.953   .     S
Cu732  O763    1.965   .     S
Cu732  O765    1.965   .     S
C771   O835    1.299   .     A
C771   O829    1.298   .     A
C771   C789    1.453   .     S
C772   C788    1.402   .     A
C772   H804    1.083   .     S
C772   C634    1.385   1_655 S
C773   H805    1.081   .     S
C773   C788    1.398   .     A
C773   C660    1.381   1_655 S
C774   H806    1.082   .     S
C774   C789    1.401   .     A
C775   C779    1.390   .     A
C775   C786    1.402   .     A
C775   H803    1.083   .     S
C776   C780    1.390   .     A
C776   C787    1.403   .     A
C776   H814    1.083   .     S
C777   C781    1.390   .     A
C777   H820    1.083   .     S
C777   C787    1.404   .     A
C778   C783    1.390   .     A
C778   C786    1.402   .     A
C778   H821    1.083   .     S
C779   C784    1.404   .     A
C779   H822    1.083   .     S
C780   C785    1.400   .     A
C780   H823    1.083   .     S
C781   C785    1.399   .     A
C781   H824    1.083   .     S
C782   O834    1.296   .     A
C782   C788    1.450   .     S
C782   O833    1.299   .     A
C783   C784    1.403   .     A
C783   H825    1.081   .     S
C784   C793    1.465   .     S
C785   C795    1.455   .     S
C787   C156    1.468   1_556 S
C789   C800    1.400   .     A
C790   H808    1.114   .     S
C790   H807    1.108   .     S
C790   O840    1.411   .     S
C790   H809    1.108   .     S
C791   O830    1.414   .     S
C791   H811    1.114   .     S
C791   H810    1.108   .     S
C791   H812    1.108   .     S
C792   H813    1.109   .     S
C792   O831    1.414   .     S
C792   H816    1.109   .     S
C792   H815    1.115   .     S
C793   O839    1.303   .     A
C793   O836    1.301   .     A
C794   H817    1.115   .     S
C794   H818    1.109   .     S
C794   H819    1.107   .     S
C794   O832    1.413   .     S
C795   O837    1.297   .     A
C795   O838    1.301   .     A
C796   O840    1.381   .     S
C796   N828    1.374   .     A
C796   C1219   1.426   1_545 S
C797   O830    1.383   .     S
C797   N827    1.375   .     A
C797   C1008   1.439   .     S
C798   N828    1.368   .     A
C798   O831    1.384   .     S
C798   C1217   1.439   1_545 S
C799   N827    1.376   .     A
C799   O832    1.382   .     S
C799   C1006   1.426   .     S
C800   H826    1.078   .     S
Cu801  N827    2.029   .     S
Cu801  O836    1.953   .     S
Cu801  O838    1.956   .     S
Cu801  O829    1.965   .     S
Cu801  O834    1.965   .     S
Cu801  Cu802   2.700   .     S
Cu802  N828    2.029   .     S
Cu802  O839    1.956   .     S
Cu802  O837    1.953   .     S
Cu802  O833    1.965   .     S
Cu802  O835    1.965   .     S
C841   O905    1.299   .     A
C841   O899    1.298   .     A
C841   C859    1.453   .     S
C842   C858    1.402   .     A
C842   H874    1.083   .     S
C842   C914    1.385   .     S
C843   H875    1.081   .     S
C843   C858    1.398   .     A
C843   C940    1.381   .     S
C844   H876    1.082   .     S
C844   C859    1.401   .     A
C844   C982    1.385   1_455 S
C845   C849    1.390   .     A
C845   C856    1.402   .     A
C845   H873    1.083   .     S
C846   C850    1.390   .     A
C846   C857    1.403   .     A
C846   H884    1.083   .     S
C847   C851    1.390   .     A
C847   H890    1.083   .     S
C847   C857    1.404   .     A
C848   C853    1.390   .     A
C848   C856    1.402   .     A
C848   H891    1.083   .     S
C849   C854    1.404   .     A
C849   H892    1.083   .     S
C850   C855    1.400   .     A
C850   H893    1.083   .     S
C851   C855    1.399   .     A
C851   H894    1.083   .     S
C852   O904    1.296   .     A
C852   C858    1.450   .     S
C852   O903    1.299   .     A
C853   C854    1.403   .     A
C853   H895    1.081   .     S
C854   C863    1.465   .     S
C855   C865    1.455   .     S
C857   C226    1.468   1_556 S
C859   C870    1.400   .     A
C860   H878    1.114   .     S
C860   H877    1.108   .     S
C860   O910    1.411   .     S
C860   H879    1.108   .     S
C861   O900    1.414   .     S
C861   H881    1.114   .     S
C861   H880    1.108   .     S
C861   H882    1.108   .     S
C862   H883    1.109   .     S
C862   O901    1.414   .     S
C862   H886    1.109   .     S
C862   H885    1.115   .     S
C863   O909    1.303   .     A
C863   O906    1.301   .     A
C864   H887    1.115   .     S
C864   H888    1.109   .     S
C864   H889    1.107   .     S
C864   O902    1.413   .     S
C865   O907    1.297   .     A
C865   O908    1.301   .     A
C866   O910    1.381   .     S
C866   N898    1.374   .     A
C867   O900    1.383   .     S
C867   N897    1.375   .     A
C867   C1078   1.439   .     S
C868   N898    1.368   .     A
C868   O901    1.384   .     S
C869   N897    1.376   .     A
C869   O902    1.382   .     S
C869   C1076   1.426   .     S
C870   H896    1.078   .     S
C870   C983    1.381   1_455 S
Cu871  N897    2.029   .     S
Cu871  O906    1.953   .     S
Cu871  O908    1.956   .     S
Cu871  O899    1.965   .     S
Cu871  O904    1.965   .     S
Cu871  Cu872   2.700   .     S
Cu872  N898    2.029   .     S
Cu872  O909    1.956   .     S
Cu872  O907    1.953   .     S
Cu872  O903    1.965   .     S
Cu872  O905    1.965   .     S
C911   O975    1.299   .     A
C911   O969    1.298   .     A
C911   C929    1.453   .     S
C912   C928    1.402   .     A
C912   H944    1.083   .     S
C912   C984    1.385   .     S
C913   H945    1.081   .     S
C913   C928    1.398   .     A
C913   C1010   1.381   .     S
C914   H946    1.082   .     S
C914   C929    1.401   .     A
C915   C919    1.390   .     A
C915   C926    1.402   .     A
C915   H943    1.083   .     S
C916   C920    1.390   .     A
C916   C927    1.403   .     A
C916   H954    1.083   .     S
C917   C921    1.390   .     A
C917   H960    1.083   .     S
C917   C927    1.404   .     A
C918   C923    1.390   .     A
C918   C926    1.402   .     A
C918   H961    1.083   .     S
C919   C924    1.404   .     A
C919   H962    1.083   .     S
C920   C925    1.400   .     A
C920   H963    1.083   .     S
C921   C925    1.399   .     A
C921   H964    1.083   .     S
C922   O974    1.296   .     A
C922   C928    1.450   .     S
C922   O973    1.299   .     A
C923   C924    1.403   .     A
C923   H965    1.081   .     S
C924   C933    1.465   .     S
C925   C935    1.455   .     S
C927   C296    1.468   1_556 S
C929   C940    1.400   .     A
C930   H948    1.114   .     S
C930   H947    1.108   .     S
C930   O980    1.411   .     S
C930   H949    1.108   .     S
C931   O970    1.414   .     S
C931   H951    1.114   .     S
C931   H950    1.108   .     S
C931   H952    1.108   .     S
C932   H953    1.109   .     S
C932   O971    1.414   .     S
C932   H956    1.109   .     S
C932   H955    1.115   .     S
C933   O979    1.303   .     A
C933   O976    1.301   .     A
C934   H957    1.115   .     S
C934   H958    1.109   .     S
C934   H959    1.107   .     S
C934   O972    1.413   .     S
C935   O977    1.297   .     A
C935   O978    1.301   .     A
C936   O980    1.381   .     S
C936   N968    1.374   .     A
C937   O970    1.383   .     S
C937   N967    1.375   .     A
C937   C1148   1.439   .     S
C938   N968    1.368   .     A
C938   O971    1.384   .     S
C939   N967    1.376   .     A
C939   O972    1.382   .     S
C939   C1146   1.426   .     S
C940   H966    1.078   .     S
Cu941  N967    2.029   .     S
Cu941  O976    1.953   .     S
Cu941  O978    1.956   .     S
Cu941  O969    1.965   .     S
Cu941  O974    1.965   .     S
Cu941  Cu942   2.700   .     S
Cu942  N968    2.029   .     S
Cu942  O979    1.956   .     S
Cu942  O977    1.953   .     S
Cu942  O973    1.965   .     S
Cu942  O975    1.965   .     S
C981   O1045   1.299   .     A
C981   O1039   1.298   .     A
C981   C999    1.453   .     S
C982   C998    1.402   .     A
C982   H1014   1.083   .     S
C982   C844    1.385   1_655 S
C983   H1015   1.081   .     S
C983   C998    1.398   .     A
C983   C870    1.381   1_655 S
C984   H1016   1.082   .     S
C984   C999    1.401   .     A
C985   C989    1.390   .     A
C985   C996    1.402   .     A
C985   H1013   1.083   .     S
C986   C990    1.390   .     A
C986   C997    1.403   .     A
C986   H1024   1.083   .     S
C987   C991    1.390   .     A
C987   H1030   1.083   .     S
C987   C997    1.404   .     A
C988   C993    1.390   .     A
C988   C996    1.402   .     A
C988   H1031   1.083   .     S
C989   C994    1.404   .     A
C989   H1032   1.083   .     S
C990   C995    1.400   .     A
C990   H1033   1.083   .     S
C991   C995    1.399   .     A
C991   H1034   1.083   .     S
C992   O1044   1.296   .     A
C992   C998    1.450   .     S
C992   O1043   1.299   .     A
C993   C994    1.403   .     A
C993   H1035   1.081   .     S
C994   C1003   1.465   .     S
C995   C1005   1.455   .     S
C997   C366    1.468   1_556 S
C999   C1010   1.400   .     A
C1000  H1018   1.114   .     S
C1000  H1017   1.108   .     S
C1000  O1050   1.411   .     S
C1000  H1019   1.108   .     S
C1001  O1040   1.414   .     S
C1001  H1021   1.114   .     S
C1001  H1020   1.108   .     S
C1001  H1022   1.108   .     S
C1002  H1023   1.109   .     S
C1002  O1041   1.414   .     S
C1002  H1026   1.109   .     S
C1002  H1025   1.115   .     S
C1003  O1049   1.303   .     A
C1003  O1046   1.301   .     A
C1004  H1027   1.115   .     S
C1004  H1028   1.109   .     S
C1004  H1029   1.107   .     S
C1004  O1042   1.413   .     S
C1005  O1047   1.297   .     A
C1005  O1048   1.301   .     A
C1006  O1050   1.381   .     S
C1006  N1038   1.374   .     A
C1007  O1040   1.383   .     S
C1007  N1037   1.375   .     A
C1007  C1218   1.439   .     S
C1008  N1038   1.368   .     A
C1008  O1041   1.384   .     S
C1009  N1037   1.376   .     A
C1009  O1042   1.382   .     S
C1009  C1216   1.426   .     S
C1010  H1036   1.078   .     S
Cu1011 N1037   2.029   .     S
Cu1011 O1046   1.953   .     S
Cu1011 O1048   1.956   .     S
Cu1011 O1039   1.965   .     S
Cu1011 O1044   1.965   .     S
Cu1011 Cu1012  2.700   .     S
Cu1012 N1038   2.029   .     S
Cu1012 O1049   1.956   .     S
Cu1012 O1047   1.953   .     S
Cu1012 O1043   1.965   .     S
Cu1012 O1045   1.965   .     S
C1051  O1115   1.299   .     A
C1051  O1109   1.298   .     A
C1051  C1069   1.453   .     S
C1052  C1068   1.402   .     A
C1052  H1084   1.083   .     S
C1052  C1124   1.385   .     S
C1053  H1085   1.081   .     S
C1053  C1068   1.398   .     A
C1053  C1150   1.381   .     S
C1054  H1086   1.082   .     S
C1054  C1069   1.401   .     A
C1054  C1192   1.385   1_455 S
C1055  C1059   1.390   .     A
C1055  C1066   1.402   .     A
C1055  H1083   1.083   .     S
C1056  C1060   1.390   .     A
C1056  C1067   1.403   .     A
C1056  H1094   1.083   .     S
C1057  C1061   1.390   .     A
C1057  H1100   1.083   .     S
C1057  C1067   1.404   .     A
C1058  C1063   1.390   .     A
C1058  C1066   1.402   .     A
C1058  H1101   1.083   .     S
C1059  C1064   1.404   .     A
C1059  H1102   1.083   .     S
C1060  C1065   1.400   .     A
C1060  H1103   1.083   .     S
C1061  C1065   1.399   .     A
C1061  H1104   1.083   .     S
C1062  O1114   1.296   .     A
C1062  C1068   1.450   .     S
C1062  O1113   1.299   .     A
C1063  C1064   1.403   .     A
C1063  H1105   1.081   .     S
C1064  C1073   1.465   .     S
C1065  C1075   1.455   .     S
C1067  C436    1.468   1_556 S
C1069  C1080   1.400   .     A
C1070  H1088   1.114   .     S
C1070  H1087   1.108   .     S
C1070  O1120   1.411   .     S
C1070  H1089   1.108   .     S
C1071  O1110   1.414   .     S
C1071  H1091   1.114   .     S
C1071  H1090   1.108   .     S
C1071  H1092   1.108   .     S
C1072  H1093   1.109   .     S
C1072  O1111   1.414   .     S
C1072  H1096   1.109   .     S
C1072  H1095   1.115   .     S
C1073  O1119   1.303   .     A
C1073  O1116   1.301   .     A
C1074  H1097   1.115   .     S
C1074  H1098   1.109   .     S
C1074  H1099   1.107   .     S
C1074  O1112   1.413   .     S
C1075  O1117   1.297   .     A
C1075  O1118   1.301   .     A
C1076  O1120   1.381   .     S
C1076  N1108   1.374   .     A
C1077  O1110   1.383   .     S
C1077  N1107   1.375   .     A
C1077  C658    1.439   1_565 S
C1078  N1108   1.368   .     A
C1078  O1111   1.384   .     S
C1079  N1107   1.376   .     A
C1079  O1112   1.382   .     S
C1079  C656    1.426   1_565 S
C1080  H1106   1.078   .     S
C1080  C1193   1.381   1_455 S
Cu1081 N1107   2.029   .     S
Cu1081 O1116   1.953   .     S
Cu1081 O1118   1.956   .     S
Cu1081 O1109   1.965   .     S
Cu1081 O1114   1.965   .     S
Cu1081 Cu1082  2.700   .     S
Cu1082 N1108   2.029   .     S
Cu1082 O1119   1.956   .     S
Cu1082 O1117   1.953   .     S
Cu1082 O1113   1.965   .     S
Cu1082 O1115   1.965   .     S
C1121  O1185   1.299   .     A
C1121  O1179   1.298   .     A
C1121  C1139   1.453   .     S
C1122  C1138   1.402   .     A
C1122  H1154   1.083   .     S
C1122  C1194   1.385   .     S
C1123  H1155   1.081   .     S
C1123  C1138   1.398   .     A
C1123  C1220   1.381   .     S
C1124  H1156   1.082   .     S
C1124  C1139   1.401   .     A
C1125  C1129   1.390   .     A
C1125  C1136   1.402   .     A
C1125  H1153   1.083   .     S
C1126  C1130   1.390   .     A
C1126  C1137   1.403   .     A
C1126  H1164   1.083   .     S
C1127  C1131   1.390   .     A
C1127  H1170   1.083   .     S
C1127  C1137   1.404   .     A
C1128  C1133   1.390   .     A
C1128  C1136   1.402   .     A
C1128  H1171   1.083   .     S
C1129  C1134   1.404   .     A
C1129  H1172   1.083   .     S
C1130  C1135   1.400   .     A
C1130  H1173   1.083   .     S
C1131  C1135   1.399   .     A
C1131  H1174   1.083   .     S
C1132  O1184   1.296   .     A
C1132  C1138   1.450   .     S
C1132  O1183   1.299   .     A
C1133  C1134   1.403   .     A
C1133  H1175   1.081   .     S
C1134  C1143   1.465   .     S
C1135  C1145   1.455   .     S
C1137  C506    1.468   1_556 S
C1139  C1150   1.400   .     A
C1140  H1158   1.114   .     S
C1140  H1157   1.108   .     S
C1140  O1190   1.411   .     S
C1140  H1159   1.108   .     S
C1141  O1180   1.414   .     S
C1141  H1161   1.114   .     S
C1141  H1160   1.108   .     S
C1141  H1162   1.108   .     S
C1142  H1163   1.109   .     S
C1142  O1181   1.414   .     S
C1142  H1166   1.109   .     S
C1142  H1165   1.115   .     S
C1143  O1189   1.303   .     A
C1143  O1186   1.301   .     A
C1144  H1167   1.115   .     S
C1144  H1168   1.109   .     S
C1144  H1169   1.107   .     S
C1144  O1182   1.413   .     S
C1145  O1187   1.297   .     A
C1145  O1188   1.301   .     A
C1146  O1190   1.381   .     S
C1146  N1178   1.374   .     A
C1147  O1180   1.383   .     S
C1147  N1177   1.375   .     A
C1147  C728    1.439   1_565 S
C1148  N1178   1.368   .     A
C1148  O1181   1.384   .     S
C1149  N1177   1.376   .     A
C1149  O1182   1.382   .     S
C1149  C726    1.426   1_565 S
C1150  H1176   1.078   .     S
Cu1151 N1177   2.029   .     S
Cu1151 O1186   1.953   .     S
Cu1151 O1188   1.956   .     S
Cu1151 O1179   1.965   .     S
Cu1151 O1184   1.965   .     S
Cu1151 Cu1152  2.700   .     S
Cu1152 N1178   2.029   .     S
Cu1152 O1189   1.956   .     S
Cu1152 O1187   1.953   .     S
Cu1152 O1183   1.965   .     S
Cu1152 O1185   1.965   .     S
C1191  O1255   1.299   .     A
C1191  O1249   1.298   .     A
C1191  C1209   1.453   .     S
C1192  C1208   1.402   .     A
C1192  H1224   1.083   .     S
C1192  C1054   1.385   1_655 S
C1193  H1225   1.081   .     S
C1193  C1208   1.398   .     A
C1193  C1080   1.381   1_655 S
C1194  H1226   1.082   .     S
C1194  C1209   1.401   .     A
C1195  C1199   1.390   .     A
C1195  C1206   1.402   .     A
C1195  H1223   1.083   .     S
C1196  C1200   1.390   .     A
C1196  C1207   1.403   .     A
C1196  H1234   1.083   .     S
C1197  C1201   1.390   .     A
C1197  H1240   1.083   .     S
C1197  C1207   1.404   .     A
C1198  C1203   1.390   .     A
C1198  C1206   1.402   .     A
C1198  H1241   1.083   .     S
C1199  C1204   1.404   .     A
C1199  H1242   1.083   .     S
C1200  C1205   1.400   .     A
C1200  H1243   1.083   .     S
C1201  C1205   1.399   .     A
C1201  H1244   1.083   .     S
C1202  O1254   1.296   .     A
C1202  C1208   1.450   .     S
C1202  O1253   1.299   .     A
C1203  C1204   1.403   .     A
C1203  H1245   1.081   .     S
C1204  C1213   1.465   .     S
C1205  C1215   1.455   .     S
C1207  C576    1.468   1_556 S
C1209  C1220   1.400   .     A
C1210  H1228   1.114   .     S
C1210  H1227   1.108   .     S
C1210  O1260   1.411   .     S
C1210  H1229   1.108   .     S
C1211  O1250   1.414   .     S
C1211  H1231   1.114   .     S
C1211  H1230   1.108   .     S
C1211  H1232   1.108   .     S
C1212  H1233   1.109   .     S
C1212  O1251   1.414   .     S
C1212  H1236   1.109   .     S
C1212  H1235   1.115   .     S
C1213  O1259   1.303   .     A
C1213  O1256   1.301   .     A
C1214  H1237   1.115   .     S
C1214  H1238   1.109   .     S
C1214  H1239   1.107   .     S
C1214  O1252   1.413   .     S
C1215  O1257   1.297   .     A
C1215  O1258   1.301   .     A
C1216  O1260   1.381   .     S
C1216  N1248   1.374   .     A
C1217  O1250   1.383   .     S
C1217  N1247   1.375   .     A
C1217  C798    1.439   1_565 S
C1218  N1248   1.368   .     A
C1218  O1251   1.384   .     S
C1219  N1247   1.376   .     A
C1219  O1252   1.382   .     S
C1219  C796    1.426   1_565 S
C1220  H1246   1.078   .     S
Cu1221 N1247   2.029   .     S
Cu1221 O1256   1.953   .     S
Cu1221 O1258   1.956   .     S
Cu1221 O1249   1.965   .     S
Cu1221 O1254   1.965   .     S
Cu1221 Cu1222  2.700   .     S
Cu1222 N1248   2.029   .     S
Cu1222 O1259   1.956   .     S
Cu1222 O1257   1.953   .     S
Cu1222 O1253   1.965   .     S
Cu1222 O1255   1.965   .     S
