data_str_m2_o1_o10_pcu_sym.192
_audit_creation_date              2020-01-03
_audit_creation_method            'Materials Studio'
_symmetry_space_group_name_H-M    'P1'
_symmetry_Int_Tables_number       1
_symmetry_cell_setting            triclinic
loop_
_symmetry_equiv_pos_as_xyz
  x,y,z
_cell_length_a                    26.5795
_cell_length_b                    32.5015
_cell_length_c                    28.7960
_cell_angle_alpha                 89.6560
_cell_angle_beta                  96.6380
_cell_angle_gamma                 94.2443
loop_
_atom_site_label
_atom_site_type_symbol
_atom_site_fract_x
_atom_site_fract_y
_atom_site_fract_z
_atom_site_U_iso_or_equiv
_atom_site_adp_type
_atom_site_occupancy
C1     C     0.16547   0.08748   0.16654   0.00000  Uiso   1.00
C2     C     0.16787   0.24585   0.16680   0.00000  Uiso   1.00
C3     C     0.06844   0.16749   0.15519   0.00000  Uiso   1.00
C4     C     0.26490   0.16585   0.17815   0.00000  Uiso   1.00
C5     C     0.01462   0.17365   0.14999   0.00000  Uiso   1.00
C6     C     0.31872   0.15969   0.18334   0.00000  Uiso   1.00
C7     C     0.20219   0.02438   0.14358   0.00000  Uiso   1.00
C8     C     0.13115   0.30896   0.18975   0.00000  Uiso   1.00
C9     C     0.20437   0.31493   0.14539   0.00000  Uiso   1.00
C10    C     0.12897   0.01840   0.18794   0.00000  Uiso   1.00
C11    C     0.16790   0.29052   0.16719   0.00000  Uiso   1.00
C12    C     0.16545   0.04281   0.16614   0.00000  Uiso   1.00
C13    C     0.13093   0.14245   0.02053   0.00000  Uiso   1.00
C14    C     0.20240   0.19088   0.31280   0.00000  Uiso   1.00
C15    C     0.13187   0.14242   0.30461   0.00000  Uiso   1.00
C16    C     0.20146   0.19092   0.02872   0.00000  Uiso   1.00
Cu17   Cu    0.16667   0.16667   0.21355   0.00000  Uiso   1.00
Cu18   Cu    0.16667   0.16666   0.11978   0.00000  Uiso   1.00
N19    N     0.16668   0.16668   0.28403   0.00000  Uiso   1.00
N20    N     0.16665   0.16666   0.04931   0.00000  Uiso   1.00
O21    O     0.16666   0.10655   0.20625   0.00000  Uiso   1.00
O22    O     0.16667   0.22678   0.12709   0.00000  Uiso   1.00
O23    O     0.16666   0.10654   0.12706   0.00000  Uiso   1.00
O24    O     0.16667   0.22679   0.20628   0.00000  Uiso   1.00
O25    O     0.09161   0.16667   0.19712   0.00000  Uiso   1.00
O26    O     0.24172   0.16666   0.13621   0.00000  Uiso   1.00
O27    O     0.09161   0.16666   0.11793   0.00000  Uiso   1.00
O28    O     0.24172   0.16667   0.21540   0.00000  Uiso   1.00
N29    N     0.32707   0.19555   0.10992   0.00000  Uiso   1.00
H30    H     0.31015   0.17661   0.08318   0.00000  Uiso   1.00
C31    C     0.02334   0.23120   0.09437   0.00000  Uiso   1.00
H32    H     0.04748   0.22190   0.06779   0.00000  Uiso   1.00
H33    H     0.04764   0.24671   0.12412   0.00000  Uiso   1.00
H34    H     0.33060   0.25366   0.07809   0.00000  Uiso   1.00
N35    N     0.00626   0.13779   0.22342   0.00000  Uiso   1.00
H36    H     0.02321   0.15674   0.25015   0.00000  Uiso   1.00
C37    C     0.30998   0.10216   0.23901   0.00000  Uiso   1.00
H38    H     0.28587   0.11148   0.26560   0.00000  Uiso   1.00
H39    H     0.00272   0.07969   0.25527   0.00000  Uiso   1.00
H40    H     0.28564   0.08665   0.20927   0.00000  Uiso   1.00
N41    N     0.23772   0.04917   0.11991   0.00000  Uiso   1.00
H42    H     0.27486   0.04278   0.12924   0.00000  Uiso   1.00
C43    C     0.22549   0.05037   0.06963   0.00000  Uiso   1.00
H44    H     0.22961   0.01977   0.05407   0.00000  Uiso   1.00
H45    H     0.25181   0.07366   0.05473   0.00000  Uiso   1.00
H46    H     0.18602   0.05913   0.06009   0.00000  Uiso   1.00
N47    N     0.09562   0.28417   0.21341   0.00000  Uiso   1.00
H48    H     0.05848   0.29055   0.20408   0.00000  Uiso   1.00
C49    C     0.10784   0.28296   0.26369   0.00000  Uiso   1.00
H50    H     0.10372   0.31356   0.27926   0.00000  Uiso   1.00
H51    H     0.14731   0.27420   0.27324   0.00000  Uiso   1.00
H52    H     0.08151   0.25967   0.27859   0.00000  Uiso   1.00
N53    N     0.24575   0.29736   0.12797   0.00000  Uiso   1.00
H54    H     0.23612   0.27512   0.10277   0.00000  Uiso   1.00
C55    C     0.28672   0.28796   0.16301   0.00000  Uiso   1.00
H56    H     0.28273   0.25492   0.17291   0.00000  Uiso   1.00
H57    H     0.28768   0.30729   0.19491   0.00000  Uiso   1.00
H58    H     0.32306   0.29451   0.14827   0.00000  Uiso   1.00
N59    N     0.08759   0.03597   0.20536   0.00000  Uiso   1.00
H60    H     0.09723   0.05815   0.23064   0.00000  Uiso   1.00
C61    C     0.04670   0.04550   0.17030   0.00000  Uiso   1.00
H62    H     0.05084   0.07853   0.16042   0.00000  Uiso   1.00
H63    H     0.01032   0.03904   0.18500   0.00000  Uiso   1.00
H64    H     0.04569   0.02616   0.13840   0.00000  Uiso   1.00
N65    N     0.09332   0.11564   0.03912   0.00000  Uiso   1.00
H66    H     0.09996   0.10375   0.07193   0.00000  Uiso   1.00
C67    C     0.04041   0.12062   0.02343   0.00000  Uiso   1.00
H68    H     0.01959   0.12516   0.05396   0.00000  Uiso   1.00
H69    H     0.02340   0.09215   0.00510   0.00000  Uiso   1.00
H70    H     0.03579   0.14748   0.33313   0.00000  Uiso   1.00
N71    N     0.24002   0.21769   0.29421   0.00000  Uiso   1.00
H72    H     0.23338   0.22958   0.26140   0.00000  Uiso   1.00
C73    C     0.29292   0.21270   0.30991   0.00000  Uiso   1.00
H74    H     0.31375   0.20818   0.27937   0.00000  Uiso   1.00
H75    H     0.29754   0.18584   0.00020   0.00000  Uiso   1.00
H76    H     0.30993   0.24117   0.32825   0.00000  Uiso   1.00
F77    F     0.09838   0.11696   0.27763   0.00000  Uiso   1.00
F78    F     0.23496   0.21637   0.05570   0.00000  Uiso   1.00
C79    C     0.49881   0.08748   0.16654   0.00000  Uiso   1.00
C80    C     0.50120   0.24585   0.16680   0.00000  Uiso   1.00
C81    C     0.40177   0.16749   0.15519   0.00000  Uiso   1.00
C82    C     0.59823   0.16585   0.17815   0.00000  Uiso   1.00
C83    C     0.34795   0.17365   0.14999   0.00000  Uiso   1.00
C84    C     0.65205   0.15969   0.18334   0.00000  Uiso   1.00
C85    C     0.53553   0.02438   0.14358   0.00000  Uiso   1.00
C86    C     0.46448   0.30896   0.18975   0.00000  Uiso   1.00
C87    C     0.53771   0.31493   0.14539   0.00000  Uiso   1.00
C88    C     0.46231   0.01840   0.18794   0.00000  Uiso   1.00
C89    C     0.50123   0.29052   0.16719   0.00000  Uiso   1.00
C90    C     0.49878   0.04281   0.16614   0.00000  Uiso   1.00
C91    C     0.46426   0.14245   0.02053   0.00000  Uiso   1.00
C92    C     0.53574   0.19088   0.31280   0.00000  Uiso   1.00
C93    C     0.46520   0.14242   0.30461   0.00000  Uiso   1.00
C94    C     0.53480   0.19092   0.02872   0.00000  Uiso   1.00
Cu95   Cu    0.50000   0.16667   0.21355   0.00000  Uiso   1.00
Cu96   Cu    0.50000   0.16666   0.11978   0.00000  Uiso   1.00
N97    N     0.50001   0.16668   0.28403   0.00000  Uiso   1.00
N98    N     0.49999   0.16666   0.04931   0.00000  Uiso   1.00
O99    O     0.50000   0.10655   0.20625   0.00000  Uiso   1.00
O100   O     0.50000   0.22678   0.12709   0.00000  Uiso   1.00
O101   O     0.50000   0.10654   0.12706   0.00000  Uiso   1.00
O102   O     0.50000   0.22679   0.20628   0.00000  Uiso   1.00
O103   O     0.42495   0.16667   0.19712   0.00000  Uiso   1.00
O104   O     0.57505   0.16666   0.13621   0.00000  Uiso   1.00
O105   O     0.42494   0.16666   0.11793   0.00000  Uiso   1.00
O106   O     0.57506   0.16667   0.21540   0.00000  Uiso   1.00
N107   N     0.66040   0.19555   0.10992   0.00000  Uiso   1.00
H108   H     0.64348   0.17661   0.08318   0.00000  Uiso   1.00
C109   C     0.35667   0.23120   0.09437   0.00000  Uiso   1.00
H110   H     0.38082   0.22190   0.06779   0.00000  Uiso   1.00
H111   H     0.38098   0.24671   0.12412   0.00000  Uiso   1.00
H112   H     0.66393   0.25366   0.07809   0.00000  Uiso   1.00
N113   N     0.33960   0.13779   0.22342   0.00000  Uiso   1.00
H114   H     0.35654   0.15674   0.25015   0.00000  Uiso   1.00
C115   C     0.64332   0.10216   0.23901   0.00000  Uiso   1.00
H116   H     0.61921   0.11148   0.26560   0.00000  Uiso   1.00
H117   H     0.33606   0.07969   0.25527   0.00000  Uiso   1.00
H118   H     0.61898   0.08665   0.20927   0.00000  Uiso   1.00
N119   N     0.57105   0.04917   0.11991   0.00000  Uiso   1.00
H120   H     0.60819   0.04278   0.12924   0.00000  Uiso   1.00
C121   C     0.55882   0.05037   0.06963   0.00000  Uiso   1.00
H122   H     0.56294   0.01977   0.05407   0.00000  Uiso   1.00
H123   H     0.58515   0.07366   0.05473   0.00000  Uiso   1.00
H124   H     0.51935   0.05913   0.06009   0.00000  Uiso   1.00
N125   N     0.42895   0.28417   0.21341   0.00000  Uiso   1.00
H126   H     0.39181   0.29055   0.20408   0.00000  Uiso   1.00
C127   C     0.44117   0.28296   0.26369   0.00000  Uiso   1.00
H128   H     0.43706   0.31356   0.27926   0.00000  Uiso   1.00
H129   H     0.48064   0.27420   0.27324   0.00000  Uiso   1.00
H130   H     0.41484   0.25967   0.27859   0.00000  Uiso   1.00
N131   N     0.57908   0.29736   0.12797   0.00000  Uiso   1.00
H132   H     0.56945   0.27512   0.10277   0.00000  Uiso   1.00
C133   C     0.62006   0.28796   0.16301   0.00000  Uiso   1.00
H134   H     0.61606   0.25492   0.17291   0.00000  Uiso   1.00
H135   H     0.62102   0.30729   0.19491   0.00000  Uiso   1.00
H136   H     0.65639   0.29451   0.14827   0.00000  Uiso   1.00
N137   N     0.42093   0.03597   0.20536   0.00000  Uiso   1.00
H138   H     0.43057   0.05815   0.23064   0.00000  Uiso   1.00
C139   C     0.38003   0.04550   0.17030   0.00000  Uiso   1.00
H140   H     0.38418   0.07853   0.16042   0.00000  Uiso   1.00
H141   H     0.34366   0.03904   0.18500   0.00000  Uiso   1.00
H142   H     0.37902   0.02616   0.13840   0.00000  Uiso   1.00
N143   N     0.42665   0.11564   0.03912   0.00000  Uiso   1.00
H144   H     0.43329   0.10375   0.07193   0.00000  Uiso   1.00
C145   C     0.37375   0.12062   0.02343   0.00000  Uiso   1.00
H146   H     0.35292   0.12516   0.05396   0.00000  Uiso   1.00
H147   H     0.35673   0.09215   0.00510   0.00000  Uiso   1.00
H148   H     0.36913   0.14748   0.33313   0.00000  Uiso   1.00
N149   N     0.57335   0.21769   0.29421   0.00000  Uiso   1.00
H150   H     0.56671   0.22958   0.26140   0.00000  Uiso   1.00
C151   C     0.62625   0.21270   0.30991   0.00000  Uiso   1.00
H152   H     0.64708   0.20818   0.27937   0.00000  Uiso   1.00
H153   H     0.63087   0.18584   0.00020   0.00000  Uiso   1.00
H154   H     0.64327   0.24117   0.32825   0.00000  Uiso   1.00
F155   F     0.43172   0.11696   0.27763   0.00000  Uiso   1.00
F156   F     0.56829   0.21637   0.05570   0.00000  Uiso   1.00
C157   C     0.83214   0.08748   0.16654   0.00000  Uiso   1.00
C158   C     0.83454   0.24585   0.16680   0.00000  Uiso   1.00
C159   C     0.73510   0.16749   0.15519   0.00000  Uiso   1.00
C160   C     0.93156   0.16585   0.17815   0.00000  Uiso   1.00
C161   C     0.68128   0.17365   0.14999   0.00000  Uiso   1.00
C162   C     0.98538   0.15969   0.18334   0.00000  Uiso   1.00
C163   C     0.86886   0.02438   0.14358   0.00000  Uiso   1.00
C164   C     0.79782   0.30896   0.18975   0.00000  Uiso   1.00
C165   C     0.87104   0.31493   0.14539   0.00000  Uiso   1.00
C166   C     0.79564   0.01840   0.18794   0.00000  Uiso   1.00
C167   C     0.83456   0.29052   0.16719   0.00000  Uiso   1.00
C168   C     0.83212   0.04281   0.16614   0.00000  Uiso   1.00
C169   C     0.79760   0.14245   0.02053   0.00000  Uiso   1.00
C170   C     0.86907   0.19088   0.31280   0.00000  Uiso   1.00
C171   C     0.79854   0.14242   0.30461   0.00000  Uiso   1.00
C172   C     0.86813   0.19092   0.02872   0.00000  Uiso   1.00
Cu173  Cu    0.83333   0.16667   0.21355   0.00000  Uiso   1.00
Cu174  Cu    0.83333   0.16666   0.11978   0.00000  Uiso   1.00
N175   N     0.83335   0.16668   0.28403   0.00000  Uiso   1.00
N176   N     0.83332   0.16666   0.04931   0.00000  Uiso   1.00
O177   O     0.83333   0.10655   0.20625   0.00000  Uiso   1.00
O178   O     0.83334   0.22678   0.12709   0.00000  Uiso   1.00
O179   O     0.83333   0.10654   0.12706   0.00000  Uiso   1.00
O180   O     0.83334   0.22679   0.20628   0.00000  Uiso   1.00
O181   O     0.75828   0.16667   0.19712   0.00000  Uiso   1.00
O182   O     0.90839   0.16666   0.13621   0.00000  Uiso   1.00
O183   O     0.75828   0.16666   0.11793   0.00000  Uiso   1.00
O184   O     0.90839   0.16667   0.21540   0.00000  Uiso   1.00
N185   N     0.99374   0.19555   0.10992   0.00000  Uiso   1.00
H186   H     0.97682   0.17661   0.08318   0.00000  Uiso   1.00
C187   C     0.69001   0.23120   0.09437   0.00000  Uiso   1.00
H188   H     0.71415   0.22190   0.06779   0.00000  Uiso   1.00
H189   H     0.71431   0.24671   0.12412   0.00000  Uiso   1.00
H190   H     0.99726   0.25366   0.07809   0.00000  Uiso   1.00
N191   N     0.67293   0.13779   0.22342   0.00000  Uiso   1.00
H192   H     0.68987   0.15674   0.25015   0.00000  Uiso   1.00
C193   C     0.97665   0.10216   0.23901   0.00000  Uiso   1.00
H194   H     0.95254   0.11148   0.26560   0.00000  Uiso   1.00
H195   H     0.66939   0.07969   0.25527   0.00000  Uiso   1.00
H196   H     0.95231   0.08665   0.20927   0.00000  Uiso   1.00
N197   N     0.90438   0.04917   0.11991   0.00000  Uiso   1.00
H198   H     0.94153   0.04278   0.12924   0.00000  Uiso   1.00
C199   C     0.89216   0.05037   0.06963   0.00000  Uiso   1.00
H200   H     0.89627   0.01977   0.05407   0.00000  Uiso   1.00
H201   H     0.91848   0.07366   0.05473   0.00000  Uiso   1.00
H202   H     0.85269   0.05913   0.06009   0.00000  Uiso   1.00
N203   N     0.76229   0.28417   0.21341   0.00000  Uiso   1.00
H204   H     0.72515   0.29055   0.20408   0.00000  Uiso   1.00
C205   C     0.77450   0.28296   0.26369   0.00000  Uiso   1.00
H206   H     0.77039   0.31356   0.27926   0.00000  Uiso   1.00
H207   H     0.81397   0.27420   0.27324   0.00000  Uiso   1.00
H208   H     0.74818   0.25967   0.27859   0.00000  Uiso   1.00
N209   N     0.91242   0.29736   0.12797   0.00000  Uiso   1.00
H210   H     0.90279   0.27512   0.10277   0.00000  Uiso   1.00
C211   C     0.95339   0.28796   0.16301   0.00000  Uiso   1.00
H212   H     0.94940   0.25492   0.17291   0.00000  Uiso   1.00
H213   H     0.95435   0.30729   0.19491   0.00000  Uiso   1.00
H214   H     0.98973   0.29451   0.14827   0.00000  Uiso   1.00
N215   N     0.75426   0.03597   0.20536   0.00000  Uiso   1.00
H216   H     0.76390   0.05815   0.23064   0.00000  Uiso   1.00
C217   C     0.71337   0.04550   0.17030   0.00000  Uiso   1.00
H218   H     0.71751   0.07853   0.16042   0.00000  Uiso   1.00
H219   H     0.67699   0.03904   0.18500   0.00000  Uiso   1.00
H220   H     0.71236   0.02616   0.13840   0.00000  Uiso   1.00
N221   N     0.75998   0.11564   0.03912   0.00000  Uiso   1.00
H222   H     0.76662   0.10375   0.07193   0.00000  Uiso   1.00
C223   C     0.70708   0.12062   0.02343   0.00000  Uiso   1.00
H224   H     0.68625   0.12516   0.05396   0.00000  Uiso   1.00
H225   H     0.69007   0.09215   0.00510   0.00000  Uiso   1.00
H226   H     0.70246   0.14748   0.33313   0.00000  Uiso   1.00
N227   N     0.90669   0.21769   0.29421   0.00000  Uiso   1.00
H228   H     0.90005   0.22958   0.26140   0.00000  Uiso   1.00
C229   C     0.95959   0.21270   0.30991   0.00000  Uiso   1.00
H230   H     0.98042   0.20818   0.27937   0.00000  Uiso   1.00
H231   H     0.96421   0.18584   0.00020   0.00000  Uiso   1.00
H232   H     0.97660   0.24117   0.32825   0.00000  Uiso   1.00
F233   F     0.76505   0.11696   0.27763   0.00000  Uiso   1.00
F234   F     0.90162   0.21637   0.05570   0.00000  Uiso   1.00
C235   C     0.16547   0.42081   0.16654   0.00000  Uiso   1.00
C236   C     0.16787   0.57919   0.16680   0.00000  Uiso   1.00
C237   C     0.06844   0.50082   0.15519   0.00000  Uiso   1.00
C238   C     0.26490   0.49918   0.17815   0.00000  Uiso   1.00
C239   C     0.01462   0.50698   0.14999   0.00000  Uiso   1.00
C240   C     0.31872   0.49303   0.18334   0.00000  Uiso   1.00
C241   C     0.20219   0.35771   0.14358   0.00000  Uiso   1.00
C242   C     0.13115   0.64229   0.18975   0.00000  Uiso   1.00
C243   C     0.20437   0.64827   0.14539   0.00000  Uiso   1.00
C244   C     0.12897   0.35173   0.18794   0.00000  Uiso   1.00
C245   C     0.16790   0.62386   0.16719   0.00000  Uiso   1.00
C246   C     0.16545   0.37614   0.16614   0.00000  Uiso   1.00
C247   C     0.13093   0.47579   0.02053   0.00000  Uiso   1.00
C248   C     0.20240   0.52421   0.31280   0.00000  Uiso   1.00
C249   C     0.13187   0.47575   0.30461   0.00000  Uiso   1.00
C250   C     0.20146   0.52425   0.02872   0.00000  Uiso   1.00
Cu251  Cu    0.16667   0.50001   0.21355   0.00000  Uiso   1.00
Cu252  Cu    0.16667   0.49999   0.11978   0.00000  Uiso   1.00
N253   N     0.16668   0.50001   0.28403   0.00000  Uiso   1.00
N254   N     0.16665   0.49999   0.04931   0.00000  Uiso   1.00
O255   O     0.16666   0.43989   0.20625   0.00000  Uiso   1.00
O256   O     0.16667   0.56011   0.12709   0.00000  Uiso   1.00
O257   O     0.16666   0.43988   0.12706   0.00000  Uiso   1.00
O258   O     0.16667   0.56012   0.20628   0.00000  Uiso   1.00
O259   O     0.09161   0.50000   0.19712   0.00000  Uiso   1.00
O260   O     0.24172   0.50000   0.13621   0.00000  Uiso   1.00
O261   O     0.09161   0.49999   0.11793   0.00000  Uiso   1.00
O262   O     0.24172   0.50001   0.21540   0.00000  Uiso   1.00
N263   N     0.32707   0.52889   0.10992   0.00000  Uiso   1.00
H264   H     0.31015   0.50995   0.08318   0.00000  Uiso   1.00
C265   C     0.02334   0.56454   0.09437   0.00000  Uiso   1.00
H266   H     0.04748   0.55523   0.06779   0.00000  Uiso   1.00
H267   H     0.04764   0.58005   0.12412   0.00000  Uiso   1.00
H268   H     0.33060   0.58700   0.07809   0.00000  Uiso   1.00
N269   N     0.00626   0.47113   0.22342   0.00000  Uiso   1.00
H270   H     0.02321   0.49007   0.25015   0.00000  Uiso   1.00
C271   C     0.30998   0.43549   0.23901   0.00000  Uiso   1.00
H272   H     0.28587   0.44482   0.26560   0.00000  Uiso   1.00
H273   H     0.00272   0.41302   0.25527   0.00000  Uiso   1.00
H274   H     0.28564   0.41999   0.20927   0.00000  Uiso   1.00
N275   N     0.23772   0.38250   0.11991   0.00000  Uiso   1.00
H276   H     0.27486   0.37612   0.12924   0.00000  Uiso   1.00
C277   C     0.22549   0.38370   0.06963   0.00000  Uiso   1.00
H278   H     0.22961   0.35310   0.05407   0.00000  Uiso   1.00
H279   H     0.25181   0.40699   0.05473   0.00000  Uiso   1.00
H280   H     0.18602   0.39246   0.06009   0.00000  Uiso   1.00
N281   N     0.09562   0.61750   0.21341   0.00000  Uiso   1.00
H282   H     0.05848   0.62389   0.20408   0.00000  Uiso   1.00
C283   C     0.10784   0.61630   0.26369   0.00000  Uiso   1.00
H284   H     0.10372   0.64689   0.27926   0.00000  Uiso   1.00
H285   H     0.14731   0.60754   0.27324   0.00000  Uiso   1.00
H286   H     0.08151   0.59301   0.27859   0.00000  Uiso   1.00
N287   N     0.24575   0.63070   0.12797   0.00000  Uiso   1.00
H288   H     0.23612   0.60845   0.10277   0.00000  Uiso   1.00
C289   C     0.28672   0.62129   0.16301   0.00000  Uiso   1.00
H290   H     0.28273   0.58825   0.17291   0.00000  Uiso   1.00
H291   H     0.28768   0.64062   0.19491   0.00000  Uiso   1.00
H292   H     0.32306   0.62784   0.14827   0.00000  Uiso   1.00
N293   N     0.08759   0.36930   0.20536   0.00000  Uiso   1.00
H294   H     0.09723   0.39148   0.23064   0.00000  Uiso   1.00
C295   C     0.04670   0.37883   0.17030   0.00000  Uiso   1.00
H296   H     0.05084   0.41186   0.16042   0.00000  Uiso   1.00
H297   H     0.01032   0.37238   0.18500   0.00000  Uiso   1.00
H298   H     0.04569   0.35950   0.13840   0.00000  Uiso   1.00
N299   N     0.09332   0.44898   0.03912   0.00000  Uiso   1.00
H300   H     0.09996   0.43708   0.07193   0.00000  Uiso   1.00
C301   C     0.04041   0.45396   0.02343   0.00000  Uiso   1.00
H302   H     0.01959   0.45850   0.05396   0.00000  Uiso   1.00
H303   H     0.02340   0.42549   0.00510   0.00000  Uiso   1.00
H304   H     0.03579   0.48082   0.33313   0.00000  Uiso   1.00
N305   N     0.24002   0.55102   0.29421   0.00000  Uiso   1.00
H306   H     0.23338   0.56291   0.26140   0.00000  Uiso   1.00
C307   C     0.29292   0.54604   0.30991   0.00000  Uiso   1.00
H308   H     0.31375   0.54151   0.27937   0.00000  Uiso   1.00
H309   H     0.29754   0.51917   0.00020   0.00000  Uiso   1.00
H310   H     0.30993   0.57450   0.32825   0.00000  Uiso   1.00
F311   F     0.09838   0.45030   0.27763   0.00000  Uiso   1.00
F312   F     0.23496   0.54970   0.05570   0.00000  Uiso   1.00
C313   C     0.49881   0.42081   0.16654   0.00000  Uiso   1.00
C314   C     0.50120   0.57919   0.16680   0.00000  Uiso   1.00
C315   C     0.40177   0.50082   0.15519   0.00000  Uiso   1.00
C316   C     0.59823   0.49918   0.17815   0.00000  Uiso   1.00
C317   C     0.34795   0.50698   0.14999   0.00000  Uiso   1.00
C318   C     0.65205   0.49303   0.18334   0.00000  Uiso   1.00
C319   C     0.53553   0.35771   0.14358   0.00000  Uiso   1.00
C320   C     0.46448   0.64229   0.18975   0.00000  Uiso   1.00
C321   C     0.53771   0.64827   0.14539   0.00000  Uiso   1.00
C322   C     0.46231   0.35173   0.18794   0.00000  Uiso   1.00
C323   C     0.50123   0.62386   0.16719   0.00000  Uiso   1.00
C324   C     0.49878   0.37614   0.16614   0.00000  Uiso   1.00
C325   C     0.46426   0.47579   0.02053   0.00000  Uiso   1.00
C326   C     0.53574   0.52421   0.31280   0.00000  Uiso   1.00
C327   C     0.46520   0.47575   0.30461   0.00000  Uiso   1.00
C328   C     0.53480   0.52425   0.02872   0.00000  Uiso   1.00
Cu329  Cu    0.50000   0.50001   0.21355   0.00000  Uiso   1.00
Cu330  Cu    0.50000   0.49999   0.11978   0.00000  Uiso   1.00
N331   N     0.50001   0.50001   0.28403   0.00000  Uiso   1.00
N332   N     0.49999   0.49999   0.04931   0.00000  Uiso   1.00
O333   O     0.50000   0.43989   0.20625   0.00000  Uiso   1.00
O334   O     0.50000   0.56011   0.12709   0.00000  Uiso   1.00
O335   O     0.50000   0.43988   0.12706   0.00000  Uiso   1.00
O336   O     0.50000   0.56012   0.20628   0.00000  Uiso   1.00
O337   O     0.42495   0.50000   0.19712   0.00000  Uiso   1.00
O338   O     0.57505   0.50000   0.13621   0.00000  Uiso   1.00
O339   O     0.42494   0.49999   0.11793   0.00000  Uiso   1.00
O340   O     0.57506   0.50001   0.21540   0.00000  Uiso   1.00
N341   N     0.66040   0.52889   0.10992   0.00000  Uiso   1.00
H342   H     0.64348   0.50995   0.08318   0.00000  Uiso   1.00
C343   C     0.35667   0.56454   0.09437   0.00000  Uiso   1.00
H344   H     0.38082   0.55523   0.06779   0.00000  Uiso   1.00
H345   H     0.38098   0.58005   0.12412   0.00000  Uiso   1.00
H346   H     0.66393   0.58700   0.07809   0.00000  Uiso   1.00
N347   N     0.33960   0.47113   0.22342   0.00000  Uiso   1.00
H348   H     0.35654   0.49007   0.25015   0.00000  Uiso   1.00
C349   C     0.64332   0.43549   0.23901   0.00000  Uiso   1.00
H350   H     0.61921   0.44482   0.26560   0.00000  Uiso   1.00
H351   H     0.33606   0.41302   0.25527   0.00000  Uiso   1.00
H352   H     0.61898   0.41999   0.20927   0.00000  Uiso   1.00
N353   N     0.57105   0.38250   0.11991   0.00000  Uiso   1.00
H354   H     0.60819   0.37612   0.12924   0.00000  Uiso   1.00
C355   C     0.55882   0.38370   0.06963   0.00000  Uiso   1.00
H356   H     0.56294   0.35310   0.05407   0.00000  Uiso   1.00
H357   H     0.58515   0.40699   0.05473   0.00000  Uiso   1.00
H358   H     0.51935   0.39246   0.06009   0.00000  Uiso   1.00
N359   N     0.42895   0.61750   0.21341   0.00000  Uiso   1.00
H360   H     0.39181   0.62389   0.20408   0.00000  Uiso   1.00
C361   C     0.44117   0.61630   0.26369   0.00000  Uiso   1.00
H362   H     0.43706   0.64689   0.27926   0.00000  Uiso   1.00
H363   H     0.48064   0.60754   0.27324   0.00000  Uiso   1.00
H364   H     0.41484   0.59301   0.27859   0.00000  Uiso   1.00
N365   N     0.57908   0.63070   0.12797   0.00000  Uiso   1.00
H366   H     0.56945   0.60845   0.10277   0.00000  Uiso   1.00
C367   C     0.62006   0.62129   0.16301   0.00000  Uiso   1.00
H368   H     0.61606   0.58825   0.17291   0.00000  Uiso   1.00
H369   H     0.62102   0.64062   0.19491   0.00000  Uiso   1.00
H370   H     0.65639   0.62784   0.14827   0.00000  Uiso   1.00
N371   N     0.42093   0.36930   0.20536   0.00000  Uiso   1.00
H372   H     0.43057   0.39148   0.23064   0.00000  Uiso   1.00
C373   C     0.38003   0.37883   0.17030   0.00000  Uiso   1.00
H374   H     0.38418   0.41186   0.16042   0.00000  Uiso   1.00
H375   H     0.34366   0.37238   0.18500   0.00000  Uiso   1.00
H376   H     0.37902   0.35950   0.13840   0.00000  Uiso   1.00
N377   N     0.42665   0.44898   0.03912   0.00000  Uiso   1.00
H378   H     0.43329   0.43708   0.07193   0.00000  Uiso   1.00
C379   C     0.37375   0.45396   0.02343   0.00000  Uiso   1.00
H380   H     0.35292   0.45850   0.05396   0.00000  Uiso   1.00
H381   H     0.35673   0.42549   0.00510   0.00000  Uiso   1.00
H382   H     0.36913   0.48082   0.33313   0.00000  Uiso   1.00
N383   N     0.57335   0.55102   0.29421   0.00000  Uiso   1.00
H384   H     0.56671   0.56291   0.26140   0.00000  Uiso   1.00
C385   C     0.62625   0.54604   0.30991   0.00000  Uiso   1.00
H386   H     0.64708   0.54151   0.27937   0.00000  Uiso   1.00
H387   H     0.63087   0.51917   0.00020   0.00000  Uiso   1.00
H388   H     0.64327   0.57450   0.32825   0.00000  Uiso   1.00
F389   F     0.43172   0.45030   0.27763   0.00000  Uiso   1.00
F390   F     0.56829   0.54970   0.05570   0.00000  Uiso   1.00
C391   C     0.83214   0.42081   0.16654   0.00000  Uiso   1.00
C392   C     0.83454   0.57919   0.16680   0.00000  Uiso   1.00
C393   C     0.73510   0.50082   0.15519   0.00000  Uiso   1.00
C394   C     0.93156   0.49918   0.17815   0.00000  Uiso   1.00
C395   C     0.68128   0.50698   0.14999   0.00000  Uiso   1.00
C396   C     0.98538   0.49303   0.18334   0.00000  Uiso   1.00
C397   C     0.86886   0.35771   0.14358   0.00000  Uiso   1.00
C398   C     0.79782   0.64229   0.18975   0.00000  Uiso   1.00
C399   C     0.87104   0.64827   0.14539   0.00000  Uiso   1.00
C400   C     0.79564   0.35173   0.18794   0.00000  Uiso   1.00
C401   C     0.83456   0.62386   0.16719   0.00000  Uiso   1.00
C402   C     0.83212   0.37614   0.16614   0.00000  Uiso   1.00
C403   C     0.79760   0.47579   0.02053   0.00000  Uiso   1.00
C404   C     0.86907   0.52421   0.31280   0.00000  Uiso   1.00
C405   C     0.79854   0.47575   0.30461   0.00000  Uiso   1.00
C406   C     0.86813   0.52425   0.02872   0.00000  Uiso   1.00
Cu407  Cu    0.83333   0.50001   0.21355   0.00000  Uiso   1.00
Cu408  Cu    0.83333   0.49999   0.11978   0.00000  Uiso   1.00
N409   N     0.83335   0.50001   0.28403   0.00000  Uiso   1.00
N410   N     0.83332   0.49999   0.04931   0.00000  Uiso   1.00
O411   O     0.83333   0.43989   0.20625   0.00000  Uiso   1.00
O412   O     0.83334   0.56011   0.12709   0.00000  Uiso   1.00
O413   O     0.83333   0.43988   0.12706   0.00000  Uiso   1.00
O414   O     0.83334   0.56012   0.20628   0.00000  Uiso   1.00
O415   O     0.75828   0.50000   0.19712   0.00000  Uiso   1.00
O416   O     0.90839   0.50000   0.13621   0.00000  Uiso   1.00
O417   O     0.75828   0.49999   0.11793   0.00000  Uiso   1.00
O418   O     0.90839   0.50001   0.21540   0.00000  Uiso   1.00
N419   N     0.99374   0.52889   0.10992   0.00000  Uiso   1.00
H420   H     0.97682   0.50995   0.08318   0.00000  Uiso   1.00
C421   C     0.69001   0.56454   0.09437   0.00000  Uiso   1.00
H422   H     0.71415   0.55523   0.06779   0.00000  Uiso   1.00
H423   H     0.71431   0.58005   0.12412   0.00000  Uiso   1.00
H424   H     0.99726   0.58700   0.07809   0.00000  Uiso   1.00
N425   N     0.67293   0.47113   0.22342   0.00000  Uiso   1.00
H426   H     0.68987   0.49007   0.25015   0.00000  Uiso   1.00
C427   C     0.97665   0.43549   0.23901   0.00000  Uiso   1.00
H428   H     0.95254   0.44482   0.26560   0.00000  Uiso   1.00
H429   H     0.66939   0.41302   0.25527   0.00000  Uiso   1.00
H430   H     0.95231   0.41999   0.20927   0.00000  Uiso   1.00
N431   N     0.90438   0.38250   0.11991   0.00000  Uiso   1.00
H432   H     0.94153   0.37612   0.12924   0.00000  Uiso   1.00
C433   C     0.89216   0.38370   0.06963   0.00000  Uiso   1.00
H434   H     0.89627   0.35310   0.05407   0.00000  Uiso   1.00
H435   H     0.91848   0.40699   0.05473   0.00000  Uiso   1.00
H436   H     0.85269   0.39246   0.06009   0.00000  Uiso   1.00
N437   N     0.76229   0.61750   0.21341   0.00000  Uiso   1.00
H438   H     0.72515   0.62389   0.20408   0.00000  Uiso   1.00
C439   C     0.77450   0.61630   0.26369   0.00000  Uiso   1.00
H440   H     0.77039   0.64689   0.27926   0.00000  Uiso   1.00
H441   H     0.81397   0.60754   0.27324   0.00000  Uiso   1.00
H442   H     0.74818   0.59301   0.27859   0.00000  Uiso   1.00
N443   N     0.91242   0.63070   0.12797   0.00000  Uiso   1.00
H444   H     0.90279   0.60845   0.10277   0.00000  Uiso   1.00
C445   C     0.95339   0.62129   0.16301   0.00000  Uiso   1.00
H446   H     0.94940   0.58825   0.17291   0.00000  Uiso   1.00
H447   H     0.95435   0.64062   0.19491   0.00000  Uiso   1.00
H448   H     0.98973   0.62784   0.14827   0.00000  Uiso   1.00
N449   N     0.75426   0.36930   0.20536   0.00000  Uiso   1.00
H450   H     0.76390   0.39148   0.23064   0.00000  Uiso   1.00
C451   C     0.71337   0.37883   0.17030   0.00000  Uiso   1.00
H452   H     0.71751   0.41186   0.16042   0.00000  Uiso   1.00
H453   H     0.67699   0.37238   0.18500   0.00000  Uiso   1.00
H454   H     0.71236   0.35950   0.13840   0.00000  Uiso   1.00
N455   N     0.75998   0.44898   0.03912   0.00000  Uiso   1.00
H456   H     0.76662   0.43708   0.07193   0.00000  Uiso   1.00
C457   C     0.70708   0.45396   0.02343   0.00000  Uiso   1.00
H458   H     0.68625   0.45850   0.05396   0.00000  Uiso   1.00
H459   H     0.69007   0.42549   0.00510   0.00000  Uiso   1.00
H460   H     0.70246   0.48082   0.33313   0.00000  Uiso   1.00
N461   N     0.90669   0.55102   0.29421   0.00000  Uiso   1.00
H462   H     0.90005   0.56291   0.26140   0.00000  Uiso   1.00
C463   C     0.95959   0.54604   0.30991   0.00000  Uiso   1.00
H464   H     0.98042   0.54151   0.27937   0.00000  Uiso   1.00
H465   H     0.96421   0.51917   0.00020   0.00000  Uiso   1.00
H466   H     0.97660   0.57450   0.32825   0.00000  Uiso   1.00
F467   F     0.76505   0.45030   0.27763   0.00000  Uiso   1.00
F468   F     0.90162   0.54970   0.05570   0.00000  Uiso   1.00
C469   C     0.16547   0.75415   0.16654   0.00000  Uiso   1.00
C470   C     0.16787   0.91252   0.16680   0.00000  Uiso   1.00
C471   C     0.06844   0.83416   0.15519   0.00000  Uiso   1.00
C472   C     0.26490   0.83251   0.17815   0.00000  Uiso   1.00
C473   C     0.01462   0.84031   0.14999   0.00000  Uiso   1.00
C474   C     0.31872   0.82636   0.18334   0.00000  Uiso   1.00
C475   C     0.20219   0.69105   0.14358   0.00000  Uiso   1.00
C476   C     0.13115   0.97562   0.18975   0.00000  Uiso   1.00
C477   C     0.20437   0.98160   0.14539   0.00000  Uiso   1.00
C478   C     0.12897   0.68507   0.18794   0.00000  Uiso   1.00
C479   C     0.16790   0.95719   0.16719   0.00000  Uiso   1.00
C480   C     0.16545   0.70948   0.16614   0.00000  Uiso   1.00
C481   C     0.13093   0.80912   0.02053   0.00000  Uiso   1.00
C482   C     0.20240   0.85755   0.31280   0.00000  Uiso   1.00
C483   C     0.13187   0.80908   0.30461   0.00000  Uiso   1.00
C484   C     0.20146   0.85758   0.02872   0.00000  Uiso   1.00
Cu485  Cu    0.16667   0.83334   0.21355   0.00000  Uiso   1.00
Cu486  Cu    0.16667   0.83333   0.11978   0.00000  Uiso   1.00
N487   N     0.16668   0.83334   0.28403   0.00000  Uiso   1.00
N488   N     0.16665   0.83332   0.04931   0.00000  Uiso   1.00
O489   O     0.16666   0.77322   0.20625   0.00000  Uiso   1.00
O490   O     0.16667   0.89345   0.12709   0.00000  Uiso   1.00
O491   O     0.16666   0.77321   0.12706   0.00000  Uiso   1.00
O492   O     0.16667   0.89346   0.20628   0.00000  Uiso   1.00
O493   O     0.09161   0.83334   0.19712   0.00000  Uiso   1.00
O494   O     0.24172   0.83333   0.13621   0.00000  Uiso   1.00
O495   O     0.09161   0.83333   0.11793   0.00000  Uiso   1.00
O496   O     0.24172   0.83334   0.21540   0.00000  Uiso   1.00
N497   N     0.32707   0.86222   0.10992   0.00000  Uiso   1.00
H498   H     0.31015   0.84328   0.08318   0.00000  Uiso   1.00
C499   C     0.02334   0.89787   0.09437   0.00000  Uiso   1.00
H500   H     0.04748   0.88857   0.06779   0.00000  Uiso   1.00
H501   H     0.04764   0.91338   0.12412   0.00000  Uiso   1.00
H502   H     0.33060   0.92033   0.07809   0.00000  Uiso   1.00
N503   N     0.00626   0.80446   0.22342   0.00000  Uiso   1.00
H504   H     0.02321   0.82340   0.25015   0.00000  Uiso   1.00
C505   C     0.30998   0.76883   0.23901   0.00000  Uiso   1.00
H506   H     0.28587   0.77815   0.26560   0.00000  Uiso   1.00
H507   H     0.00272   0.74636   0.25527   0.00000  Uiso   1.00
H508   H     0.28564   0.75332   0.20927   0.00000  Uiso   1.00
N509   N     0.23772   0.71584   0.11991   0.00000  Uiso   1.00
H510   H     0.27486   0.70945   0.12924   0.00000  Uiso   1.00
C511   C     0.22549   0.71704   0.06963   0.00000  Uiso   1.00
H512   H     0.22961   0.68644   0.05407   0.00000  Uiso   1.00
H513   H     0.25181   0.74032   0.05473   0.00000  Uiso   1.00
H514   H     0.18602   0.72579   0.06009   0.00000  Uiso   1.00
N515   N     0.09562   0.95083   0.21341   0.00000  Uiso   1.00
H516   H     0.05848   0.95722   0.20408   0.00000  Uiso   1.00
C517   C     0.10784   0.94963   0.26369   0.00000  Uiso   1.00
H518   H     0.10372   0.98023   0.27926   0.00000  Uiso   1.00
H519   H     0.14731   0.94087   0.27324   0.00000  Uiso   1.00
H520   H     0.08151   0.92634   0.27859   0.00000  Uiso   1.00
N521   N     0.24575   0.96403   0.12797   0.00000  Uiso   1.00
H522   H     0.23612   0.94179   0.10277   0.00000  Uiso   1.00
C523   C     0.28672   0.95462   0.16301   0.00000  Uiso   1.00
H524   H     0.28273   0.92158   0.17291   0.00000  Uiso   1.00
H525   H     0.28768   0.97395   0.19491   0.00000  Uiso   1.00
H526   H     0.32306   0.96118   0.14827   0.00000  Uiso   1.00
N527   N     0.08759   0.70263   0.20536   0.00000  Uiso   1.00
H528   H     0.09723   0.72482   0.23064   0.00000  Uiso   1.00
C529   C     0.04670   0.71216   0.17030   0.00000  Uiso   1.00
H530   H     0.05084   0.74520   0.16042   0.00000  Uiso   1.00
H531   H     0.01032   0.70571   0.18500   0.00000  Uiso   1.00
H532   H     0.04569   0.69283   0.13840   0.00000  Uiso   1.00
N533   N     0.09332   0.78231   0.03912   0.00000  Uiso   1.00
H534   H     0.09996   0.77042   0.07193   0.00000  Uiso   1.00
C535   C     0.04041   0.78729   0.02343   0.00000  Uiso   1.00
H536   H     0.01959   0.79183   0.05396   0.00000  Uiso   1.00
H537   H     0.02340   0.75882   0.00510   0.00000  Uiso   1.00
H538   H     0.03579   0.81415   0.33313   0.00000  Uiso   1.00
N539   N     0.24002   0.88435   0.29421   0.00000  Uiso   1.00
H540   H     0.23338   0.89625   0.26140   0.00000  Uiso   1.00
C541   C     0.29292   0.87937   0.30991   0.00000  Uiso   1.00
H542   H     0.31375   0.87484   0.27937   0.00000  Uiso   1.00
H543   H     0.29754   0.85250   0.00020   0.00000  Uiso   1.00
H544   H     0.30993   0.90784   0.32825   0.00000  Uiso   1.00
F545   F     0.09838   0.78363   0.27763   0.00000  Uiso   1.00
F546   F     0.23496   0.88303   0.05570   0.00000  Uiso   1.00
C547   C     0.49881   0.75415   0.16654   0.00000  Uiso   1.00
C548   C     0.50120   0.91252   0.16680   0.00000  Uiso   1.00
C549   C     0.40177   0.83416   0.15519   0.00000  Uiso   1.00
C550   C     0.59823   0.83251   0.17815   0.00000  Uiso   1.00
C551   C     0.34795   0.84031   0.14999   0.00000  Uiso   1.00
C552   C     0.65205   0.82636   0.18334   0.00000  Uiso   1.00
C553   C     0.53553   0.69105   0.14358   0.00000  Uiso   1.00
C554   C     0.46448   0.97562   0.18975   0.00000  Uiso   1.00
C555   C     0.53771   0.98160   0.14539   0.00000  Uiso   1.00
C556   C     0.46231   0.68507   0.18794   0.00000  Uiso   1.00
C557   C     0.50123   0.95719   0.16719   0.00000  Uiso   1.00
C558   C     0.49878   0.70948   0.16614   0.00000  Uiso   1.00
C559   C     0.46426   0.80912   0.02053   0.00000  Uiso   1.00
C560   C     0.53574   0.85755   0.31280   0.00000  Uiso   1.00
C561   C     0.46520   0.80908   0.30461   0.00000  Uiso   1.00
C562   C     0.53480   0.85758   0.02872   0.00000  Uiso   1.00
Cu563  Cu    0.50000   0.83334   0.21355   0.00000  Uiso   1.00
Cu564  Cu    0.50000   0.83333   0.11978   0.00000  Uiso   1.00
N565   N     0.50001   0.83334   0.28403   0.00000  Uiso   1.00
N566   N     0.49999   0.83332   0.04931   0.00000  Uiso   1.00
O567   O     0.50000   0.77322   0.20625   0.00000  Uiso   1.00
O568   O     0.50000   0.89345   0.12709   0.00000  Uiso   1.00
O569   O     0.50000   0.77321   0.12706   0.00000  Uiso   1.00
O570   O     0.50000   0.89346   0.20628   0.00000  Uiso   1.00
O571   O     0.42495   0.83334   0.19712   0.00000  Uiso   1.00
O572   O     0.57505   0.83333   0.13621   0.00000  Uiso   1.00
O573   O     0.42494   0.83333   0.11793   0.00000  Uiso   1.00
O574   O     0.57506   0.83334   0.21540   0.00000  Uiso   1.00
N575   N     0.66040   0.86222   0.10992   0.00000  Uiso   1.00
H576   H     0.64348   0.84328   0.08318   0.00000  Uiso   1.00
C577   C     0.35667   0.89787   0.09437   0.00000  Uiso   1.00
H578   H     0.38082   0.88857   0.06779   0.00000  Uiso   1.00
H579   H     0.38098   0.91338   0.12412   0.00000  Uiso   1.00
H580   H     0.66393   0.92033   0.07809   0.00000  Uiso   1.00
N581   N     0.33960   0.80446   0.22342   0.00000  Uiso   1.00
H582   H     0.35654   0.82340   0.25015   0.00000  Uiso   1.00
C583   C     0.64332   0.76883   0.23901   0.00000  Uiso   1.00
H584   H     0.61921   0.77815   0.26560   0.00000  Uiso   1.00
H585   H     0.33606   0.74636   0.25527   0.00000  Uiso   1.00
H586   H     0.61898   0.75332   0.20927   0.00000  Uiso   1.00
N587   N     0.57105   0.71584   0.11991   0.00000  Uiso   1.00
H588   H     0.60819   0.70945   0.12924   0.00000  Uiso   1.00
C589   C     0.55882   0.71704   0.06963   0.00000  Uiso   1.00
H590   H     0.56294   0.68644   0.05407   0.00000  Uiso   1.00
H591   H     0.58515   0.74032   0.05473   0.00000  Uiso   1.00
H592   H     0.51935   0.72579   0.06009   0.00000  Uiso   1.00
N593   N     0.42895   0.95083   0.21341   0.00000  Uiso   1.00
H594   H     0.39181   0.95722   0.20408   0.00000  Uiso   1.00
C595   C     0.44117   0.94963   0.26369   0.00000  Uiso   1.00
H596   H     0.43706   0.98023   0.27926   0.00000  Uiso   1.00
H597   H     0.48064   0.94087   0.27324   0.00000  Uiso   1.00
H598   H     0.41484   0.92634   0.27859   0.00000  Uiso   1.00
N599   N     0.57908   0.96403   0.12797   0.00000  Uiso   1.00
H600   H     0.56945   0.94179   0.10277   0.00000  Uiso   1.00
C601   C     0.62006   0.95462   0.16301   0.00000  Uiso   1.00
H602   H     0.61606   0.92158   0.17291   0.00000  Uiso   1.00
H603   H     0.62102   0.97395   0.19491   0.00000  Uiso   1.00
H604   H     0.65639   0.96118   0.14827   0.00000  Uiso   1.00
N605   N     0.42093   0.70263   0.20536   0.00000  Uiso   1.00
H606   H     0.43057   0.72482   0.23064   0.00000  Uiso   1.00
C607   C     0.38003   0.71216   0.17030   0.00000  Uiso   1.00
H608   H     0.38418   0.74520   0.16042   0.00000  Uiso   1.00
H609   H     0.34366   0.70571   0.18500   0.00000  Uiso   1.00
H610   H     0.37902   0.69283   0.13840   0.00000  Uiso   1.00
N611   N     0.42665   0.78231   0.03912   0.00000  Uiso   1.00
H612   H     0.43329   0.77042   0.07193   0.00000  Uiso   1.00
C613   C     0.37375   0.78729   0.02343   0.00000  Uiso   1.00
H614   H     0.35292   0.79183   0.05396   0.00000  Uiso   1.00
H615   H     0.35673   0.75882   0.00510   0.00000  Uiso   1.00
H616   H     0.36913   0.81415   0.33313   0.00000  Uiso   1.00
N617   N     0.57335   0.88435   0.29421   0.00000  Uiso   1.00
H618   H     0.56671   0.89625   0.26140   0.00000  Uiso   1.00
C619   C     0.62625   0.87937   0.30991   0.00000  Uiso   1.00
H620   H     0.64708   0.87484   0.27937   0.00000  Uiso   1.00
H621   H     0.63087   0.85250   0.00020   0.00000  Uiso   1.00
H622   H     0.64327   0.90784   0.32825   0.00000  Uiso   1.00
F623   F     0.43172   0.78363   0.27763   0.00000  Uiso   1.00
F624   F     0.56829   0.88303   0.05570   0.00000  Uiso   1.00
C625   C     0.83214   0.75415   0.16654   0.00000  Uiso   1.00
C626   C     0.83454   0.91252   0.16680   0.00000  Uiso   1.00
C627   C     0.73510   0.83416   0.15519   0.00000  Uiso   1.00
C628   C     0.93156   0.83251   0.17815   0.00000  Uiso   1.00
C629   C     0.68128   0.84031   0.14999   0.00000  Uiso   1.00
C630   C     0.98538   0.82636   0.18334   0.00000  Uiso   1.00
C631   C     0.86886   0.69105   0.14358   0.00000  Uiso   1.00
C632   C     0.79782   0.97562   0.18975   0.00000  Uiso   1.00
C633   C     0.87104   0.98160   0.14539   0.00000  Uiso   1.00
C634   C     0.79564   0.68507   0.18794   0.00000  Uiso   1.00
C635   C     0.83456   0.95719   0.16719   0.00000  Uiso   1.00
C636   C     0.83212   0.70948   0.16614   0.00000  Uiso   1.00
C637   C     0.79760   0.80912   0.02053   0.00000  Uiso   1.00
C638   C     0.86907   0.85755   0.31280   0.00000  Uiso   1.00
C639   C     0.79854   0.80908   0.30461   0.00000  Uiso   1.00
C640   C     0.86813   0.85758   0.02872   0.00000  Uiso   1.00
Cu641  Cu    0.83333   0.83334   0.21355   0.00000  Uiso   1.00
Cu642  Cu    0.83333   0.83333   0.11978   0.00000  Uiso   1.00
N643   N     0.83335   0.83334   0.28403   0.00000  Uiso   1.00
N644   N     0.83332   0.83332   0.04931   0.00000  Uiso   1.00
O645   O     0.83333   0.77322   0.20625   0.00000  Uiso   1.00
O646   O     0.83334   0.89345   0.12709   0.00000  Uiso   1.00
O647   O     0.83333   0.77321   0.12706   0.00000  Uiso   1.00
O648   O     0.83334   0.89346   0.20628   0.00000  Uiso   1.00
O649   O     0.75828   0.83334   0.19712   0.00000  Uiso   1.00
O650   O     0.90839   0.83333   0.13621   0.00000  Uiso   1.00
O651   O     0.75828   0.83333   0.11793   0.00000  Uiso   1.00
O652   O     0.90839   0.83334   0.21540   0.00000  Uiso   1.00
N653   N     0.99374   0.86222   0.10992   0.00000  Uiso   1.00
H654   H     0.97682   0.84328   0.08318   0.00000  Uiso   1.00
C655   C     0.69001   0.89787   0.09437   0.00000  Uiso   1.00
H656   H     0.71415   0.88857   0.06779   0.00000  Uiso   1.00
H657   H     0.71431   0.91338   0.12412   0.00000  Uiso   1.00
H658   H     0.99726   0.92033   0.07809   0.00000  Uiso   1.00
N659   N     0.67293   0.80446   0.22342   0.00000  Uiso   1.00
H660   H     0.68987   0.82340   0.25015   0.00000  Uiso   1.00
C661   C     0.97665   0.76883   0.23901   0.00000  Uiso   1.00
H662   H     0.95254   0.77815   0.26560   0.00000  Uiso   1.00
H663   H     0.66939   0.74636   0.25527   0.00000  Uiso   1.00
H664   H     0.95231   0.75332   0.20927   0.00000  Uiso   1.00
N665   N     0.90438   0.71584   0.11991   0.00000  Uiso   1.00
H666   H     0.94153   0.70945   0.12924   0.00000  Uiso   1.00
C667   C     0.89216   0.71704   0.06963   0.00000  Uiso   1.00
H668   H     0.89627   0.68644   0.05407   0.00000  Uiso   1.00
H669   H     0.91848   0.74032   0.05473   0.00000  Uiso   1.00
H670   H     0.85269   0.72579   0.06009   0.00000  Uiso   1.00
N671   N     0.76229   0.95083   0.21341   0.00000  Uiso   1.00
H672   H     0.72515   0.95722   0.20408   0.00000  Uiso   1.00
C673   C     0.77450   0.94963   0.26369   0.00000  Uiso   1.00
H674   H     0.77039   0.98023   0.27926   0.00000  Uiso   1.00
H675   H     0.81397   0.94087   0.27324   0.00000  Uiso   1.00
H676   H     0.74818   0.92634   0.27859   0.00000  Uiso   1.00
N677   N     0.91242   0.96403   0.12797   0.00000  Uiso   1.00
H678   H     0.90279   0.94179   0.10277   0.00000  Uiso   1.00
C679   C     0.95339   0.95462   0.16301   0.00000  Uiso   1.00
H680   H     0.94940   0.92158   0.17291   0.00000  Uiso   1.00
H681   H     0.95435   0.97395   0.19491   0.00000  Uiso   1.00
H682   H     0.98973   0.96118   0.14827   0.00000  Uiso   1.00
N683   N     0.75426   0.70263   0.20536   0.00000  Uiso   1.00
H684   H     0.76390   0.72482   0.23064   0.00000  Uiso   1.00
C685   C     0.71337   0.71216   0.17030   0.00000  Uiso   1.00
H686   H     0.71751   0.74520   0.16042   0.00000  Uiso   1.00
H687   H     0.67699   0.70571   0.18500   0.00000  Uiso   1.00
H688   H     0.71236   0.69283   0.13840   0.00000  Uiso   1.00
N689   N     0.75998   0.78231   0.03912   0.00000  Uiso   1.00
H690   H     0.76662   0.77042   0.07193   0.00000  Uiso   1.00
C691   C     0.70708   0.78729   0.02343   0.00000  Uiso   1.00
H692   H     0.68625   0.79183   0.05396   0.00000  Uiso   1.00
H693   H     0.69007   0.75882   0.00510   0.00000  Uiso   1.00
H694   H     0.70246   0.81415   0.33313   0.00000  Uiso   1.00
N695   N     0.90669   0.88435   0.29421   0.00000  Uiso   1.00
H696   H     0.90005   0.89625   0.26140   0.00000  Uiso   1.00
C697   C     0.95959   0.87937   0.30991   0.00000  Uiso   1.00
H698   H     0.98042   0.87484   0.27937   0.00000  Uiso   1.00
H699   H     0.96421   0.85250   0.00020   0.00000  Uiso   1.00
H700   H     0.97660   0.90784   0.32825   0.00000  Uiso   1.00
F701   F     0.76505   0.78363   0.27763   0.00000  Uiso   1.00
F702   F     0.90162   0.88303   0.05570   0.00000  Uiso   1.00
C703   C     0.16547   0.08748   0.49987   0.00000  Uiso   1.00
C704   C     0.16787   0.24585   0.50013   0.00000  Uiso   1.00
C705   C     0.06844   0.16749   0.48852   0.00000  Uiso   1.00
C706   C     0.26490   0.16585   0.51148   0.00000  Uiso   1.00
C707   C     0.01462   0.17365   0.48333   0.00000  Uiso   1.00
C708   C     0.31872   0.15969   0.51668   0.00000  Uiso   1.00
C709   C     0.20219   0.02438   0.47691   0.00000  Uiso   1.00
C710   C     0.13115   0.30896   0.52309   0.00000  Uiso   1.00
C711   C     0.20437   0.31493   0.47872   0.00000  Uiso   1.00
C712   C     0.12897   0.01840   0.52128   0.00000  Uiso   1.00
C713   C     0.16790   0.29052   0.50053   0.00000  Uiso   1.00
C714   C     0.16545   0.04281   0.49947   0.00000  Uiso   1.00
C715   C     0.13093   0.14245   0.35387   0.00000  Uiso   1.00
C716   C     0.20240   0.19088   0.64613   0.00000  Uiso   1.00
C717   C     0.13187   0.14242   0.63795   0.00000  Uiso   1.00
C718   C     0.20146   0.19092   0.36205   0.00000  Uiso   1.00
Cu719  Cu    0.16667   0.16667   0.54689   0.00000  Uiso   1.00
Cu720  Cu    0.16667   0.16666   0.45311   0.00000  Uiso   1.00
N721   N     0.16668   0.16668   0.61736   0.00000  Uiso   1.00
N722   N     0.16665   0.16666   0.38264   0.00000  Uiso   1.00
O723   O     0.16666   0.10655   0.53958   0.00000  Uiso   1.00
O724   O     0.16667   0.22678   0.46042   0.00000  Uiso   1.00
O725   O     0.16666   0.10654   0.46039   0.00000  Uiso   1.00
O726   O     0.16667   0.22679   0.53961   0.00000  Uiso   1.00
O727   O     0.09161   0.16667   0.53046   0.00000  Uiso   1.00
O728   O     0.24172   0.16666   0.46954   0.00000  Uiso   1.00
O729   O     0.09161   0.16666   0.45127   0.00000  Uiso   1.00
O730   O     0.24172   0.16667   0.54873   0.00000  Uiso   1.00
N731   N     0.32707   0.19555   0.44326   0.00000  Uiso   1.00
H732   H     0.31015   0.17661   0.41651   0.00000  Uiso   1.00
C733   C     0.02334   0.23120   0.42770   0.00000  Uiso   1.00
H734   H     0.04748   0.22190   0.40112   0.00000  Uiso   1.00
H735   H     0.04764   0.24671   0.45745   0.00000  Uiso   1.00
H736   H     0.33060   0.25366   0.41142   0.00000  Uiso   1.00
N737   N     0.00626   0.13779   0.55675   0.00000  Uiso   1.00
H738   H     0.02321   0.15674   0.58348   0.00000  Uiso   1.00
C739   C     0.30998   0.10216   0.57234   0.00000  Uiso   1.00
H740   H     0.28587   0.11148   0.59893   0.00000  Uiso   1.00
H741   H     0.00272   0.07969   0.58860   0.00000  Uiso   1.00
H742   H     0.28564   0.08665   0.54261   0.00000  Uiso   1.00
N743   N     0.23772   0.04917   0.45325   0.00000  Uiso   1.00
H744   H     0.27486   0.04278   0.46257   0.00000  Uiso   1.00
C745   C     0.22549   0.05037   0.40297   0.00000  Uiso   1.00
H746   H     0.22961   0.01977   0.38740   0.00000  Uiso   1.00
H747   H     0.25181   0.07366   0.38807   0.00000  Uiso   1.00
H748   H     0.18602   0.05913   0.39342   0.00000  Uiso   1.00
N749   N     0.09562   0.28417   0.54675   0.00000  Uiso   1.00
H750   H     0.05848   0.29055   0.53742   0.00000  Uiso   1.00
C751   C     0.10784   0.28296   0.59703   0.00000  Uiso   1.00
H752   H     0.10372   0.31356   0.61260   0.00000  Uiso   1.00
H753   H     0.14731   0.27420   0.60658   0.00000  Uiso   1.00
H754   H     0.08151   0.25967   0.61192   0.00000  Uiso   1.00
N755   N     0.24575   0.29736   0.46130   0.00000  Uiso   1.00
H756   H     0.23612   0.27512   0.43610   0.00000  Uiso   1.00
C757   C     0.28672   0.28796   0.49634   0.00000  Uiso   1.00
H758   H     0.28273   0.25492   0.50624   0.00000  Uiso   1.00
H759   H     0.28768   0.30729   0.52825   0.00000  Uiso   1.00
H760   H     0.32306   0.29451   0.48160   0.00000  Uiso   1.00
N761   N     0.08759   0.03597   0.53870   0.00000  Uiso   1.00
H762   H     0.09723   0.05815   0.56397   0.00000  Uiso   1.00
C763   C     0.04670   0.04550   0.50363   0.00000  Uiso   1.00
H764   H     0.05084   0.07853   0.49375   0.00000  Uiso   1.00
H765   H     0.01032   0.03904   0.51833   0.00000  Uiso   1.00
H766   H     0.04569   0.02616   0.47173   0.00000  Uiso   1.00
N767   N     0.09332   0.11564   0.37245   0.00000  Uiso   1.00
H768   H     0.09996   0.10375   0.40527   0.00000  Uiso   1.00
C769   C     0.04041   0.12062   0.35676   0.00000  Uiso   1.00
H770   H     0.01959   0.12516   0.38730   0.00000  Uiso   1.00
H771   H     0.02340   0.09215   0.33843   0.00000  Uiso   1.00
H772   H     0.03579   0.14748   0.66646   0.00000  Uiso   1.00
N773   N     0.24002   0.21769   0.62755   0.00000  Uiso   1.00
H774   H     0.23338   0.22958   0.59473   0.00000  Uiso   1.00
C775   C     0.29292   0.21270   0.64324   0.00000  Uiso   1.00
H776   H     0.31375   0.20818   0.61270   0.00000  Uiso   1.00
H777   H     0.29754   0.18584   0.33353   0.00000  Uiso   1.00
H778   H     0.30993   0.24117   0.66158   0.00000  Uiso   1.00
F779   F     0.09838   0.11696   0.61096   0.00000  Uiso   1.00
F780   F     0.23496   0.21637   0.38904   0.00000  Uiso   1.00
C781   C     0.49881   0.08748   0.49987   0.00000  Uiso   1.00
C782   C     0.50120   0.24585   0.50013   0.00000  Uiso   1.00
C783   C     0.40177   0.16749   0.48852   0.00000  Uiso   1.00
C784   C     0.59823   0.16585   0.51148   0.00000  Uiso   1.00
C785   C     0.34795   0.17365   0.48333   0.00000  Uiso   1.00
C786   C     0.65205   0.15969   0.51668   0.00000  Uiso   1.00
C787   C     0.53553   0.02438   0.47691   0.00000  Uiso   1.00
C788   C     0.46448   0.30896   0.52309   0.00000  Uiso   1.00
C789   C     0.53771   0.31493   0.47872   0.00000  Uiso   1.00
C790   C     0.46231   0.01840   0.52128   0.00000  Uiso   1.00
C791   C     0.50123   0.29052   0.50053   0.00000  Uiso   1.00
C792   C     0.49878   0.04281   0.49947   0.00000  Uiso   1.00
C793   C     0.46426   0.14245   0.35387   0.00000  Uiso   1.00
C794   C     0.53574   0.19088   0.64613   0.00000  Uiso   1.00
C795   C     0.46520   0.14242   0.63795   0.00000  Uiso   1.00
C796   C     0.53480   0.19092   0.36205   0.00000  Uiso   1.00
Cu797  Cu    0.50000   0.16667   0.54689   0.00000  Uiso   1.00
Cu798  Cu    0.50000   0.16666   0.45311   0.00000  Uiso   1.00
N799   N     0.50001   0.16668   0.61736   0.00000  Uiso   1.00
N800   N     0.49999   0.16666   0.38264   0.00000  Uiso   1.00
O801   O     0.50000   0.10655   0.53958   0.00000  Uiso   1.00
O802   O     0.50000   0.22678   0.46042   0.00000  Uiso   1.00
O803   O     0.50000   0.10654   0.46039   0.00000  Uiso   1.00
O804   O     0.50000   0.22679   0.53961   0.00000  Uiso   1.00
O805   O     0.42495   0.16667   0.53046   0.00000  Uiso   1.00
O806   O     0.57505   0.16666   0.46954   0.00000  Uiso   1.00
O807   O     0.42494   0.16666   0.45127   0.00000  Uiso   1.00
O808   O     0.57506   0.16667   0.54873   0.00000  Uiso   1.00
N809   N     0.66040   0.19555   0.44326   0.00000  Uiso   1.00
H810   H     0.64348   0.17661   0.41651   0.00000  Uiso   1.00
C811   C     0.35667   0.23120   0.42770   0.00000  Uiso   1.00
H812   H     0.38082   0.22190   0.40112   0.00000  Uiso   1.00
H813   H     0.38098   0.24671   0.45745   0.00000  Uiso   1.00
H814   H     0.66393   0.25366   0.41142   0.00000  Uiso   1.00
N815   N     0.33960   0.13779   0.55675   0.00000  Uiso   1.00
H816   H     0.35654   0.15674   0.58348   0.00000  Uiso   1.00
C817   C     0.64332   0.10216   0.57234   0.00000  Uiso   1.00
H818   H     0.61921   0.11148   0.59893   0.00000  Uiso   1.00
H819   H     0.33606   0.07969   0.58860   0.00000  Uiso   1.00
H820   H     0.61898   0.08665   0.54261   0.00000  Uiso   1.00
N821   N     0.57105   0.04917   0.45325   0.00000  Uiso   1.00
H822   H     0.60819   0.04278   0.46257   0.00000  Uiso   1.00
C823   C     0.55882   0.05037   0.40297   0.00000  Uiso   1.00
H824   H     0.56294   0.01977   0.38740   0.00000  Uiso   1.00
H825   H     0.58515   0.07366   0.38807   0.00000  Uiso   1.00
H826   H     0.51935   0.05913   0.39342   0.00000  Uiso   1.00
N827   N     0.42895   0.28417   0.54675   0.00000  Uiso   1.00
H828   H     0.39181   0.29055   0.53742   0.00000  Uiso   1.00
C829   C     0.44117   0.28296   0.59703   0.00000  Uiso   1.00
H830   H     0.43706   0.31356   0.61260   0.00000  Uiso   1.00
H831   H     0.48064   0.27420   0.60658   0.00000  Uiso   1.00
H832   H     0.41484   0.25967   0.61192   0.00000  Uiso   1.00
N833   N     0.57908   0.29736   0.46130   0.00000  Uiso   1.00
H834   H     0.56945   0.27512   0.43610   0.00000  Uiso   1.00
C835   C     0.62006   0.28796   0.49634   0.00000  Uiso   1.00
H836   H     0.61606   0.25492   0.50624   0.00000  Uiso   1.00
H837   H     0.62102   0.30729   0.52825   0.00000  Uiso   1.00
H838   H     0.65639   0.29451   0.48160   0.00000  Uiso   1.00
N839   N     0.42093   0.03597   0.53870   0.00000  Uiso   1.00
H840   H     0.43057   0.05815   0.56397   0.00000  Uiso   1.00
C841   C     0.38003   0.04550   0.50363   0.00000  Uiso   1.00
H842   H     0.38418   0.07853   0.49375   0.00000  Uiso   1.00
H843   H     0.34366   0.03904   0.51833   0.00000  Uiso   1.00
H844   H     0.37902   0.02616   0.47173   0.00000  Uiso   1.00
N845   N     0.42665   0.11564   0.37245   0.00000  Uiso   1.00
H846   H     0.43329   0.10375   0.40527   0.00000  Uiso   1.00
C847   C     0.37375   0.12062   0.35676   0.00000  Uiso   1.00
H848   H     0.35292   0.12516   0.38730   0.00000  Uiso   1.00
H849   H     0.35673   0.09215   0.33843   0.00000  Uiso   1.00
H850   H     0.36913   0.14748   0.66646   0.00000  Uiso   1.00
N851   N     0.57335   0.21769   0.62755   0.00000  Uiso   1.00
H852   H     0.56671   0.22958   0.59473   0.00000  Uiso   1.00
C853   C     0.62625   0.21270   0.64324   0.00000  Uiso   1.00
H854   H     0.64708   0.20818   0.61270   0.00000  Uiso   1.00
H855   H     0.63087   0.18584   0.33353   0.00000  Uiso   1.00
H856   H     0.64327   0.24117   0.66158   0.00000  Uiso   1.00
F857   F     0.43172   0.11696   0.61096   0.00000  Uiso   1.00
F858   F     0.56829   0.21637   0.38904   0.00000  Uiso   1.00
C859   C     0.83214   0.08748   0.49987   0.00000  Uiso   1.00
C860   C     0.83454   0.24585   0.50013   0.00000  Uiso   1.00
C861   C     0.73510   0.16749   0.48852   0.00000  Uiso   1.00
C862   C     0.93156   0.16585   0.51148   0.00000  Uiso   1.00
C863   C     0.68128   0.17365   0.48333   0.00000  Uiso   1.00
C864   C     0.98538   0.15969   0.51668   0.00000  Uiso   1.00
C865   C     0.86886   0.02438   0.47691   0.00000  Uiso   1.00
C866   C     0.79782   0.30896   0.52309   0.00000  Uiso   1.00
C867   C     0.87104   0.31493   0.47872   0.00000  Uiso   1.00
C868   C     0.79564   0.01840   0.52128   0.00000  Uiso   1.00
C869   C     0.83456   0.29052   0.50053   0.00000  Uiso   1.00
C870   C     0.83212   0.04281   0.49947   0.00000  Uiso   1.00
C871   C     0.79760   0.14245   0.35387   0.00000  Uiso   1.00
C872   C     0.86907   0.19088   0.64613   0.00000  Uiso   1.00
C873   C     0.79854   0.14242   0.63795   0.00000  Uiso   1.00
C874   C     0.86813   0.19092   0.36205   0.00000  Uiso   1.00
Cu875  Cu    0.83333   0.16667   0.54689   0.00000  Uiso   1.00
Cu876  Cu    0.83333   0.16666   0.45311   0.00000  Uiso   1.00
N877   N     0.83335   0.16668   0.61736   0.00000  Uiso   1.00
N878   N     0.83332   0.16666   0.38264   0.00000  Uiso   1.00
O879   O     0.83333   0.10655   0.53958   0.00000  Uiso   1.00
O880   O     0.83334   0.22678   0.46042   0.00000  Uiso   1.00
O881   O     0.83333   0.10654   0.46039   0.00000  Uiso   1.00
O882   O     0.83334   0.22679   0.53961   0.00000  Uiso   1.00
O883   O     0.75828   0.16667   0.53046   0.00000  Uiso   1.00
O884   O     0.90839   0.16666   0.46954   0.00000  Uiso   1.00
O885   O     0.75828   0.16666   0.45127   0.00000  Uiso   1.00
O886   O     0.90839   0.16667   0.54873   0.00000  Uiso   1.00
N887   N     0.99374   0.19555   0.44326   0.00000  Uiso   1.00
H888   H     0.97682   0.17661   0.41651   0.00000  Uiso   1.00
C889   C     0.69001   0.23120   0.42770   0.00000  Uiso   1.00
H890   H     0.71415   0.22190   0.40112   0.00000  Uiso   1.00
H891   H     0.71431   0.24671   0.45745   0.00000  Uiso   1.00
H892   H     0.99726   0.25366   0.41142   0.00000  Uiso   1.00
N893   N     0.67293   0.13779   0.55675   0.00000  Uiso   1.00
H894   H     0.68987   0.15674   0.58348   0.00000  Uiso   1.00
C895   C     0.97665   0.10216   0.57234   0.00000  Uiso   1.00
H896   H     0.95254   0.11148   0.59893   0.00000  Uiso   1.00
H897   H     0.66939   0.07969   0.58860   0.00000  Uiso   1.00
H898   H     0.95231   0.08665   0.54261   0.00000  Uiso   1.00
N899   N     0.90438   0.04917   0.45325   0.00000  Uiso   1.00
H900   H     0.94153   0.04278   0.46257   0.00000  Uiso   1.00
C901   C     0.89216   0.05037   0.40297   0.00000  Uiso   1.00
H902   H     0.89627   0.01977   0.38740   0.00000  Uiso   1.00
H903   H     0.91848   0.07366   0.38807   0.00000  Uiso   1.00
H904   H     0.85269   0.05913   0.39342   0.00000  Uiso   1.00
N905   N     0.76229   0.28417   0.54675   0.00000  Uiso   1.00
H906   H     0.72515   0.29055   0.53742   0.00000  Uiso   1.00
C907   C     0.77450   0.28296   0.59703   0.00000  Uiso   1.00
H908   H     0.77039   0.31356   0.61260   0.00000  Uiso   1.00
H909   H     0.81397   0.27420   0.60658   0.00000  Uiso   1.00
H910   H     0.74818   0.25967   0.61192   0.00000  Uiso   1.00
N911   N     0.91242   0.29736   0.46130   0.00000  Uiso   1.00
H912   H     0.90279   0.27512   0.43610   0.00000  Uiso   1.00
C913   C     0.95339   0.28796   0.49634   0.00000  Uiso   1.00
H914   H     0.94940   0.25492   0.50624   0.00000  Uiso   1.00
H915   H     0.95435   0.30729   0.52825   0.00000  Uiso   1.00
H916   H     0.98973   0.29451   0.48160   0.00000  Uiso   1.00
N917   N     0.75426   0.03597   0.53870   0.00000  Uiso   1.00
H918   H     0.76390   0.05815   0.56397   0.00000  Uiso   1.00
C919   C     0.71337   0.04550   0.50363   0.00000  Uiso   1.00
H920   H     0.71751   0.07853   0.49375   0.00000  Uiso   1.00
H921   H     0.67699   0.03904   0.51833   0.00000  Uiso   1.00
H922   H     0.71236   0.02616   0.47173   0.00000  Uiso   1.00
N923   N     0.75998   0.11564   0.37245   0.00000  Uiso   1.00
H924   H     0.76662   0.10375   0.40527   0.00000  Uiso   1.00
C925   C     0.70708   0.12062   0.35676   0.00000  Uiso   1.00
H926   H     0.68625   0.12516   0.38730   0.00000  Uiso   1.00
H927   H     0.69007   0.09215   0.33843   0.00000  Uiso   1.00
H928   H     0.70246   0.14748   0.66646   0.00000  Uiso   1.00
N929   N     0.90669   0.21769   0.62755   0.00000  Uiso   1.00
H930   H     0.90005   0.22958   0.59473   0.00000  Uiso   1.00
C931   C     0.95959   0.21270   0.64324   0.00000  Uiso   1.00
H932   H     0.98042   0.20818   0.61270   0.00000  Uiso   1.00
H933   H     0.96421   0.18584   0.33353   0.00000  Uiso   1.00
H934   H     0.97660   0.24117   0.66158   0.00000  Uiso   1.00
F935   F     0.76505   0.11696   0.61096   0.00000  Uiso   1.00
F936   F     0.90162   0.21637   0.38904   0.00000  Uiso   1.00
C937   C     0.16547   0.42081   0.49987   0.00000  Uiso   1.00
C938   C     0.16787   0.57919   0.50013   0.00000  Uiso   1.00
C939   C     0.06844   0.50082   0.48852   0.00000  Uiso   1.00
C940   C     0.26490   0.49918   0.51148   0.00000  Uiso   1.00
C941   C     0.01462   0.50698   0.48333   0.00000  Uiso   1.00
C942   C     0.31872   0.49303   0.51668   0.00000  Uiso   1.00
C943   C     0.20219   0.35771   0.47691   0.00000  Uiso   1.00
C944   C     0.13115   0.64229   0.52309   0.00000  Uiso   1.00
C945   C     0.20437   0.64827   0.47872   0.00000  Uiso   1.00
C946   C     0.12897   0.35173   0.52128   0.00000  Uiso   1.00
C947   C     0.16790   0.62386   0.50053   0.00000  Uiso   1.00
C948   C     0.16545   0.37614   0.49947   0.00000  Uiso   1.00
C949   C     0.13093   0.47579   0.35387   0.00000  Uiso   1.00
C950   C     0.20240   0.52421   0.64613   0.00000  Uiso   1.00
C951   C     0.13187   0.47575   0.63795   0.00000  Uiso   1.00
C952   C     0.20146   0.52425   0.36205   0.00000  Uiso   1.00
Cu953  Cu    0.16667   0.50001   0.54689   0.00000  Uiso   1.00
Cu954  Cu    0.16667   0.49999   0.45311   0.00000  Uiso   1.00
N955   N     0.16668   0.50001   0.61736   0.00000  Uiso   1.00
N956   N     0.16665   0.49999   0.38264   0.00000  Uiso   1.00
O957   O     0.16666   0.43989   0.53958   0.00000  Uiso   1.00
O958   O     0.16667   0.56011   0.46042   0.00000  Uiso   1.00
O959   O     0.16666   0.43988   0.46039   0.00000  Uiso   1.00
O960   O     0.16667   0.56012   0.53961   0.00000  Uiso   1.00
O961   O     0.09161   0.50000   0.53046   0.00000  Uiso   1.00
O962   O     0.24172   0.50000   0.46954   0.00000  Uiso   1.00
O963   O     0.09161   0.49999   0.45127   0.00000  Uiso   1.00
O964   O     0.24172   0.50001   0.54873   0.00000  Uiso   1.00
N965   N     0.32707   0.52889   0.44326   0.00000  Uiso   1.00
H966   H     0.31015   0.50995   0.41651   0.00000  Uiso   1.00
C967   C     0.02334   0.56454   0.42770   0.00000  Uiso   1.00
H968   H     0.04748   0.55523   0.40112   0.00000  Uiso   1.00
H969   H     0.04764   0.58005   0.45745   0.00000  Uiso   1.00
H970   H     0.33060   0.58700   0.41142   0.00000  Uiso   1.00
N971   N     0.00626   0.47113   0.55675   0.00000  Uiso   1.00
H972   H     0.02321   0.49007   0.58348   0.00000  Uiso   1.00
C973   C     0.30998   0.43549   0.57234   0.00000  Uiso   1.00
H974   H     0.28587   0.44482   0.59893   0.00000  Uiso   1.00
H975   H     0.00272   0.41302   0.58860   0.00000  Uiso   1.00
H976   H     0.28564   0.41999   0.54261   0.00000  Uiso   1.00
N977   N     0.23772   0.38250   0.45325   0.00000  Uiso   1.00
H978   H     0.27486   0.37612   0.46257   0.00000  Uiso   1.00
C979   C     0.22549   0.38370   0.40297   0.00000  Uiso   1.00
H980   H     0.22961   0.35310   0.38740   0.00000  Uiso   1.00
H981   H     0.25181   0.40699   0.38807   0.00000  Uiso   1.00
H982   H     0.18602   0.39246   0.39342   0.00000  Uiso   1.00
N983   N     0.09562   0.61750   0.54675   0.00000  Uiso   1.00
H984   H     0.05848   0.62389   0.53742   0.00000  Uiso   1.00
C985   C     0.10784   0.61630   0.59703   0.00000  Uiso   1.00
H986   H     0.10372   0.64689   0.61260   0.00000  Uiso   1.00
H987   H     0.14731   0.60754   0.60658   0.00000  Uiso   1.00
H988   H     0.08151   0.59301   0.61192   0.00000  Uiso   1.00
N989   N     0.24575   0.63070   0.46130   0.00000  Uiso   1.00
H990   H     0.23612   0.60845   0.43610   0.00000  Uiso   1.00
C991   C     0.28672   0.62129   0.49634   0.00000  Uiso   1.00
H992   H     0.28273   0.58825   0.50624   0.00000  Uiso   1.00
H993   H     0.28768   0.64062   0.52825   0.00000  Uiso   1.00
H994   H     0.32306   0.62784   0.48160   0.00000  Uiso   1.00
N995   N     0.08759   0.36930   0.53870   0.00000  Uiso   1.00
H996   H     0.09723   0.39148   0.56397   0.00000  Uiso   1.00
C997   C     0.04670   0.37883   0.50363   0.00000  Uiso   1.00
H998   H     0.05084   0.41186   0.49375   0.00000  Uiso   1.00
H999   H     0.01032   0.37238   0.51833   0.00000  Uiso   1.00
H1000  H     0.04569   0.35950   0.47173   0.00000  Uiso   1.00
N1001  N     0.09332   0.44898   0.37245   0.00000  Uiso   1.00
H1002  H     0.09996   0.43708   0.40527   0.00000  Uiso   1.00
C1003  C     0.04041   0.45396   0.35676   0.00000  Uiso   1.00
H1004  H     0.01959   0.45850   0.38730   0.00000  Uiso   1.00
H1005  H     0.02340   0.42549   0.33843   0.00000  Uiso   1.00
H1006  H     0.03579   0.48082   0.66646   0.00000  Uiso   1.00
N1007  N     0.24002   0.55102   0.62755   0.00000  Uiso   1.00
H1008  H     0.23338   0.56291   0.59473   0.00000  Uiso   1.00
C1009  C     0.29292   0.54604   0.64324   0.00000  Uiso   1.00
H1010  H     0.31375   0.54151   0.61270   0.00000  Uiso   1.00
H1011  H     0.29754   0.51917   0.33353   0.00000  Uiso   1.00
H1012  H     0.30993   0.57450   0.66158   0.00000  Uiso   1.00
F1013  F     0.09838   0.45030   0.61096   0.00000  Uiso   1.00
F1014  F     0.23496   0.54970   0.38904   0.00000  Uiso   1.00
C1015  C     0.49881   0.42081   0.49987   0.00000  Uiso   1.00
C1016  C     0.50120   0.57919   0.50013   0.00000  Uiso   1.00
C1017  C     0.40177   0.50082   0.48852   0.00000  Uiso   1.00
C1018  C     0.59823   0.49918   0.51148   0.00000  Uiso   1.00
C1019  C     0.34795   0.50698   0.48333   0.00000  Uiso   1.00
C1020  C     0.65205   0.49303   0.51668   0.00000  Uiso   1.00
C1021  C     0.53553   0.35771   0.47691   0.00000  Uiso   1.00
C1022  C     0.46448   0.64229   0.52309   0.00000  Uiso   1.00
C1023  C     0.53771   0.64827   0.47872   0.00000  Uiso   1.00
C1024  C     0.46231   0.35173   0.52128   0.00000  Uiso   1.00
C1025  C     0.50123   0.62386   0.50053   0.00000  Uiso   1.00
C1026  C     0.49878   0.37614   0.49947   0.00000  Uiso   1.00
C1027  C     0.46426   0.47579   0.35387   0.00000  Uiso   1.00
C1028  C     0.53574   0.52421   0.64613   0.00000  Uiso   1.00
C1029  C     0.46520   0.47575   0.63795   0.00000  Uiso   1.00
C1030  C     0.53480   0.52425   0.36205   0.00000  Uiso   1.00
Cu1031 Cu    0.50000   0.50001   0.54689   0.00000  Uiso   1.00
Cu1032 Cu    0.50000   0.49999   0.45311   0.00000  Uiso   1.00
N1033  N     0.50001   0.50001   0.61736   0.00000  Uiso   1.00
N1034  N     0.49999   0.49999   0.38264   0.00000  Uiso   1.00
O1035  O     0.50000   0.43989   0.53958   0.00000  Uiso   1.00
O1036  O     0.50000   0.56011   0.46042   0.00000  Uiso   1.00
O1037  O     0.50000   0.43988   0.46039   0.00000  Uiso   1.00
O1038  O     0.50000   0.56012   0.53961   0.00000  Uiso   1.00
O1039  O     0.42495   0.50000   0.53046   0.00000  Uiso   1.00
O1040  O     0.57505   0.50000   0.46954   0.00000  Uiso   1.00
O1041  O     0.42494   0.49999   0.45127   0.00000  Uiso   1.00
O1042  O     0.57506   0.50001   0.54873   0.00000  Uiso   1.00
N1043  N     0.66040   0.52889   0.44326   0.00000  Uiso   1.00
H1044  H     0.64348   0.50995   0.41651   0.00000  Uiso   1.00
C1045  C     0.35667   0.56454   0.42770   0.00000  Uiso   1.00
H1046  H     0.38082   0.55523   0.40112   0.00000  Uiso   1.00
H1047  H     0.38098   0.58005   0.45745   0.00000  Uiso   1.00
H1048  H     0.66393   0.58700   0.41142   0.00000  Uiso   1.00
N1049  N     0.33960   0.47113   0.55675   0.00000  Uiso   1.00
H1050  H     0.35654   0.49007   0.58348   0.00000  Uiso   1.00
C1051  C     0.64332   0.43549   0.57234   0.00000  Uiso   1.00
H1052  H     0.61921   0.44482   0.59893   0.00000  Uiso   1.00
H1053  H     0.33606   0.41302   0.58860   0.00000  Uiso   1.00
H1054  H     0.61898   0.41999   0.54261   0.00000  Uiso   1.00
N1055  N     0.57105   0.38250   0.45325   0.00000  Uiso   1.00
H1056  H     0.60819   0.37612   0.46257   0.00000  Uiso   1.00
C1057  C     0.55882   0.38370   0.40297   0.00000  Uiso   1.00
H1058  H     0.56294   0.35310   0.38740   0.00000  Uiso   1.00
H1059  H     0.58515   0.40699   0.38807   0.00000  Uiso   1.00
H1060  H     0.51935   0.39246   0.39342   0.00000  Uiso   1.00
N1061  N     0.42895   0.61750   0.54675   0.00000  Uiso   1.00
H1062  H     0.39181   0.62389   0.53742   0.00000  Uiso   1.00
C1063  C     0.44117   0.61630   0.59703   0.00000  Uiso   1.00
H1064  H     0.43706   0.64689   0.61260   0.00000  Uiso   1.00
H1065  H     0.48064   0.60754   0.60658   0.00000  Uiso   1.00
H1066  H     0.41484   0.59301   0.61192   0.00000  Uiso   1.00
N1067  N     0.57908   0.63070   0.46130   0.00000  Uiso   1.00
H1068  H     0.56945   0.60845   0.43610   0.00000  Uiso   1.00
C1069  C     0.62006   0.62129   0.49634   0.00000  Uiso   1.00
H1070  H     0.61606   0.58825   0.50624   0.00000  Uiso   1.00
H1071  H     0.62102   0.64062   0.52825   0.00000  Uiso   1.00
H1072  H     0.65639   0.62784   0.48160   0.00000  Uiso   1.00
N1073  N     0.42093   0.36930   0.53870   0.00000  Uiso   1.00
H1074  H     0.43057   0.39148   0.56397   0.00000  Uiso   1.00
C1075  C     0.38003   0.37883   0.50363   0.00000  Uiso   1.00
H1076  H     0.38418   0.41186   0.49375   0.00000  Uiso   1.00
H1077  H     0.34366   0.37238   0.51833   0.00000  Uiso   1.00
H1078  H     0.37902   0.35950   0.47173   0.00000  Uiso   1.00
N1079  N     0.42665   0.44898   0.37245   0.00000  Uiso   1.00
H1080  H     0.43329   0.43708   0.40527   0.00000  Uiso   1.00
C1081  C     0.37375   0.45396   0.35676   0.00000  Uiso   1.00
H1082  H     0.35292   0.45850   0.38730   0.00000  Uiso   1.00
H1083  H     0.35673   0.42549   0.33843   0.00000  Uiso   1.00
H1084  H     0.36913   0.48082   0.66646   0.00000  Uiso   1.00
N1085  N     0.57335   0.55102   0.62755   0.00000  Uiso   1.00
H1086  H     0.56671   0.56291   0.59473   0.00000  Uiso   1.00
C1087  C     0.62625   0.54604   0.64324   0.00000  Uiso   1.00
H1088  H     0.64708   0.54151   0.61270   0.00000  Uiso   1.00
H1089  H     0.63087   0.51917   0.33353   0.00000  Uiso   1.00
H1090  H     0.64327   0.57450   0.66158   0.00000  Uiso   1.00
F1091  F     0.43172   0.45030   0.61096   0.00000  Uiso   1.00
F1092  F     0.56829   0.54970   0.38904   0.00000  Uiso   1.00
C1093  C     0.83214   0.42081   0.49987   0.00000  Uiso   1.00
C1094  C     0.83454   0.57919   0.50013   0.00000  Uiso   1.00
C1095  C     0.73510   0.50082   0.48852   0.00000  Uiso   1.00
C1096  C     0.93156   0.49918   0.51148   0.00000  Uiso   1.00
C1097  C     0.68128   0.50698   0.48333   0.00000  Uiso   1.00
C1098  C     0.98538   0.49303   0.51668   0.00000  Uiso   1.00
C1099  C     0.86886   0.35771   0.47691   0.00000  Uiso   1.00
C1100  C     0.79782   0.64229   0.52309   0.00000  Uiso   1.00
C1101  C     0.87104   0.64827   0.47872   0.00000  Uiso   1.00
C1102  C     0.79564   0.35173   0.52128   0.00000  Uiso   1.00
C1103  C     0.83456   0.62386   0.50053   0.00000  Uiso   1.00
C1104  C     0.83212   0.37614   0.49947   0.00000  Uiso   1.00
C1105  C     0.79760   0.47579   0.35387   0.00000  Uiso   1.00
C1106  C     0.86907   0.52421   0.64613   0.00000  Uiso   1.00
C1107  C     0.79854   0.47575   0.63795   0.00000  Uiso   1.00
C1108  C     0.86813   0.52425   0.36205   0.00000  Uiso   1.00
Cu1109 Cu    0.83333   0.50001   0.54689   0.00000  Uiso   1.00
Cu1110 Cu    0.83333   0.49999   0.45311   0.00000  Uiso   1.00
N1111  N     0.83335   0.50001   0.61736   0.00000  Uiso   1.00
N1112  N     0.83332   0.49999   0.38264   0.00000  Uiso   1.00
O1113  O     0.83333   0.43989   0.53958   0.00000  Uiso   1.00
O1114  O     0.83334   0.56011   0.46042   0.00000  Uiso   1.00
O1115  O     0.83333   0.43988   0.46039   0.00000  Uiso   1.00
O1116  O     0.83334   0.56012   0.53961   0.00000  Uiso   1.00
O1117  O     0.75828   0.50000   0.53046   0.00000  Uiso   1.00
O1118  O     0.90839   0.50000   0.46954   0.00000  Uiso   1.00
O1119  O     0.75828   0.49999   0.45127   0.00000  Uiso   1.00
O1120  O     0.90839   0.50001   0.54873   0.00000  Uiso   1.00
N1121  N     0.99374   0.52889   0.44326   0.00000  Uiso   1.00
H1122  H     0.97682   0.50995   0.41651   0.00000  Uiso   1.00
C1123  C     0.69001   0.56454   0.42770   0.00000  Uiso   1.00
H1124  H     0.71415   0.55523   0.40112   0.00000  Uiso   1.00
H1125  H     0.71431   0.58005   0.45745   0.00000  Uiso   1.00
H1126  H     0.99726   0.58700   0.41142   0.00000  Uiso   1.00
N1127  N     0.67293   0.47113   0.55675   0.00000  Uiso   1.00
H1128  H     0.68987   0.49007   0.58348   0.00000  Uiso   1.00
C1129  C     0.97665   0.43549   0.57234   0.00000  Uiso   1.00
H1130  H     0.95254   0.44482   0.59893   0.00000  Uiso   1.00
H1131  H     0.66939   0.41302   0.58860   0.00000  Uiso   1.00
H1132  H     0.95231   0.41999   0.54261   0.00000  Uiso   1.00
N1133  N     0.90438   0.38250   0.45325   0.00000  Uiso   1.00
H1134  H     0.94153   0.37612   0.46257   0.00000  Uiso   1.00
C1135  C     0.89216   0.38370   0.40297   0.00000  Uiso   1.00
H1136  H     0.89627   0.35310   0.38740   0.00000  Uiso   1.00
H1137  H     0.91848   0.40699   0.38807   0.00000  Uiso   1.00
H1138  H     0.85269   0.39246   0.39342   0.00000  Uiso   1.00
N1139  N     0.76229   0.61750   0.54675   0.00000  Uiso   1.00
H1140  H     0.72515   0.62389   0.53742   0.00000  Uiso   1.00
C1141  C     0.77450   0.61630   0.59703   0.00000  Uiso   1.00
H1142  H     0.77039   0.64689   0.61260   0.00000  Uiso   1.00
H1143  H     0.81397   0.60754   0.60658   0.00000  Uiso   1.00
H1144  H     0.74818   0.59301   0.61192   0.00000  Uiso   1.00
N1145  N     0.91242   0.63070   0.46130   0.00000  Uiso   1.00
H1146  H     0.90279   0.60845   0.43610   0.00000  Uiso   1.00
C1147  C     0.95339   0.62129   0.49634   0.00000  Uiso   1.00
H1148  H     0.94940   0.58825   0.50624   0.00000  Uiso   1.00
H1149  H     0.95435   0.64062   0.52825   0.00000  Uiso   1.00
H1150  H     0.98973   0.62784   0.48160   0.00000  Uiso   1.00
N1151  N     0.75426   0.36930   0.53870   0.00000  Uiso   1.00
H1152  H     0.76390   0.39148   0.56397   0.00000  Uiso   1.00
C1153  C     0.71337   0.37883   0.50363   0.00000  Uiso   1.00
H1154  H     0.71751   0.41186   0.49375   0.00000  Uiso   1.00
H1155  H     0.67699   0.37238   0.51833   0.00000  Uiso   1.00
H1156  H     0.71236   0.35950   0.47173   0.00000  Uiso   1.00
N1157  N     0.75998   0.44898   0.37245   0.00000  Uiso   1.00
H1158  H     0.76662   0.43708   0.40527   0.00000  Uiso   1.00
C1159  C     0.70708   0.45396   0.35676   0.00000  Uiso   1.00
H1160  H     0.68625   0.45850   0.38730   0.00000  Uiso   1.00
H1161  H     0.69007   0.42549   0.33843   0.00000  Uiso   1.00
H1162  H     0.70246   0.48082   0.66646   0.00000  Uiso   1.00
N1163  N     0.90669   0.55102   0.62755   0.00000  Uiso   1.00
H1164  H     0.90005   0.56291   0.59473   0.00000  Uiso   1.00
C1165  C     0.95959   0.54604   0.64324   0.00000  Uiso   1.00
H1166  H     0.98042   0.54151   0.61270   0.00000  Uiso   1.00
H1167  H     0.96421   0.51917   0.33353   0.00000  Uiso   1.00
H1168  H     0.97660   0.57450   0.66158   0.00000  Uiso   1.00
F1169  F     0.76505   0.45030   0.61096   0.00000  Uiso   1.00
F1170  F     0.90162   0.54970   0.38904   0.00000  Uiso   1.00
C1171  C     0.16547   0.75415   0.49987   0.00000  Uiso   1.00
C1172  C     0.16787   0.91252   0.50013   0.00000  Uiso   1.00
C1173  C     0.06844   0.83416   0.48852   0.00000  Uiso   1.00
C1174  C     0.26490   0.83251   0.51148   0.00000  Uiso   1.00
C1175  C     0.01462   0.84031   0.48333   0.00000  Uiso   1.00
C1176  C     0.31872   0.82636   0.51668   0.00000  Uiso   1.00
C1177  C     0.20219   0.69105   0.47691   0.00000  Uiso   1.00
C1178  C     0.13115   0.97562   0.52309   0.00000  Uiso   1.00
C1179  C     0.20437   0.98160   0.47872   0.00000  Uiso   1.00
C1180  C     0.12897   0.68507   0.52128   0.00000  Uiso   1.00
C1181  C     0.16790   0.95719   0.50053   0.00000  Uiso   1.00
C1182  C     0.16545   0.70948   0.49947   0.00000  Uiso   1.00
C1183  C     0.13093   0.80912   0.35387   0.00000  Uiso   1.00
C1184  C     0.20240   0.85755   0.64613   0.00000  Uiso   1.00
C1185  C     0.13187   0.80908   0.63795   0.00000  Uiso   1.00
C1186  C     0.20146   0.85758   0.36205   0.00000  Uiso   1.00
Cu1187 Cu    0.16667   0.83334   0.54689   0.00000  Uiso   1.00
Cu1188 Cu    0.16667   0.83333   0.45311   0.00000  Uiso   1.00
N1189  N     0.16668   0.83334   0.61736   0.00000  Uiso   1.00
N1190  N     0.16665   0.83332   0.38264   0.00000  Uiso   1.00
O1191  O     0.16666   0.77322   0.53958   0.00000  Uiso   1.00
O1192  O     0.16667   0.89345   0.46042   0.00000  Uiso   1.00
O1193  O     0.16666   0.77321   0.46039   0.00000  Uiso   1.00
O1194  O     0.16667   0.89346   0.53961   0.00000  Uiso   1.00
O1195  O     0.09161   0.83334   0.53046   0.00000  Uiso   1.00
O1196  O     0.24172   0.83333   0.46954   0.00000  Uiso   1.00
O1197  O     0.09161   0.83333   0.45127   0.00000  Uiso   1.00
O1198  O     0.24172   0.83334   0.54873   0.00000  Uiso   1.00
N1199  N     0.32707   0.86222   0.44326   0.00000  Uiso   1.00
H1200  H     0.31015   0.84328   0.41651   0.00000  Uiso   1.00
C1201  C     0.02334   0.89787   0.42770   0.00000  Uiso   1.00
H1202  H     0.04748   0.88857   0.40112   0.00000  Uiso   1.00
H1203  H     0.04764   0.91338   0.45745   0.00000  Uiso   1.00
H1204  H     0.33060   0.92033   0.41142   0.00000  Uiso   1.00
N1205  N     0.00626   0.80446   0.55675   0.00000  Uiso   1.00
H1206  H     0.02321   0.82340   0.58348   0.00000  Uiso   1.00
C1207  C     0.30998   0.76883   0.57234   0.00000  Uiso   1.00
H1208  H     0.28587   0.77815   0.59893   0.00000  Uiso   1.00
H1209  H     0.00272   0.74636   0.58860   0.00000  Uiso   1.00
H1210  H     0.28564   0.75332   0.54261   0.00000  Uiso   1.00
N1211  N     0.23772   0.71584   0.45325   0.00000  Uiso   1.00
H1212  H     0.27486   0.70945   0.46257   0.00000  Uiso   1.00
C1213  C     0.22549   0.71704   0.40297   0.00000  Uiso   1.00
H1214  H     0.22961   0.68644   0.38740   0.00000  Uiso   1.00
H1215  H     0.25181   0.74032   0.38807   0.00000  Uiso   1.00
H1216  H     0.18602   0.72579   0.39342   0.00000  Uiso   1.00
N1217  N     0.09562   0.95083   0.54675   0.00000  Uiso   1.00
H1218  H     0.05848   0.95722   0.53742   0.00000  Uiso   1.00
C1219  C     0.10784   0.94963   0.59703   0.00000  Uiso   1.00
H1220  H     0.10372   0.98023   0.61260   0.00000  Uiso   1.00
H1221  H     0.14731   0.94087   0.60658   0.00000  Uiso   1.00
H1222  H     0.08151   0.92634   0.61192   0.00000  Uiso   1.00
N1223  N     0.24575   0.96403   0.46130   0.00000  Uiso   1.00
H1224  H     0.23612   0.94179   0.43610   0.00000  Uiso   1.00
C1225  C     0.28672   0.95462   0.49634   0.00000  Uiso   1.00
H1226  H     0.28273   0.92158   0.50624   0.00000  Uiso   1.00
H1227  H     0.28768   0.97395   0.52825   0.00000  Uiso   1.00
H1228  H     0.32306   0.96118   0.48160   0.00000  Uiso   1.00
N1229  N     0.08759   0.70263   0.53870   0.00000  Uiso   1.00
H1230  H     0.09723   0.72482   0.56397   0.00000  Uiso   1.00
C1231  C     0.04670   0.71216   0.50363   0.00000  Uiso   1.00
H1232  H     0.05084   0.74520   0.49375   0.00000  Uiso   1.00
H1233  H     0.01032   0.70571   0.51833   0.00000  Uiso   1.00
H1234  H     0.04569   0.69283   0.47173   0.00000  Uiso   1.00
N1235  N     0.09332   0.78231   0.37245   0.00000  Uiso   1.00
H1236  H     0.09996   0.77042   0.40527   0.00000  Uiso   1.00
C1237  C     0.04041   0.78729   0.35676   0.00000  Uiso   1.00
H1238  H     0.01959   0.79183   0.38730   0.00000  Uiso   1.00
H1239  H     0.02340   0.75882   0.33843   0.00000  Uiso   1.00
H1240  H     0.03579   0.81415   0.66646   0.00000  Uiso   1.00
N1241  N     0.24002   0.88435   0.62755   0.00000  Uiso   1.00
H1242  H     0.23338   0.89625   0.59473   0.00000  Uiso   1.00
C1243  C     0.29292   0.87937   0.64324   0.00000  Uiso   1.00
H1244  H     0.31375   0.87484   0.61270   0.00000  Uiso   1.00
H1245  H     0.29754   0.85250   0.33353   0.00000  Uiso   1.00
H1246  H     0.30993   0.90784   0.66158   0.00000  Uiso   1.00
F1247  F     0.09838   0.78363   0.61096   0.00000  Uiso   1.00
F1248  F     0.23496   0.88303   0.38904   0.00000  Uiso   1.00
C1249  C     0.49881   0.75415   0.49987   0.00000  Uiso   1.00
C1250  C     0.50120   0.91252   0.50013   0.00000  Uiso   1.00
C1251  C     0.40177   0.83416   0.48852   0.00000  Uiso   1.00
C1252  C     0.59823   0.83251   0.51148   0.00000  Uiso   1.00
C1253  C     0.34795   0.84031   0.48333   0.00000  Uiso   1.00
C1254  C     0.65205   0.82636   0.51668   0.00000  Uiso   1.00
C1255  C     0.53553   0.69105   0.47691   0.00000  Uiso   1.00
C1256  C     0.46448   0.97562   0.52309   0.00000  Uiso   1.00
C1257  C     0.53771   0.98160   0.47872   0.00000  Uiso   1.00
C1258  C     0.46231   0.68507   0.52128   0.00000  Uiso   1.00
C1259  C     0.50123   0.95719   0.50053   0.00000  Uiso   1.00
C1260  C     0.49878   0.70948   0.49947   0.00000  Uiso   1.00
C1261  C     0.46426   0.80912   0.35387   0.00000  Uiso   1.00
C1262  C     0.53574   0.85755   0.64613   0.00000  Uiso   1.00
C1263  C     0.46520   0.80908   0.63795   0.00000  Uiso   1.00
C1264  C     0.53480   0.85758   0.36205   0.00000  Uiso   1.00
Cu1265 Cu    0.50000   0.83334   0.54689   0.00000  Uiso   1.00
Cu1266 Cu    0.50000   0.83333   0.45311   0.00000  Uiso   1.00
N1267  N     0.50001   0.83334   0.61736   0.00000  Uiso   1.00
N1268  N     0.49999   0.83332   0.38264   0.00000  Uiso   1.00
O1269  O     0.50000   0.77322   0.53958   0.00000  Uiso   1.00
O1270  O     0.50000   0.89345   0.46042   0.00000  Uiso   1.00
O1271  O     0.50000   0.77321   0.46039   0.00000  Uiso   1.00
O1272  O     0.50000   0.89346   0.53961   0.00000  Uiso   1.00
O1273  O     0.42495   0.83334   0.53046   0.00000  Uiso   1.00
O1274  O     0.57505   0.83333   0.46954   0.00000  Uiso   1.00
O1275  O     0.42494   0.83333   0.45127   0.00000  Uiso   1.00
O1276  O     0.57506   0.83334   0.54873   0.00000  Uiso   1.00
N1277  N     0.66040   0.86222   0.44326   0.00000  Uiso   1.00
H1278  H     0.64348   0.84328   0.41651   0.00000  Uiso   1.00
C1279  C     0.35667   0.89787   0.42770   0.00000  Uiso   1.00
H1280  H     0.38082   0.88857   0.40112   0.00000  Uiso   1.00
H1281  H     0.38098   0.91338   0.45745   0.00000  Uiso   1.00
H1282  H     0.66393   0.92033   0.41142   0.00000  Uiso   1.00
N1283  N     0.33960   0.80446   0.55675   0.00000  Uiso   1.00
H1284  H     0.35654   0.82340   0.58348   0.00000  Uiso   1.00
C1285  C     0.64332   0.76883   0.57234   0.00000  Uiso   1.00
H1286  H     0.61921   0.77815   0.59893   0.00000  Uiso   1.00
H1287  H     0.33606   0.74636   0.58860   0.00000  Uiso   1.00
H1288  H     0.61898   0.75332   0.54261   0.00000  Uiso   1.00
N1289  N     0.57105   0.71584   0.45325   0.00000  Uiso   1.00
H1290  H     0.60819   0.70945   0.46257   0.00000  Uiso   1.00
C1291  C     0.55882   0.71704   0.40297   0.00000  Uiso   1.00
H1292  H     0.56294   0.68644   0.38740   0.00000  Uiso   1.00
H1293  H     0.58515   0.74032   0.38807   0.00000  Uiso   1.00
H1294  H     0.51935   0.72579   0.39342   0.00000  Uiso   1.00
N1295  N     0.42895   0.95083   0.54675   0.00000  Uiso   1.00
H1296  H     0.39181   0.95722   0.53742   0.00000  Uiso   1.00
C1297  C     0.44117   0.94963   0.59703   0.00000  Uiso   1.00
H1298  H     0.43706   0.98023   0.61260   0.00000  Uiso   1.00
H1299  H     0.48064   0.94087   0.60658   0.00000  Uiso   1.00
H1300  H     0.41484   0.92634   0.61192   0.00000  Uiso   1.00
N1301  N     0.57908   0.96403   0.46130   0.00000  Uiso   1.00
H1302  H     0.56945   0.94179   0.43610   0.00000  Uiso   1.00
C1303  C     0.62006   0.95462   0.49634   0.00000  Uiso   1.00
H1304  H     0.61606   0.92158   0.50624   0.00000  Uiso   1.00
H1305  H     0.62102   0.97395   0.52825   0.00000  Uiso   1.00
H1306  H     0.65639   0.96118   0.48160   0.00000  Uiso   1.00
N1307  N     0.42093   0.70263   0.53870   0.00000  Uiso   1.00
H1308  H     0.43057   0.72482   0.56397   0.00000  Uiso   1.00
C1309  C     0.38003   0.71216   0.50363   0.00000  Uiso   1.00
H1310  H     0.38418   0.74520   0.49375   0.00000  Uiso   1.00
H1311  H     0.34366   0.70571   0.51833   0.00000  Uiso   1.00
H1312  H     0.37902   0.69283   0.47173   0.00000  Uiso   1.00
N1313  N     0.42665   0.78231   0.37245   0.00000  Uiso   1.00
H1314  H     0.43329   0.77042   0.40527   0.00000  Uiso   1.00
C1315  C     0.37375   0.78729   0.35676   0.00000  Uiso   1.00
H1316  H     0.35292   0.79183   0.38730   0.00000  Uiso   1.00
H1317  H     0.35673   0.75882   0.33843   0.00000  Uiso   1.00
H1318  H     0.36913   0.81415   0.66646   0.00000  Uiso   1.00
N1319  N     0.57335   0.88435   0.62755   0.00000  Uiso   1.00
H1320  H     0.56671   0.89625   0.59473   0.00000  Uiso   1.00
C1321  C     0.62625   0.87937   0.64324   0.00000  Uiso   1.00
H1322  H     0.64708   0.87484   0.61270   0.00000  Uiso   1.00
H1323  H     0.63087   0.85250   0.33353   0.00000  Uiso   1.00
H1324  H     0.64327   0.90784   0.66158   0.00000  Uiso   1.00
F1325  F     0.43172   0.78363   0.61096   0.00000  Uiso   1.00
F1326  F     0.56829   0.88303   0.38904   0.00000  Uiso   1.00
C1327  C     0.83214   0.75415   0.49987   0.00000  Uiso   1.00
C1328  C     0.83454   0.91252   0.50013   0.00000  Uiso   1.00
C1329  C     0.73510   0.83416   0.48852   0.00000  Uiso   1.00
C1330  C     0.93156   0.83251   0.51148   0.00000  Uiso   1.00
C1331  C     0.68128   0.84031   0.48333   0.00000  Uiso   1.00
C1332  C     0.98538   0.82636   0.51668   0.00000  Uiso   1.00
C1333  C     0.86886   0.69105   0.47691   0.00000  Uiso   1.00
C1334  C     0.79782   0.97562   0.52309   0.00000  Uiso   1.00
C1335  C     0.87104   0.98160   0.47872   0.00000  Uiso   1.00
C1336  C     0.79564   0.68507   0.52128   0.00000  Uiso   1.00
C1337  C     0.83456   0.95719   0.50053   0.00000  Uiso   1.00
C1338  C     0.83212   0.70948   0.49947   0.00000  Uiso   1.00
C1339  C     0.79760   0.80912   0.35387   0.00000  Uiso   1.00
C1340  C     0.86907   0.85755   0.64613   0.00000  Uiso   1.00
C1341  C     0.79854   0.80908   0.63795   0.00000  Uiso   1.00
C1342  C     0.86813   0.85758   0.36205   0.00000  Uiso   1.00
Cu1343 Cu    0.83333   0.83334   0.54689   0.00000  Uiso   1.00
Cu1344 Cu    0.83333   0.83333   0.45311   0.00000  Uiso   1.00
N1345  N     0.83335   0.83334   0.61736   0.00000  Uiso   1.00
N1346  N     0.83332   0.83332   0.38264   0.00000  Uiso   1.00
O1347  O     0.83333   0.77322   0.53958   0.00000  Uiso   1.00
O1348  O     0.83334   0.89345   0.46042   0.00000  Uiso   1.00
O1349  O     0.83333   0.77321   0.46039   0.00000  Uiso   1.00
O1350  O     0.83334   0.89346   0.53961   0.00000  Uiso   1.00
O1351  O     0.75828   0.83334   0.53046   0.00000  Uiso   1.00
O1352  O     0.90839   0.83333   0.46954   0.00000  Uiso   1.00
O1353  O     0.75828   0.83333   0.45127   0.00000  Uiso   1.00
O1354  O     0.90839   0.83334   0.54873   0.00000  Uiso   1.00
N1355  N     0.99374   0.86222   0.44326   0.00000  Uiso   1.00
H1356  H     0.97682   0.84328   0.41651   0.00000  Uiso   1.00
C1357  C     0.69001   0.89787   0.42770   0.00000  Uiso   1.00
H1358  H     0.71415   0.88857   0.40112   0.00000  Uiso   1.00
H1359  H     0.71431   0.91338   0.45745   0.00000  Uiso   1.00
H1360  H     0.99726   0.92033   0.41142   0.00000  Uiso   1.00
N1361  N     0.67293   0.80446   0.55675   0.00000  Uiso   1.00
H1362  H     0.68987   0.82340   0.58348   0.00000  Uiso   1.00
C1363  C     0.97665   0.76883   0.57234   0.00000  Uiso   1.00
H1364  H     0.95254   0.77815   0.59893   0.00000  Uiso   1.00
H1365  H     0.66939   0.74636   0.58860   0.00000  Uiso   1.00
H1366  H     0.95231   0.75332   0.54261   0.00000  Uiso   1.00
N1367  N     0.90438   0.71584   0.45325   0.00000  Uiso   1.00
H1368  H     0.94153   0.70945   0.46257   0.00000  Uiso   1.00
C1369  C     0.89216   0.71704   0.40297   0.00000  Uiso   1.00
H1370  H     0.89627   0.68644   0.38740   0.00000  Uiso   1.00
H1371  H     0.91848   0.74032   0.38807   0.00000  Uiso   1.00
H1372  H     0.85269   0.72579   0.39342   0.00000  Uiso   1.00
N1373  N     0.76229   0.95083   0.54675   0.00000  Uiso   1.00
H1374  H     0.72515   0.95722   0.53742   0.00000  Uiso   1.00
C1375  C     0.77450   0.94963   0.59703   0.00000  Uiso   1.00
H1376  H     0.77039   0.98023   0.61260   0.00000  Uiso   1.00
H1377  H     0.81397   0.94087   0.60658   0.00000  Uiso   1.00
H1378  H     0.74818   0.92634   0.61192   0.00000  Uiso   1.00
N1379  N     0.91242   0.96403   0.46130   0.00000  Uiso   1.00
H1380  H     0.90279   0.94179   0.43610   0.00000  Uiso   1.00
C1381  C     0.95339   0.95462   0.49634   0.00000  Uiso   1.00
H1382  H     0.94940   0.92158   0.50624   0.00000  Uiso   1.00
H1383  H     0.95435   0.97395   0.52825   0.00000  Uiso   1.00
H1384  H     0.98973   0.96118   0.48160   0.00000  Uiso   1.00
N1385  N     0.75426   0.70263   0.53870   0.00000  Uiso   1.00
H1386  H     0.76390   0.72482   0.56397   0.00000  Uiso   1.00
C1387  C     0.71337   0.71216   0.50363   0.00000  Uiso   1.00
H1388  H     0.71751   0.74520   0.49375   0.00000  Uiso   1.00
H1389  H     0.67699   0.70571   0.51833   0.00000  Uiso   1.00
H1390  H     0.71236   0.69283   0.47173   0.00000  Uiso   1.00
N1391  N     0.75998   0.78231   0.37245   0.00000  Uiso   1.00
H1392  H     0.76662   0.77042   0.40527   0.00000  Uiso   1.00
C1393  C     0.70708   0.78729   0.35676   0.00000  Uiso   1.00
H1394  H     0.68625   0.79183   0.38730   0.00000  Uiso   1.00
H1395  H     0.69007   0.75882   0.33843   0.00000  Uiso   1.00
H1396  H     0.70246   0.81415   0.66646   0.00000  Uiso   1.00
N1397  N     0.90669   0.88435   0.62755   0.00000  Uiso   1.00
H1398  H     0.90005   0.89625   0.59473   0.00000  Uiso   1.00
C1399  C     0.95959   0.87937   0.64324   0.00000  Uiso   1.00
H1400  H     0.98042   0.87484   0.61270   0.00000  Uiso   1.00
H1401  H     0.96421   0.85250   0.33353   0.00000  Uiso   1.00
H1402  H     0.97660   0.90784   0.66158   0.00000  Uiso   1.00
F1403  F     0.76505   0.78363   0.61096   0.00000  Uiso   1.00
F1404  F     0.90162   0.88303   0.38904   0.00000  Uiso   1.00
C1405  C     0.16547   0.08748   0.83320   0.00000  Uiso   1.00
C1406  C     0.16787   0.24585   0.83346   0.00000  Uiso   1.00
C1407  C     0.06844   0.16749   0.82185   0.00000  Uiso   1.00
C1408  C     0.26490   0.16585   0.84481   0.00000  Uiso   1.00
C1409  C     0.01462   0.17365   0.81666   0.00000  Uiso   1.00
C1410  C     0.31872   0.15969   0.85001   0.00000  Uiso   1.00
C1411  C     0.20219   0.02438   0.81025   0.00000  Uiso   1.00
C1412  C     0.13115   0.30896   0.85642   0.00000  Uiso   1.00
C1413  C     0.20437   0.31493   0.81206   0.00000  Uiso   1.00
C1414  C     0.12897   0.01840   0.85461   0.00000  Uiso   1.00
C1415  C     0.16790   0.29052   0.83386   0.00000  Uiso   1.00
C1416  C     0.16545   0.04281   0.83281   0.00000  Uiso   1.00
C1417  C     0.13093   0.14245   0.68720   0.00000  Uiso   1.00
C1418  C     0.20240   0.19088   0.97947   0.00000  Uiso   1.00
C1419  C     0.13187   0.14242   0.97128   0.00000  Uiso   1.00
C1420  C     0.20146   0.19092   0.69539   0.00000  Uiso   1.00
Cu1421 Cu    0.16667   0.16667   0.88022   0.00000  Uiso   1.00
Cu1422 Cu    0.16667   0.16666   0.78645   0.00000  Uiso   1.00
N1423  N     0.16668   0.16668   0.95069   0.00000  Uiso   1.00
N1424  N     0.16665   0.16666   0.71597   0.00000  Uiso   1.00
O1425  O     0.16666   0.10655   0.87291   0.00000  Uiso   1.00
O1426  O     0.16667   0.22678   0.79375   0.00000  Uiso   1.00
O1427  O     0.16666   0.10654   0.79372   0.00000  Uiso   1.00
O1428  O     0.16667   0.22679   0.87294   0.00000  Uiso   1.00
O1429  O     0.09161   0.16667   0.86379   0.00000  Uiso   1.00
O1430  O     0.24172   0.16666   0.80288   0.00000  Uiso   1.00
O1431  O     0.09161   0.16666   0.78460   0.00000  Uiso   1.00
O1432  O     0.24172   0.16667   0.88207   0.00000  Uiso   1.00
N1433  N     0.32707   0.19555   0.77659   0.00000  Uiso   1.00
H1434  H     0.31015   0.17661   0.74984   0.00000  Uiso   1.00
C1435  C     0.02334   0.23120   0.76103   0.00000  Uiso   1.00
H1436  H     0.04748   0.22190   0.73446   0.00000  Uiso   1.00
H1437  H     0.04764   0.24671   0.79078   0.00000  Uiso   1.00
H1438  H     0.33060   0.25366   0.74476   0.00000  Uiso   1.00
N1439  N     0.00626   0.13779   0.89009   0.00000  Uiso   1.00
H1440  H     0.02321   0.15674   0.91682   0.00000  Uiso   1.00
C1441  C     0.30998   0.10216   0.90567   0.00000  Uiso   1.00
H1442  H     0.28587   0.11148   0.93227   0.00000  Uiso   1.00
H1443  H     0.00272   0.07969   0.92194   0.00000  Uiso   1.00
H1444  H     0.28564   0.08665   0.87594   0.00000  Uiso   1.00
N1445  N     0.23772   0.04917   0.78658   0.00000  Uiso   1.00
H1446  H     0.27486   0.04278   0.79590   0.00000  Uiso   1.00
C1447  C     0.22549   0.05037   0.73630   0.00000  Uiso   1.00
H1448  H     0.22961   0.01977   0.72073   0.00000  Uiso   1.00
H1449  H     0.25181   0.07366   0.72140   0.00000  Uiso   1.00
H1450  H     0.18602   0.05913   0.72676   0.00000  Uiso   1.00
N1451  N     0.09562   0.28417   0.88008   0.00000  Uiso   1.00
H1452  H     0.05848   0.29055   0.87075   0.00000  Uiso   1.00
C1453  C     0.10784   0.28296   0.93036   0.00000  Uiso   1.00
H1454  H     0.10372   0.31356   0.94593   0.00000  Uiso   1.00
H1455  H     0.14731   0.27420   0.93991   0.00000  Uiso   1.00
H1456  H     0.08151   0.25967   0.94525   0.00000  Uiso   1.00
N1457  N     0.24575   0.29736   0.79464   0.00000  Uiso   1.00
H1458  H     0.23612   0.27512   0.76944   0.00000  Uiso   1.00
C1459  C     0.28672   0.28796   0.82968   0.00000  Uiso   1.00
H1460  H     0.28273   0.25492   0.83957   0.00000  Uiso   1.00
H1461  H     0.28768   0.30729   0.86158   0.00000  Uiso   1.00
H1462  H     0.32306   0.29451   0.81494   0.00000  Uiso   1.00
N1463  N     0.08759   0.03597   0.87203   0.00000  Uiso   1.00
H1464  H     0.09723   0.05815   0.89730   0.00000  Uiso   1.00
C1465  C     0.04670   0.04550   0.83697   0.00000  Uiso   1.00
H1466  H     0.05084   0.07853   0.82708   0.00000  Uiso   1.00
H1467  H     0.01032   0.03904   0.85167   0.00000  Uiso   1.00
H1468  H     0.04569   0.02616   0.80507   0.00000  Uiso   1.00
N1469  N     0.09332   0.11564   0.70579   0.00000  Uiso   1.00
H1470  H     0.09996   0.10375   0.73860   0.00000  Uiso   1.00
C1471  C     0.04041   0.12062   0.69010   0.00000  Uiso   1.00
H1472  H     0.01959   0.12516   0.72063   0.00000  Uiso   1.00
H1473  H     0.02340   0.09215   0.67177   0.00000  Uiso   1.00
H1474  H     0.03579   0.14748   0.99979   0.00000  Uiso   1.00
N1475  N     0.24002   0.21769   0.96088   0.00000  Uiso   1.00
H1476  H     0.23338   0.22958   0.92807   0.00000  Uiso   1.00
C1477  C     0.29292   0.21270   0.97657   0.00000  Uiso   1.00
H1478  H     0.31375   0.20818   0.94604   0.00000  Uiso   1.00
H1479  H     0.29754   0.18584   0.66686   0.00000  Uiso   1.00
H1480  H     0.30993   0.24117   0.99492   0.00000  Uiso   1.00
F1481  F     0.09838   0.11696   0.94429   0.00000  Uiso   1.00
F1482  F     0.23496   0.21637   0.72237   0.00000  Uiso   1.00
C1483  C     0.49881   0.08748   0.83320   0.00000  Uiso   1.00
C1484  C     0.50120   0.24585   0.83346   0.00000  Uiso   1.00
C1485  C     0.40177   0.16749   0.82185   0.00000  Uiso   1.00
C1486  C     0.59823   0.16585   0.84481   0.00000  Uiso   1.00
C1487  C     0.34795   0.17365   0.81666   0.00000  Uiso   1.00
C1488  C     0.65205   0.15969   0.85001   0.00000  Uiso   1.00
C1489  C     0.53553   0.02438   0.81025   0.00000  Uiso   1.00
C1490  C     0.46448   0.30896   0.85642   0.00000  Uiso   1.00
C1491  C     0.53771   0.31493   0.81206   0.00000  Uiso   1.00
C1492  C     0.46231   0.01840   0.85461   0.00000  Uiso   1.00
C1493  C     0.50123   0.29052   0.83386   0.00000  Uiso   1.00
C1494  C     0.49878   0.04281   0.83281   0.00000  Uiso   1.00
C1495  C     0.46426   0.14245   0.68720   0.00000  Uiso   1.00
C1496  C     0.53574   0.19088   0.97947   0.00000  Uiso   1.00
C1497  C     0.46520   0.14242   0.97128   0.00000  Uiso   1.00
C1498  C     0.53480   0.19092   0.69539   0.00000  Uiso   1.00
Cu1499 Cu    0.50000   0.16667   0.88022   0.00000  Uiso   1.00
Cu1500 Cu    0.50000   0.16666   0.78645   0.00000  Uiso   1.00
N1501  N     0.50001   0.16668   0.95069   0.00000  Uiso   1.00
N1502  N     0.49999   0.16666   0.71597   0.00000  Uiso   1.00
O1503  O     0.50000   0.10655   0.87291   0.00000  Uiso   1.00
O1504  O     0.50000   0.22678   0.79375   0.00000  Uiso   1.00
O1505  O     0.50000   0.10654   0.79372   0.00000  Uiso   1.00
O1506  O     0.50000   0.22679   0.87294   0.00000  Uiso   1.00
O1507  O     0.42495   0.16667   0.86379   0.00000  Uiso   1.00
O1508  O     0.57505   0.16666   0.80288   0.00000  Uiso   1.00
O1509  O     0.42494   0.16666   0.78460   0.00000  Uiso   1.00
O1510  O     0.57506   0.16667   0.88207   0.00000  Uiso   1.00
N1511  N     0.66040   0.19555   0.77659   0.00000  Uiso   1.00
H1512  H     0.64348   0.17661   0.74984   0.00000  Uiso   1.00
C1513  C     0.35667   0.23120   0.76103   0.00000  Uiso   1.00
H1514  H     0.38082   0.22190   0.73446   0.00000  Uiso   1.00
H1515  H     0.38098   0.24671   0.79078   0.00000  Uiso   1.00
H1516  H     0.66393   0.25366   0.74476   0.00000  Uiso   1.00
N1517  N     0.33960   0.13779   0.89009   0.00000  Uiso   1.00
H1518  H     0.35654   0.15674   0.91682   0.00000  Uiso   1.00
C1519  C     0.64332   0.10216   0.90567   0.00000  Uiso   1.00
H1520  H     0.61921   0.11148   0.93227   0.00000  Uiso   1.00
H1521  H     0.33606   0.07969   0.92194   0.00000  Uiso   1.00
H1522  H     0.61898   0.08665   0.87594   0.00000  Uiso   1.00
N1523  N     0.57105   0.04917   0.78658   0.00000  Uiso   1.00
H1524  H     0.60819   0.04278   0.79590   0.00000  Uiso   1.00
C1525  C     0.55882   0.05037   0.73630   0.00000  Uiso   1.00
H1526  H     0.56294   0.01977   0.72073   0.00000  Uiso   1.00
H1527  H     0.58515   0.07366   0.72140   0.00000  Uiso   1.00
H1528  H     0.51935   0.05913   0.72676   0.00000  Uiso   1.00
N1529  N     0.42895   0.28417   0.88008   0.00000  Uiso   1.00
H1530  H     0.39181   0.29055   0.87075   0.00000  Uiso   1.00
C1531  C     0.44117   0.28296   0.93036   0.00000  Uiso   1.00
H1532  H     0.43706   0.31356   0.94593   0.00000  Uiso   1.00
H1533  H     0.48064   0.27420   0.93991   0.00000  Uiso   1.00
H1534  H     0.41484   0.25967   0.94525   0.00000  Uiso   1.00
N1535  N     0.57908   0.29736   0.79464   0.00000  Uiso   1.00
H1536  H     0.56945   0.27512   0.76944   0.00000  Uiso   1.00
C1537  C     0.62006   0.28796   0.82968   0.00000  Uiso   1.00
H1538  H     0.61606   0.25492   0.83957   0.00000  Uiso   1.00
H1539  H     0.62102   0.30729   0.86158   0.00000  Uiso   1.00
H1540  H     0.65639   0.29451   0.81494   0.00000  Uiso   1.00
N1541  N     0.42093   0.03597   0.87203   0.00000  Uiso   1.00
H1542  H     0.43057   0.05815   0.89730   0.00000  Uiso   1.00
C1543  C     0.38003   0.04550   0.83697   0.00000  Uiso   1.00
H1544  H     0.38418   0.07853   0.82708   0.00000  Uiso   1.00
H1545  H     0.34366   0.03904   0.85167   0.00000  Uiso   1.00
H1546  H     0.37902   0.02616   0.80507   0.00000  Uiso   1.00
N1547  N     0.42665   0.11564   0.70579   0.00000  Uiso   1.00
H1548  H     0.43329   0.10375   0.73860   0.00000  Uiso   1.00
C1549  C     0.37375   0.12062   0.69010   0.00000  Uiso   1.00
H1550  H     0.35292   0.12516   0.72063   0.00000  Uiso   1.00
H1551  H     0.35673   0.09215   0.67177   0.00000  Uiso   1.00
H1552  H     0.36913   0.14748   0.99979   0.00000  Uiso   1.00
N1553  N     0.57335   0.21769   0.96088   0.00000  Uiso   1.00
H1554  H     0.56671   0.22958   0.92807   0.00000  Uiso   1.00
C1555  C     0.62625   0.21270   0.97657   0.00000  Uiso   1.00
H1556  H     0.64708   0.20818   0.94604   0.00000  Uiso   1.00
H1557  H     0.63087   0.18584   0.66686   0.00000  Uiso   1.00
H1558  H     0.64327   0.24117   0.99492   0.00000  Uiso   1.00
F1559  F     0.43172   0.11696   0.94429   0.00000  Uiso   1.00
F1560  F     0.56829   0.21637   0.72237   0.00000  Uiso   1.00
C1561  C     0.83214   0.08748   0.83320   0.00000  Uiso   1.00
C1562  C     0.83454   0.24585   0.83346   0.00000  Uiso   1.00
C1563  C     0.73510   0.16749   0.82185   0.00000  Uiso   1.00
C1564  C     0.93156   0.16585   0.84481   0.00000  Uiso   1.00
C1565  C     0.68128   0.17365   0.81666   0.00000  Uiso   1.00
C1566  C     0.98538   0.15969   0.85001   0.00000  Uiso   1.00
C1567  C     0.86886   0.02438   0.81025   0.00000  Uiso   1.00
C1568  C     0.79782   0.30896   0.85642   0.00000  Uiso   1.00
C1569  C     0.87104   0.31493   0.81206   0.00000  Uiso   1.00
C1570  C     0.79564   0.01840   0.85461   0.00000  Uiso   1.00
C1571  C     0.83456   0.29052   0.83386   0.00000  Uiso   1.00
C1572  C     0.83212   0.04281   0.83281   0.00000  Uiso   1.00
C1573  C     0.79760   0.14245   0.68720   0.00000  Uiso   1.00
C1574  C     0.86907   0.19088   0.97947   0.00000  Uiso   1.00
C1575  C     0.79854   0.14242   0.97128   0.00000  Uiso   1.00
C1576  C     0.86813   0.19092   0.69539   0.00000  Uiso   1.00
Cu1577 Cu    0.83333   0.16667   0.88022   0.00000  Uiso   1.00
Cu1578 Cu    0.83333   0.16666   0.78645   0.00000  Uiso   1.00
N1579  N     0.83335   0.16668   0.95069   0.00000  Uiso   1.00
N1580  N     0.83332   0.16666   0.71597   0.00000  Uiso   1.00
O1581  O     0.83333   0.10655   0.87291   0.00000  Uiso   1.00
O1582  O     0.83334   0.22678   0.79375   0.00000  Uiso   1.00
O1583  O     0.83333   0.10654   0.79372   0.00000  Uiso   1.00
O1584  O     0.83334   0.22679   0.87294   0.00000  Uiso   1.00
O1585  O     0.75828   0.16667   0.86379   0.00000  Uiso   1.00
O1586  O     0.90839   0.16666   0.80288   0.00000  Uiso   1.00
O1587  O     0.75828   0.16666   0.78460   0.00000  Uiso   1.00
O1588  O     0.90839   0.16667   0.88207   0.00000  Uiso   1.00
N1589  N     0.99374   0.19555   0.77659   0.00000  Uiso   1.00
H1590  H     0.97682   0.17661   0.74984   0.00000  Uiso   1.00
C1591  C     0.69001   0.23120   0.76103   0.00000  Uiso   1.00
H1592  H     0.71415   0.22190   0.73446   0.00000  Uiso   1.00
H1593  H     0.71431   0.24671   0.79078   0.00000  Uiso   1.00
H1594  H     0.99726   0.25366   0.74476   0.00000  Uiso   1.00
N1595  N     0.67293   0.13779   0.89009   0.00000  Uiso   1.00
H1596  H     0.68987   0.15674   0.91682   0.00000  Uiso   1.00
C1597  C     0.97665   0.10216   0.90567   0.00000  Uiso   1.00
H1598  H     0.95254   0.11148   0.93227   0.00000  Uiso   1.00
H1599  H     0.66939   0.07969   0.92194   0.00000  Uiso   1.00
H1600  H     0.95231   0.08665   0.87594   0.00000  Uiso   1.00
N1601  N     0.90438   0.04917   0.78658   0.00000  Uiso   1.00
H1602  H     0.94153   0.04278   0.79590   0.00000  Uiso   1.00
C1603  C     0.89216   0.05037   0.73630   0.00000  Uiso   1.00
H1604  H     0.89627   0.01977   0.72073   0.00000  Uiso   1.00
H1605  H     0.91848   0.07366   0.72140   0.00000  Uiso   1.00
H1606  H     0.85269   0.05913   0.72676   0.00000  Uiso   1.00
N1607  N     0.76229   0.28417   0.88008   0.00000  Uiso   1.00
H1608  H     0.72515   0.29055   0.87075   0.00000  Uiso   1.00
C1609  C     0.77450   0.28296   0.93036   0.00000  Uiso   1.00
H1610  H     0.77039   0.31356   0.94593   0.00000  Uiso   1.00
H1611  H     0.81397   0.27420   0.93991   0.00000  Uiso   1.00
H1612  H     0.74818   0.25967   0.94525   0.00000  Uiso   1.00
N1613  N     0.91242   0.29736   0.79464   0.00000  Uiso   1.00
H1614  H     0.90279   0.27512   0.76944   0.00000  Uiso   1.00
C1615  C     0.95339   0.28796   0.82968   0.00000  Uiso   1.00
H1616  H     0.94940   0.25492   0.83957   0.00000  Uiso   1.00
H1617  H     0.95435   0.30729   0.86158   0.00000  Uiso   1.00
H1618  H     0.98973   0.29451   0.81494   0.00000  Uiso   1.00
N1619  N     0.75426   0.03597   0.87203   0.00000  Uiso   1.00
H1620  H     0.76390   0.05815   0.89730   0.00000  Uiso   1.00
C1621  C     0.71337   0.04550   0.83697   0.00000  Uiso   1.00
H1622  H     0.71751   0.07853   0.82708   0.00000  Uiso   1.00
H1623  H     0.67699   0.03904   0.85167   0.00000  Uiso   1.00
H1624  H     0.71236   0.02616   0.80507   0.00000  Uiso   1.00
N1625  N     0.75998   0.11564   0.70579   0.00000  Uiso   1.00
H1626  H     0.76662   0.10375   0.73860   0.00000  Uiso   1.00
C1627  C     0.70708   0.12062   0.69010   0.00000  Uiso   1.00
H1628  H     0.68625   0.12516   0.72063   0.00000  Uiso   1.00
H1629  H     0.69007   0.09215   0.67177   0.00000  Uiso   1.00
H1630  H     0.70246   0.14748   0.99979   0.00000  Uiso   1.00
N1631  N     0.90669   0.21769   0.96088   0.00000  Uiso   1.00
H1632  H     0.90005   0.22958   0.92807   0.00000  Uiso   1.00
C1633  C     0.95959   0.21270   0.97657   0.00000  Uiso   1.00
H1634  H     0.98042   0.20818   0.94604   0.00000  Uiso   1.00
H1635  H     0.96421   0.18584   0.66686   0.00000  Uiso   1.00
H1636  H     0.97660   0.24117   0.99492   0.00000  Uiso   1.00
F1637  F     0.76505   0.11696   0.94429   0.00000  Uiso   1.00
F1638  F     0.90162   0.21637   0.72237   0.00000  Uiso   1.00
C1639  C     0.16547   0.42081   0.83320   0.00000  Uiso   1.00
C1640  C     0.16787   0.57919   0.83346   0.00000  Uiso   1.00
C1641  C     0.06844   0.50082   0.82185   0.00000  Uiso   1.00
C1642  C     0.26490   0.49918   0.84481   0.00000  Uiso   1.00
C1643  C     0.01462   0.50698   0.81666   0.00000  Uiso   1.00
C1644  C     0.31872   0.49303   0.85001   0.00000  Uiso   1.00
C1645  C     0.20219   0.35771   0.81025   0.00000  Uiso   1.00
C1646  C     0.13115   0.64229   0.85642   0.00000  Uiso   1.00
C1647  C     0.20437   0.64827   0.81206   0.00000  Uiso   1.00
C1648  C     0.12897   0.35173   0.85461   0.00000  Uiso   1.00
C1649  C     0.16790   0.62386   0.83386   0.00000  Uiso   1.00
C1650  C     0.16545   0.37614   0.83281   0.00000  Uiso   1.00
C1651  C     0.13093   0.47579   0.68720   0.00000  Uiso   1.00
C1652  C     0.20240   0.52421   0.97947   0.00000  Uiso   1.00
C1653  C     0.13187   0.47575   0.97128   0.00000  Uiso   1.00
C1654  C     0.20146   0.52425   0.69539   0.00000  Uiso   1.00
Cu1655 Cu    0.16667   0.50001   0.88022   0.00000  Uiso   1.00
Cu1656 Cu    0.16667   0.49999   0.78645   0.00000  Uiso   1.00
N1657  N     0.16668   0.50001   0.95069   0.00000  Uiso   1.00
N1658  N     0.16665   0.49999   0.71597   0.00000  Uiso   1.00
O1659  O     0.16666   0.43989   0.87291   0.00000  Uiso   1.00
O1660  O     0.16667   0.56011   0.79375   0.00000  Uiso   1.00
O1661  O     0.16666   0.43988   0.79372   0.00000  Uiso   1.00
O1662  O     0.16667   0.56012   0.87294   0.00000  Uiso   1.00
O1663  O     0.09161   0.50000   0.86379   0.00000  Uiso   1.00
O1664  O     0.24172   0.50000   0.80288   0.00000  Uiso   1.00
O1665  O     0.09161   0.49999   0.78460   0.00000  Uiso   1.00
O1666  O     0.24172   0.50001   0.88207   0.00000  Uiso   1.00
N1667  N     0.32707   0.52889   0.77659   0.00000  Uiso   1.00
H1668  H     0.31015   0.50995   0.74984   0.00000  Uiso   1.00
C1669  C     0.02334   0.56454   0.76103   0.00000  Uiso   1.00
H1670  H     0.04748   0.55523   0.73446   0.00000  Uiso   1.00
H1671  H     0.04764   0.58005   0.79078   0.00000  Uiso   1.00
H1672  H     0.33060   0.58700   0.74476   0.00000  Uiso   1.00
N1673  N     0.00626   0.47113   0.89009   0.00000  Uiso   1.00
H1674  H     0.02321   0.49007   0.91682   0.00000  Uiso   1.00
C1675  C     0.30998   0.43549   0.90567   0.00000  Uiso   1.00
H1676  H     0.28587   0.44482   0.93227   0.00000  Uiso   1.00
H1677  H     0.00272   0.41302   0.92194   0.00000  Uiso   1.00
H1678  H     0.28564   0.41999   0.87594   0.00000  Uiso   1.00
N1679  N     0.23772   0.38250   0.78658   0.00000  Uiso   1.00
H1680  H     0.27486   0.37612   0.79590   0.00000  Uiso   1.00
C1681  C     0.22549   0.38370   0.73630   0.00000  Uiso   1.00
H1682  H     0.22961   0.35310   0.72073   0.00000  Uiso   1.00
H1683  H     0.25181   0.40699   0.72140   0.00000  Uiso   1.00
H1684  H     0.18602   0.39246   0.72676   0.00000  Uiso   1.00
N1685  N     0.09562   0.61750   0.88008   0.00000  Uiso   1.00
H1686  H     0.05848   0.62389   0.87075   0.00000  Uiso   1.00
C1687  C     0.10784   0.61630   0.93036   0.00000  Uiso   1.00
H1688  H     0.10372   0.64689   0.94593   0.00000  Uiso   1.00
H1689  H     0.14731   0.60754   0.93991   0.00000  Uiso   1.00
H1690  H     0.08151   0.59301   0.94525   0.00000  Uiso   1.00
N1691  N     0.24575   0.63070   0.79464   0.00000  Uiso   1.00
H1692  H     0.23612   0.60845   0.76944   0.00000  Uiso   1.00
C1693  C     0.28672   0.62129   0.82968   0.00000  Uiso   1.00
H1694  H     0.28273   0.58825   0.83957   0.00000  Uiso   1.00
H1695  H     0.28768   0.64062   0.86158   0.00000  Uiso   1.00
H1696  H     0.32306   0.62784   0.81494   0.00000  Uiso   1.00
N1697  N     0.08759   0.36930   0.87203   0.00000  Uiso   1.00
H1698  H     0.09723   0.39148   0.89730   0.00000  Uiso   1.00
C1699  C     0.04670   0.37883   0.83697   0.00000  Uiso   1.00
H1700  H     0.05084   0.41186   0.82708   0.00000  Uiso   1.00
H1701  H     0.01032   0.37238   0.85167   0.00000  Uiso   1.00
H1702  H     0.04569   0.35950   0.80507   0.00000  Uiso   1.00
N1703  N     0.09332   0.44898   0.70579   0.00000  Uiso   1.00
H1704  H     0.09996   0.43708   0.73860   0.00000  Uiso   1.00
C1705  C     0.04041   0.45396   0.69010   0.00000  Uiso   1.00
H1706  H     0.01959   0.45850   0.72063   0.00000  Uiso   1.00
H1707  H     0.02340   0.42549   0.67177   0.00000  Uiso   1.00
H1708  H     0.03579   0.48082   0.99979   0.00000  Uiso   1.00
N1709  N     0.24002   0.55102   0.96088   0.00000  Uiso   1.00
H1710  H     0.23338   0.56291   0.92807   0.00000  Uiso   1.00
C1711  C     0.29292   0.54604   0.97657   0.00000  Uiso   1.00
H1712  H     0.31375   0.54151   0.94604   0.00000  Uiso   1.00
H1713  H     0.29754   0.51917   0.66686   0.00000  Uiso   1.00
H1714  H     0.30993   0.57450   0.99492   0.00000  Uiso   1.00
F1715  F     0.09838   0.45030   0.94429   0.00000  Uiso   1.00
F1716  F     0.23496   0.54970   0.72237   0.00000  Uiso   1.00
C1717  C     0.49881   0.42081   0.83320   0.00000  Uiso   1.00
C1718  C     0.50120   0.57919   0.83346   0.00000  Uiso   1.00
C1719  C     0.40177   0.50082   0.82185   0.00000  Uiso   1.00
C1720  C     0.59823   0.49918   0.84481   0.00000  Uiso   1.00
C1721  C     0.34795   0.50698   0.81666   0.00000  Uiso   1.00
C1722  C     0.65205   0.49303   0.85001   0.00000  Uiso   1.00
C1723  C     0.53553   0.35771   0.81025   0.00000  Uiso   1.00
C1724  C     0.46448   0.64229   0.85642   0.00000  Uiso   1.00
C1725  C     0.53771   0.64827   0.81206   0.00000  Uiso   1.00
C1726  C     0.46231   0.35173   0.85461   0.00000  Uiso   1.00
C1727  C     0.50123   0.62386   0.83386   0.00000  Uiso   1.00
C1728  C     0.49878   0.37614   0.83281   0.00000  Uiso   1.00
C1729  C     0.46426   0.47579   0.68720   0.00000  Uiso   1.00
C1730  C     0.53574   0.52421   0.97947   0.00000  Uiso   1.00
C1731  C     0.46520   0.47575   0.97128   0.00000  Uiso   1.00
C1732  C     0.53480   0.52425   0.69539   0.00000  Uiso   1.00
Cu1733 Cu    0.50000   0.50001   0.88022   0.00000  Uiso   1.00
Cu1734 Cu    0.50000   0.49999   0.78645   0.00000  Uiso   1.00
N1735  N     0.50001   0.50001   0.95069   0.00000  Uiso   1.00
N1736  N     0.49999   0.49999   0.71597   0.00000  Uiso   1.00
O1737  O     0.50000   0.43989   0.87291   0.00000  Uiso   1.00
O1738  O     0.50000   0.56011   0.79375   0.00000  Uiso   1.00
O1739  O     0.50000   0.43988   0.79372   0.00000  Uiso   1.00
O1740  O     0.50000   0.56012   0.87294   0.00000  Uiso   1.00
O1741  O     0.42495   0.50000   0.86379   0.00000  Uiso   1.00
O1742  O     0.57505   0.50000   0.80288   0.00000  Uiso   1.00
O1743  O     0.42494   0.49999   0.78460   0.00000  Uiso   1.00
O1744  O     0.57506   0.50001   0.88207   0.00000  Uiso   1.00
N1745  N     0.66040   0.52889   0.77659   0.00000  Uiso   1.00
H1746  H     0.64348   0.50995   0.74984   0.00000  Uiso   1.00
C1747  C     0.35667   0.56454   0.76103   0.00000  Uiso   1.00
H1748  H     0.38082   0.55523   0.73446   0.00000  Uiso   1.00
H1749  H     0.38098   0.58005   0.79078   0.00000  Uiso   1.00
H1750  H     0.66393   0.58700   0.74476   0.00000  Uiso   1.00
N1751  N     0.33960   0.47113   0.89009   0.00000  Uiso   1.00
H1752  H     0.35654   0.49007   0.91682   0.00000  Uiso   1.00
C1753  C     0.64332   0.43549   0.90567   0.00000  Uiso   1.00
H1754  H     0.61921   0.44482   0.93227   0.00000  Uiso   1.00
H1755  H     0.33606   0.41302   0.92194   0.00000  Uiso   1.00
H1756  H     0.61898   0.41999   0.87594   0.00000  Uiso   1.00
N1757  N     0.57105   0.38250   0.78658   0.00000  Uiso   1.00
H1758  H     0.60819   0.37612   0.79590   0.00000  Uiso   1.00
C1759  C     0.55882   0.38370   0.73630   0.00000  Uiso   1.00
H1760  H     0.56294   0.35310   0.72073   0.00000  Uiso   1.00
H1761  H     0.58515   0.40699   0.72140   0.00000  Uiso   1.00
H1762  H     0.51935   0.39246   0.72676   0.00000  Uiso   1.00
N1763  N     0.42895   0.61750   0.88008   0.00000  Uiso   1.00
H1764  H     0.39181   0.62389   0.87075   0.00000  Uiso   1.00
C1765  C     0.44117   0.61630   0.93036   0.00000  Uiso   1.00
H1766  H     0.43706   0.64689   0.94593   0.00000  Uiso   1.00
H1767  H     0.48064   0.60754   0.93991   0.00000  Uiso   1.00
H1768  H     0.41484   0.59301   0.94525   0.00000  Uiso   1.00
N1769  N     0.57908   0.63070   0.79464   0.00000  Uiso   1.00
H1770  H     0.56945   0.60845   0.76944   0.00000  Uiso   1.00
C1771  C     0.62006   0.62129   0.82968   0.00000  Uiso   1.00
H1772  H     0.61606   0.58825   0.83957   0.00000  Uiso   1.00
H1773  H     0.62102   0.64062   0.86158   0.00000  Uiso   1.00
H1774  H     0.65639   0.62784   0.81494   0.00000  Uiso   1.00
N1775  N     0.42093   0.36930   0.87203   0.00000  Uiso   1.00
H1776  H     0.43057   0.39148   0.89730   0.00000  Uiso   1.00
C1777  C     0.38003   0.37883   0.83697   0.00000  Uiso   1.00
H1778  H     0.38418   0.41186   0.82708   0.00000  Uiso   1.00
H1779  H     0.34366   0.37238   0.85167   0.00000  Uiso   1.00
H1780  H     0.37902   0.35950   0.80507   0.00000  Uiso   1.00
N1781  N     0.42665   0.44898   0.70579   0.00000  Uiso   1.00
H1782  H     0.43329   0.43708   0.73860   0.00000  Uiso   1.00
C1783  C     0.37375   0.45396   0.69010   0.00000  Uiso   1.00
H1784  H     0.35292   0.45850   0.72063   0.00000  Uiso   1.00
H1785  H     0.35673   0.42549   0.67177   0.00000  Uiso   1.00
H1786  H     0.36913   0.48082   0.99979   0.00000  Uiso   1.00
N1787  N     0.57335   0.55102   0.96088   0.00000  Uiso   1.00
H1788  H     0.56671   0.56291   0.92807   0.00000  Uiso   1.00
C1789  C     0.62625   0.54604   0.97657   0.00000  Uiso   1.00
H1790  H     0.64708   0.54151   0.94604   0.00000  Uiso   1.00
H1791  H     0.63087   0.51917   0.66686   0.00000  Uiso   1.00
H1792  H     0.64327   0.57450   0.99492   0.00000  Uiso   1.00
F1793  F     0.43172   0.45030   0.94429   0.00000  Uiso   1.00
F1794  F     0.56829   0.54970   0.72237   0.00000  Uiso   1.00
C1795  C     0.83214   0.42081   0.83320   0.00000  Uiso   1.00
C1796  C     0.83454   0.57919   0.83346   0.00000  Uiso   1.00
C1797  C     0.73510   0.50082   0.82185   0.00000  Uiso   1.00
C1798  C     0.93156   0.49918   0.84481   0.00000  Uiso   1.00
C1799  C     0.68128   0.50698   0.81666   0.00000  Uiso   1.00
C1800  C     0.98538   0.49303   0.85001   0.00000  Uiso   1.00
C1801  C     0.86886   0.35771   0.81025   0.00000  Uiso   1.00
C1802  C     0.79782   0.64229   0.85642   0.00000  Uiso   1.00
C1803  C     0.87104   0.64827   0.81206   0.00000  Uiso   1.00
C1804  C     0.79564   0.35173   0.85461   0.00000  Uiso   1.00
C1805  C     0.83456   0.62386   0.83386   0.00000  Uiso   1.00
C1806  C     0.83212   0.37614   0.83281   0.00000  Uiso   1.00
C1807  C     0.79760   0.47579   0.68720   0.00000  Uiso   1.00
C1808  C     0.86907   0.52421   0.97947   0.00000  Uiso   1.00
C1809  C     0.79854   0.47575   0.97128   0.00000  Uiso   1.00
C1810  C     0.86813   0.52425   0.69539   0.00000  Uiso   1.00
Cu1811 Cu    0.83333   0.50001   0.88022   0.00000  Uiso   1.00
Cu1812 Cu    0.83333   0.49999   0.78645   0.00000  Uiso   1.00
N1813  N     0.83335   0.50001   0.95069   0.00000  Uiso   1.00
N1814  N     0.83332   0.49999   0.71597   0.00000  Uiso   1.00
O1815  O     0.83333   0.43989   0.87291   0.00000  Uiso   1.00
O1816  O     0.83334   0.56011   0.79375   0.00000  Uiso   1.00
O1817  O     0.83333   0.43988   0.79372   0.00000  Uiso   1.00
O1818  O     0.83334   0.56012   0.87294   0.00000  Uiso   1.00
O1819  O     0.75828   0.50000   0.86379   0.00000  Uiso   1.00
O1820  O     0.90839   0.50000   0.80288   0.00000  Uiso   1.00
O1821  O     0.75828   0.49999   0.78460   0.00000  Uiso   1.00
O1822  O     0.90839   0.50001   0.88207   0.00000  Uiso   1.00
N1823  N     0.99374   0.52889   0.77659   0.00000  Uiso   1.00
H1824  H     0.97682   0.50995   0.74984   0.00000  Uiso   1.00
C1825  C     0.69001   0.56454   0.76103   0.00000  Uiso   1.00
H1826  H     0.71415   0.55523   0.73446   0.00000  Uiso   1.00
H1827  H     0.71431   0.58005   0.79078   0.00000  Uiso   1.00
H1828  H     0.99726   0.58700   0.74476   0.00000  Uiso   1.00
N1829  N     0.67293   0.47113   0.89009   0.00000  Uiso   1.00
H1830  H     0.68987   0.49007   0.91682   0.00000  Uiso   1.00
C1831  C     0.97665   0.43549   0.90567   0.00000  Uiso   1.00
H1832  H     0.95254   0.44482   0.93227   0.00000  Uiso   1.00
H1833  H     0.66939   0.41302   0.92194   0.00000  Uiso   1.00
H1834  H     0.95231   0.41999   0.87594   0.00000  Uiso   1.00
N1835  N     0.90438   0.38250   0.78658   0.00000  Uiso   1.00
H1836  H     0.94153   0.37612   0.79590   0.00000  Uiso   1.00
C1837  C     0.89216   0.38370   0.73630   0.00000  Uiso   1.00
H1838  H     0.89627   0.35310   0.72073   0.00000  Uiso   1.00
H1839  H     0.91848   0.40699   0.72140   0.00000  Uiso   1.00
H1840  H     0.85269   0.39246   0.72676   0.00000  Uiso   1.00
N1841  N     0.76229   0.61750   0.88008   0.00000  Uiso   1.00
H1842  H     0.72515   0.62389   0.87075   0.00000  Uiso   1.00
C1843  C     0.77450   0.61630   0.93036   0.00000  Uiso   1.00
H1844  H     0.77039   0.64689   0.94593   0.00000  Uiso   1.00
H1845  H     0.81397   0.60754   0.93991   0.00000  Uiso   1.00
H1846  H     0.74818   0.59301   0.94525   0.00000  Uiso   1.00
N1847  N     0.91242   0.63070   0.79464   0.00000  Uiso   1.00
H1848  H     0.90279   0.60845   0.76944   0.00000  Uiso   1.00
C1849  C     0.95339   0.62129   0.82968   0.00000  Uiso   1.00
H1850  H     0.94940   0.58825   0.83957   0.00000  Uiso   1.00
H1851  H     0.95435   0.64062   0.86158   0.00000  Uiso   1.00
H1852  H     0.98973   0.62784   0.81494   0.00000  Uiso   1.00
N1853  N     0.75426   0.36930   0.87203   0.00000  Uiso   1.00
H1854  H     0.76390   0.39148   0.89730   0.00000  Uiso   1.00
C1855  C     0.71337   0.37883   0.83697   0.00000  Uiso   1.00
H1856  H     0.71751   0.41186   0.82708   0.00000  Uiso   1.00
H1857  H     0.67699   0.37238   0.85167   0.00000  Uiso   1.00
H1858  H     0.71236   0.35950   0.80507   0.00000  Uiso   1.00
N1859  N     0.75998   0.44898   0.70579   0.00000  Uiso   1.00
H1860  H     0.76662   0.43708   0.73860   0.00000  Uiso   1.00
C1861  C     0.70708   0.45396   0.69010   0.00000  Uiso   1.00
H1862  H     0.68625   0.45850   0.72063   0.00000  Uiso   1.00
H1863  H     0.69007   0.42549   0.67177   0.00000  Uiso   1.00
H1864  H     0.70246   0.48082   0.99979   0.00000  Uiso   1.00
N1865  N     0.90669   0.55102   0.96088   0.00000  Uiso   1.00
H1866  H     0.90005   0.56291   0.92807   0.00000  Uiso   1.00
C1867  C     0.95959   0.54604   0.97657   0.00000  Uiso   1.00
H1868  H     0.98042   0.54151   0.94604   0.00000  Uiso   1.00
H1869  H     0.96421   0.51917   0.66686   0.00000  Uiso   1.00
H1870  H     0.97660   0.57450   0.99492   0.00000  Uiso   1.00
F1871  F     0.76505   0.45030   0.94429   0.00000  Uiso   1.00
F1872  F     0.90162   0.54970   0.72237   0.00000  Uiso   1.00
C1873  C     0.16547   0.75415   0.83320   0.00000  Uiso   1.00
C1874  C     0.16787   0.91252   0.83346   0.00000  Uiso   1.00
C1875  C     0.06844   0.83416   0.82185   0.00000  Uiso   1.00
C1876  C     0.26490   0.83251   0.84481   0.00000  Uiso   1.00
C1877  C     0.01462   0.84031   0.81666   0.00000  Uiso   1.00
C1878  C     0.31872   0.82636   0.85001   0.00000  Uiso   1.00
C1879  C     0.20219   0.69105   0.81025   0.00000  Uiso   1.00
C1880  C     0.13115   0.97562   0.85642   0.00000  Uiso   1.00
C1881  C     0.20437   0.98160   0.81206   0.00000  Uiso   1.00
C1882  C     0.12897   0.68507   0.85461   0.00000  Uiso   1.00
C1883  C     0.16790   0.95719   0.83386   0.00000  Uiso   1.00
C1884  C     0.16545   0.70948   0.83281   0.00000  Uiso   1.00
C1885  C     0.13093   0.80912   0.68720   0.00000  Uiso   1.00
C1886  C     0.20240   0.85755   0.97947   0.00000  Uiso   1.00
C1887  C     0.13187   0.80908   0.97128   0.00000  Uiso   1.00
C1888  C     0.20146   0.85758   0.69539   0.00000  Uiso   1.00
Cu1889 Cu    0.16667   0.83334   0.88022   0.00000  Uiso   1.00
Cu1890 Cu    0.16667   0.83333   0.78645   0.00000  Uiso   1.00
N1891  N     0.16668   0.83334   0.95069   0.00000  Uiso   1.00
N1892  N     0.16665   0.83332   0.71597   0.00000  Uiso   1.00
O1893  O     0.16666   0.77322   0.87291   0.00000  Uiso   1.00
O1894  O     0.16667   0.89345   0.79375   0.00000  Uiso   1.00
O1895  O     0.16666   0.77321   0.79372   0.00000  Uiso   1.00
O1896  O     0.16667   0.89346   0.87294   0.00000  Uiso   1.00
O1897  O     0.09161   0.83334   0.86379   0.00000  Uiso   1.00
O1898  O     0.24172   0.83333   0.80288   0.00000  Uiso   1.00
O1899  O     0.09161   0.83333   0.78460   0.00000  Uiso   1.00
O1900  O     0.24172   0.83334   0.88207   0.00000  Uiso   1.00
N1901  N     0.32707   0.86222   0.77659   0.00000  Uiso   1.00
H1902  H     0.31015   0.84328   0.74984   0.00000  Uiso   1.00
C1903  C     0.02334   0.89787   0.76103   0.00000  Uiso   1.00
H1904  H     0.04748   0.88857   0.73446   0.00000  Uiso   1.00
H1905  H     0.04764   0.91338   0.79078   0.00000  Uiso   1.00
H1906  H     0.33060   0.92033   0.74476   0.00000  Uiso   1.00
N1907  N     0.00626   0.80446   0.89009   0.00000  Uiso   1.00
H1908  H     0.02321   0.82340   0.91682   0.00000  Uiso   1.00
C1909  C     0.30998   0.76883   0.90567   0.00000  Uiso   1.00
H1910  H     0.28587   0.77815   0.93227   0.00000  Uiso   1.00
H1911  H     0.00272   0.74636   0.92194   0.00000  Uiso   1.00
H1912  H     0.28564   0.75332   0.87594   0.00000  Uiso   1.00
N1913  N     0.23772   0.71584   0.78658   0.00000  Uiso   1.00
H1914  H     0.27486   0.70945   0.79590   0.00000  Uiso   1.00
C1915  C     0.22549   0.71704   0.73630   0.00000  Uiso   1.00
H1916  H     0.22961   0.68644   0.72073   0.00000  Uiso   1.00
H1917  H     0.25181   0.74032   0.72140   0.00000  Uiso   1.00
H1918  H     0.18602   0.72579   0.72676   0.00000  Uiso   1.00
N1919  N     0.09562   0.95083   0.88008   0.00000  Uiso   1.00
H1920  H     0.05848   0.95722   0.87075   0.00000  Uiso   1.00
C1921  C     0.10784   0.94963   0.93036   0.00000  Uiso   1.00
H1922  H     0.10372   0.98023   0.94593   0.00000  Uiso   1.00
H1923  H     0.14731   0.94087   0.93991   0.00000  Uiso   1.00
H1924  H     0.08151   0.92634   0.94525   0.00000  Uiso   1.00
N1925  N     0.24575   0.96403   0.79464   0.00000  Uiso   1.00
H1926  H     0.23612   0.94179   0.76944   0.00000  Uiso   1.00
C1927  C     0.28672   0.95462   0.82968   0.00000  Uiso   1.00
H1928  H     0.28273   0.92158   0.83957   0.00000  Uiso   1.00
H1929  H     0.28768   0.97395   0.86158   0.00000  Uiso   1.00
H1930  H     0.32306   0.96118   0.81494   0.00000  Uiso   1.00
N1931  N     0.08759   0.70263   0.87203   0.00000  Uiso   1.00
H1932  H     0.09723   0.72482   0.89730   0.00000  Uiso   1.00
C1933  C     0.04670   0.71216   0.83697   0.00000  Uiso   1.00
H1934  H     0.05084   0.74520   0.82708   0.00000  Uiso   1.00
H1935  H     0.01032   0.70571   0.85167   0.00000  Uiso   1.00
H1936  H     0.04569   0.69283   0.80507   0.00000  Uiso   1.00
N1937  N     0.09332   0.78231   0.70579   0.00000  Uiso   1.00
H1938  H     0.09996   0.77042   0.73860   0.00000  Uiso   1.00
C1939  C     0.04041   0.78729   0.69010   0.00000  Uiso   1.00
H1940  H     0.01959   0.79183   0.72063   0.00000  Uiso   1.00
H1941  H     0.02340   0.75882   0.67177   0.00000  Uiso   1.00
H1942  H     0.03579   0.81415   0.99979   0.00000  Uiso   1.00
N1943  N     0.24002   0.88435   0.96088   0.00000  Uiso   1.00
H1944  H     0.23338   0.89625   0.92807   0.00000  Uiso   1.00
C1945  C     0.29292   0.87937   0.97657   0.00000  Uiso   1.00
H1946  H     0.31375   0.87484   0.94604   0.00000  Uiso   1.00
H1947  H     0.29754   0.85250   0.66686   0.00000  Uiso   1.00
H1948  H     0.30993   0.90784   0.99492   0.00000  Uiso   1.00
F1949  F     0.09838   0.78363   0.94429   0.00000  Uiso   1.00
F1950  F     0.23496   0.88303   0.72237   0.00000  Uiso   1.00
C1951  C     0.49881   0.75415   0.83320   0.00000  Uiso   1.00
C1952  C     0.50120   0.91252   0.83346   0.00000  Uiso   1.00
C1953  C     0.40177   0.83416   0.82185   0.00000  Uiso   1.00
C1954  C     0.59823   0.83251   0.84481   0.00000  Uiso   1.00
C1955  C     0.34795   0.84031   0.81666   0.00000  Uiso   1.00
C1956  C     0.65205   0.82636   0.85001   0.00000  Uiso   1.00
C1957  C     0.53553   0.69105   0.81025   0.00000  Uiso   1.00
C1958  C     0.46448   0.97562   0.85642   0.00000  Uiso   1.00
C1959  C     0.53771   0.98160   0.81206   0.00000  Uiso   1.00
C1960  C     0.46231   0.68507   0.85461   0.00000  Uiso   1.00
C1961  C     0.50123   0.95719   0.83386   0.00000  Uiso   1.00
C1962  C     0.49878   0.70948   0.83281   0.00000  Uiso   1.00
C1963  C     0.46426   0.80912   0.68720   0.00000  Uiso   1.00
C1964  C     0.53574   0.85755   0.97947   0.00000  Uiso   1.00
C1965  C     0.46520   0.80908   0.97128   0.00000  Uiso   1.00
C1966  C     0.53480   0.85758   0.69539   0.00000  Uiso   1.00
Cu1967 Cu    0.50000   0.83334   0.88022   0.00000  Uiso   1.00
Cu1968 Cu    0.50000   0.83333   0.78645   0.00000  Uiso   1.00
N1969  N     0.50001   0.83334   0.95069   0.00000  Uiso   1.00
N1970  N     0.49999   0.83332   0.71597   0.00000  Uiso   1.00
O1971  O     0.50000   0.77322   0.87291   0.00000  Uiso   1.00
O1972  O     0.50000   0.89345   0.79375   0.00000  Uiso   1.00
O1973  O     0.50000   0.77321   0.79372   0.00000  Uiso   1.00
O1974  O     0.50000   0.89346   0.87294   0.00000  Uiso   1.00
O1975  O     0.42495   0.83334   0.86379   0.00000  Uiso   1.00
O1976  O     0.57505   0.83333   0.80288   0.00000  Uiso   1.00
O1977  O     0.42494   0.83333   0.78460   0.00000  Uiso   1.00
O1978  O     0.57506   0.83334   0.88207   0.00000  Uiso   1.00
N1979  N     0.66040   0.86222   0.77659   0.00000  Uiso   1.00
H1980  H     0.64348   0.84328   0.74984   0.00000  Uiso   1.00
C1981  C     0.35667   0.89787   0.76103   0.00000  Uiso   1.00
H1982  H     0.38082   0.88857   0.73446   0.00000  Uiso   1.00
H1983  H     0.38098   0.91338   0.79078   0.00000  Uiso   1.00
H1984  H     0.66393   0.92033   0.74476   0.00000  Uiso   1.00
N1985  N     0.33960   0.80446   0.89009   0.00000  Uiso   1.00
H1986  H     0.35654   0.82340   0.91682   0.00000  Uiso   1.00
C1987  C     0.64332   0.76883   0.90567   0.00000  Uiso   1.00
H1988  H     0.61921   0.77815   0.93227   0.00000  Uiso   1.00
H1989  H     0.33606   0.74636   0.92194   0.00000  Uiso   1.00
H1990  H     0.61898   0.75332   0.87594   0.00000  Uiso   1.00
N1991  N     0.57105   0.71584   0.78658   0.00000  Uiso   1.00
H1992  H     0.60819   0.70945   0.79590   0.00000  Uiso   1.00
C1993  C     0.55882   0.71704   0.73630   0.00000  Uiso   1.00
H1994  H     0.56294   0.68644   0.72073   0.00000  Uiso   1.00
H1995  H     0.58515   0.74032   0.72140   0.00000  Uiso   1.00
H1996  H     0.51935   0.72579   0.72676   0.00000  Uiso   1.00
N1997  N     0.42895   0.95083   0.88008   0.00000  Uiso   1.00
H1998  H     0.39181   0.95722   0.87075   0.00000  Uiso   1.00
C1999  C     0.44117   0.94963   0.93036   0.00000  Uiso   1.00
H2000  H     0.43706   0.98023   0.94593   0.00000  Uiso   1.00
H2001  H     0.48064   0.94087   0.93991   0.00000  Uiso   1.00
H2002  H     0.41484   0.92634   0.94525   0.00000  Uiso   1.00
N2003  N     0.57908   0.96403   0.79464   0.00000  Uiso   1.00
H2004  H     0.56945   0.94179   0.76944   0.00000  Uiso   1.00
C2005  C     0.62006   0.95462   0.82968   0.00000  Uiso   1.00
H2006  H     0.61606   0.92158   0.83957   0.00000  Uiso   1.00
H2007  H     0.62102   0.97395   0.86158   0.00000  Uiso   1.00
H2008  H     0.65639   0.96118   0.81494   0.00000  Uiso   1.00
N2009  N     0.42093   0.70263   0.87203   0.00000  Uiso   1.00
H2010  H     0.43057   0.72482   0.89730   0.00000  Uiso   1.00
C2011  C     0.38003   0.71216   0.83697   0.00000  Uiso   1.00
H2012  H     0.38418   0.74520   0.82708   0.00000  Uiso   1.00
H2013  H     0.34366   0.70571   0.85167   0.00000  Uiso   1.00
H2014  H     0.37902   0.69283   0.80507   0.00000  Uiso   1.00
N2015  N     0.42665   0.78231   0.70579   0.00000  Uiso   1.00
H2016  H     0.43329   0.77042   0.73860   0.00000  Uiso   1.00
C2017  C     0.37375   0.78729   0.69010   0.00000  Uiso   1.00
H2018  H     0.35292   0.79183   0.72063   0.00000  Uiso   1.00
H2019  H     0.35673   0.75882   0.67177   0.00000  Uiso   1.00
H2020  H     0.36913   0.81415   0.99979   0.00000  Uiso   1.00
N2021  N     0.57335   0.88435   0.96088   0.00000  Uiso   1.00
H2022  H     0.56671   0.89625   0.92807   0.00000  Uiso   1.00
C2023  C     0.62625   0.87937   0.97657   0.00000  Uiso   1.00
H2024  H     0.64708   0.87484   0.94604   0.00000  Uiso   1.00
H2025  H     0.63087   0.85250   0.66686   0.00000  Uiso   1.00
H2026  H     0.64327   0.90784   0.99492   0.00000  Uiso   1.00
F2027  F     0.43172   0.78363   0.94429   0.00000  Uiso   1.00
F2028  F     0.56829   0.88303   0.72237   0.00000  Uiso   1.00
C2029  C     0.83214   0.75415   0.83320   0.00000  Uiso   1.00
C2030  C     0.83454   0.91252   0.83346   0.00000  Uiso   1.00
C2031  C     0.73510   0.83416   0.82185   0.00000  Uiso   1.00
C2032  C     0.93156   0.83251   0.84481   0.00000  Uiso   1.00
C2033  C     0.68128   0.84031   0.81666   0.00000  Uiso   1.00
C2034  C     0.98538   0.82636   0.85001   0.00000  Uiso   1.00
C2035  C     0.86886   0.69105   0.81025   0.00000  Uiso   1.00
C2036  C     0.79782   0.97562   0.85642   0.00000  Uiso   1.00
C2037  C     0.87104   0.98160   0.81206   0.00000  Uiso   1.00
C2038  C     0.79564   0.68507   0.85461   0.00000  Uiso   1.00
C2039  C     0.83456   0.95719   0.83386   0.00000  Uiso   1.00
C2040  C     0.83212   0.70948   0.83281   0.00000  Uiso   1.00
C2041  C     0.79760   0.80912   0.68720   0.00000  Uiso   1.00
C2042  C     0.86907   0.85755   0.97947   0.00000  Uiso   1.00
C2043  C     0.79854   0.80908   0.97128   0.00000  Uiso   1.00
C2044  C     0.86813   0.85758   0.69539   0.00000  Uiso   1.00
Cu2045 Cu    0.83333   0.83334   0.88022   0.00000  Uiso   1.00
Cu2046 Cu    0.83333   0.83333   0.78645   0.00000  Uiso   1.00
N2047  N     0.83335   0.83334   0.95069   0.00000  Uiso   1.00
N2048  N     0.83332   0.83332   0.71597   0.00000  Uiso   1.00
O2049  O     0.83333   0.77322   0.87291   0.00000  Uiso   1.00
O2050  O     0.83334   0.89345   0.79375   0.00000  Uiso   1.00
O2051  O     0.83333   0.77321   0.79372   0.00000  Uiso   1.00
O2052  O     0.83334   0.89346   0.87294   0.00000  Uiso   1.00
O2053  O     0.75828   0.83334   0.86379   0.00000  Uiso   1.00
O2054  O     0.90839   0.83333   0.80288   0.00000  Uiso   1.00
O2055  O     0.75828   0.83333   0.78460   0.00000  Uiso   1.00
O2056  O     0.90839   0.83334   0.88207   0.00000  Uiso   1.00
N2057  N     0.99374   0.86222   0.77659   0.00000  Uiso   1.00
H2058  H     0.97682   0.84328   0.74984   0.00000  Uiso   1.00
C2059  C     0.69001   0.89787   0.76103   0.00000  Uiso   1.00
H2060  H     0.71415   0.88857   0.73446   0.00000  Uiso   1.00
H2061  H     0.71431   0.91338   0.79078   0.00000  Uiso   1.00
H2062  H     0.99726   0.92033   0.74476   0.00000  Uiso   1.00
N2063  N     0.67293   0.80446   0.89009   0.00000  Uiso   1.00
H2064  H     0.68987   0.82340   0.91682   0.00000  Uiso   1.00
C2065  C     0.97665   0.76883   0.90567   0.00000  Uiso   1.00
H2066  H     0.95254   0.77815   0.93227   0.00000  Uiso   1.00
H2067  H     0.66939   0.74636   0.92194   0.00000  Uiso   1.00
H2068  H     0.95231   0.75332   0.87594   0.00000  Uiso   1.00
N2069  N     0.90438   0.71584   0.78658   0.00000  Uiso   1.00
H2070  H     0.94153   0.70945   0.79590   0.00000  Uiso   1.00
C2071  C     0.89216   0.71704   0.73630   0.00000  Uiso   1.00
H2072  H     0.89627   0.68644   0.72073   0.00000  Uiso   1.00
H2073  H     0.91848   0.74032   0.72140   0.00000  Uiso   1.00
H2074  H     0.85269   0.72579   0.72676   0.00000  Uiso   1.00
N2075  N     0.76229   0.95083   0.88008   0.00000  Uiso   1.00
H2076  H     0.72515   0.95722   0.87075   0.00000  Uiso   1.00
C2077  C     0.77450   0.94963   0.93036   0.00000  Uiso   1.00
H2078  H     0.77039   0.98023   0.94593   0.00000  Uiso   1.00
H2079  H     0.81397   0.94087   0.93991   0.00000  Uiso   1.00
H2080  H     0.74818   0.92634   0.94525   0.00000  Uiso   1.00
N2081  N     0.91242   0.96403   0.79464   0.00000  Uiso   1.00
H2082  H     0.90279   0.94179   0.76944   0.00000  Uiso   1.00
C2083  C     0.95339   0.95462   0.82968   0.00000  Uiso   1.00
H2084  H     0.94940   0.92158   0.83957   0.00000  Uiso   1.00
H2085  H     0.95435   0.97395   0.86158   0.00000  Uiso   1.00
H2086  H     0.98973   0.96118   0.81494   0.00000  Uiso   1.00
N2087  N     0.75426   0.70263   0.87203   0.00000  Uiso   1.00
H2088  H     0.76390   0.72482   0.89730   0.00000  Uiso   1.00
C2089  C     0.71337   0.71216   0.83697   0.00000  Uiso   1.00
H2090  H     0.71751   0.74520   0.82708   0.00000  Uiso   1.00
H2091  H     0.67699   0.70571   0.85167   0.00000  Uiso   1.00
H2092  H     0.71236   0.69283   0.80507   0.00000  Uiso   1.00
N2093  N     0.75998   0.78231   0.70579   0.00000  Uiso   1.00
H2094  H     0.76662   0.77042   0.73860   0.00000  Uiso   1.00
C2095  C     0.70708   0.78729   0.69010   0.00000  Uiso   1.00
H2096  H     0.68625   0.79183   0.72063   0.00000  Uiso   1.00
H2097  H     0.69007   0.75882   0.67177   0.00000  Uiso   1.00
H2098  H     0.70246   0.81415   0.99979   0.00000  Uiso   1.00
N2099  N     0.90669   0.88435   0.96088   0.00000  Uiso   1.00
H2100  H     0.90005   0.89625   0.92807   0.00000  Uiso   1.00
C2101  C     0.95959   0.87937   0.97657   0.00000  Uiso   1.00
H2102  H     0.98042   0.87484   0.94604   0.00000  Uiso   1.00
H2103  H     0.96421   0.85250   0.66686   0.00000  Uiso   1.00
H2104  H     0.97660   0.90784   0.99492   0.00000  Uiso   1.00
F2105  F     0.76505   0.78363   0.94429   0.00000  Uiso   1.00
F2106  F     0.90162   0.88303   0.72237   0.00000  Uiso   1.00
loop_
_geom_bond_atom_site_label_1
_geom_bond_atom_site_label_2
_geom_bond_distance
_geom_bond_site_symmetry_2
_ccdc_geom_bond_type
C1     O21     1.300   .     A
C1     C12     1.452   .     S
C1     O23     1.294   .     A
C2     O22     1.300   .     A
C2     C11     1.452   .     S
C2     O24     1.294   .     A
C3     O25     1.292   .     A
C3     C5      1.450   .     S
C3     O27     1.299   .     A
C4     O28     1.299   .     A
C4     C6      1.450   .     S
C4     O26     1.292   .     A
C5     C162    1.359   1_455 S
C5     N185    1.431   1_455 S
C6     C83     1.359   .     S
C6     N113    1.431   .     S
C7     C12     1.405   .     A
C7     N41     1.426   .     S
C7     C477    1.396   1_545 S
C8     N47     1.426   .     S
C8     C11     1.405   .     A
C8     C244    1.396   .     S
C9     C11     1.409   .     A
C9     N53     1.418   .     S
C9     C241    1.396   .     S
C10    C12     1.409   .     A
C10    N59     1.418   .     S
C10    C476    1.396   1_545 S
C13    N65     1.426   .     S
C13    N20     1.386   .     A
C13    C1419   1.421   1_554 S
C14    N71     1.426   .     S
C14    N19     1.386   .     A
C14    C718    1.421   .     S
C15    N19     1.357   .     A
C15    F77     1.349   .     S
C15    C715    1.421   .     S
C16    F78     1.349   .     S
C16    N20     1.357   .     A
C16    C1418   1.421   1_554 S
Cu17   O24     1.964   .     S
Cu17   O21     1.967   .     S
Cu17   Cu18    2.700   .     S
Cu17   O28     1.990   .     S
Cu17   O25     1.996   .     S
Cu17   N19     2.029   .     S
Cu18   O26     1.996   .     S
Cu18   O23     1.964   .     S
Cu18   O22     1.967   .     S
Cu18   O27     1.990   .     S
Cu18   N20     2.029   .     S
N29    H30     1.029   .     S
N29    C83     1.431   .     S
N29    C109    1.450   .     S
C31    H32     1.111   .     S
C31    H33     1.111   .     S
C31    N185    1.450   1_455 S
C31    H190    1.108   1_455 S
H34    C109    1.108   .     S
N35    H36     1.029   .     S
N35    C162    1.431   1_455 S
N35    C193    1.450   1_455 S
C37    H40     1.111   .     S
C37    H38     1.111   .     S
C37    N113    1.450   .     S
C37    H117    1.108   .     S
H39    C193    1.108   1_455 S
N41    H42     1.029   .     S
N41    C43     1.448   .     S
C43    H44     1.111   .     S
C43    H45     1.111   .     S
C43    H46     1.111   .     S
N47    C49     1.448   .     S
N47    H48     1.029   .     S
C49    H50     1.111   .     S
C49    H51     1.111   .     S
C49    H52     1.111   .     S
N53    H54     1.025   .     S
N53    C55     1.445   .     S
C55    H56     1.110   .     S
C55    H57     1.113   .     S
C55    H58     1.105   .     S
N59    H60     1.025   .     S
N59    C61     1.445   .     S
C61    H63     1.105   .     S
C61    H64     1.113   .     S
C61    H62     1.110   .     S
N65    C67     1.447   .     S
N65    H66     1.020   .     S
C67    H68     1.108   .     S
C67    H69     1.108   .     S
C67    H1474   1.109   1_554 S
H70    C769    1.109   .     S
N71    C73     1.447   .     S
N71    H72     1.020   .     S
C73    H74     1.108   .     S
C73    H76     1.108   .     S
C73    H777    1.109   .     S
H75    C1477   1.109   1_554 S
C79    O99     1.300   .     A
C79    C90     1.452   .     S
C79    O101    1.294   .     A
C80    O100    1.300   .     A
C80    C89     1.452   .     S
C80    O102    1.294   .     A
C81    O103    1.292   .     A
C81    C83     1.450   .     S
C81    O105    1.299   .     A
C82    O106    1.299   .     A
C82    C84     1.450   .     S
C82    O104    1.292   .     A
C84    C161    1.359   .     S
C84    N191    1.431   .     S
C85    C90     1.405   .     A
C85    N119    1.426   .     S
C85    C555    1.396   1_545 S
C86    N125    1.426   .     S
C86    C89     1.405   .     A
C86    C322    1.396   .     S
C87    C89     1.409   .     A
C87    N131    1.418   .     S
C87    C319    1.396   .     S
C88    C90     1.409   .     A
C88    N137    1.418   .     S
C88    C554    1.396   1_545 S
C91    N143    1.426   .     S
C91    N98     1.386   .     A
C91    C1497   1.421   1_554 S
C92    N149    1.426   .     S
C92    N97     1.386   .     A
C92    C796    1.421   .     S
C93    N97     1.357   .     A
C93    F155    1.349   .     S
C93    C793    1.421   .     S
C94    F156    1.349   .     S
C94    N98     1.357   .     A
C94    C1496   1.421   1_554 S
Cu95   O102    1.964   .     S
Cu95   O99     1.967   .     S
Cu95   Cu96    2.700   .     S
Cu95   O106    1.990   .     S
Cu95   O103    1.996   .     S
Cu95   N97     2.029   .     S
Cu96   O104    1.996   .     S
Cu96   O101    1.964   .     S
Cu96   O100    1.967   .     S
Cu96   O105    1.990   .     S
Cu96   N98     2.029   .     S
N107   H108    1.029   .     S
N107   C161    1.431   .     S
N107   C187    1.450   .     S
C109   H110    1.111   .     S
C109   H111    1.111   .     S
H112   C187    1.108   .     S
N113   H114    1.029   .     S
C115   H118    1.111   .     S
C115   H116    1.111   .     S
C115   N191    1.450   .     S
C115   H195    1.108   .     S
N119   H120    1.029   .     S
N119   C121    1.448   .     S
C121   H122    1.111   .     S
C121   H123    1.111   .     S
C121   H124    1.111   .     S
N125   C127    1.448   .     S
N125   H126    1.029   .     S
C127   H128    1.111   .     S
C127   H129    1.111   .     S
C127   H130    1.111   .     S
N131   H132    1.025   .     S
N131   C133    1.445   .     S
C133   H134    1.110   .     S
C133   H135    1.113   .     S
C133   H136    1.105   .     S
N137   H138    1.025   .     S
N137   C139    1.445   .     S
C139   H141    1.105   .     S
C139   H142    1.113   .     S
C139   H140    1.110   .     S
N143   C145    1.447   .     S
N143   H144    1.020   .     S
C145   H146    1.108   .     S
C145   H147    1.108   .     S
C145   H1552   1.109   1_554 S
H148   C847    1.109   .     S
N149   C151    1.447   .     S
N149   H150    1.020   .     S
C151   H152    1.108   .     S
C151   H154    1.108   .     S
C151   H855    1.109   .     S
H153   C1555   1.109   1_554 S
C157   O177    1.300   .     A
C157   C168    1.452   .     S
C157   O179    1.294   .     A
C158   O178    1.300   .     A
C158   C167    1.452   .     S
C158   O180    1.294   .     A
C159   O181    1.292   .     A
C159   C161    1.450   .     S
C159   O183    1.299   .     A
C160   O184    1.299   .     A
C160   C162    1.450   .     S
C160   O182    1.292   .     A
C162   C5      1.359   1_655 S
C162   N35     1.431   1_655 S
C163   C168    1.405   .     A
C163   N197    1.426   .     S
C163   C633    1.396   1_545 S
C164   N203    1.426   .     S
C164   C167    1.405   .     A
C164   C400    1.396   .     S
C165   C167    1.409   .     A
C165   N209    1.418   .     S
C165   C397    1.396   .     S
C166   C168    1.409   .     A
C166   N215    1.418   .     S
C166   C632    1.396   1_545 S
C169   N221    1.426   .     S
C169   N176    1.386   .     A
C169   C1575   1.421   1_554 S
C170   N227    1.426   .     S
C170   N175    1.386   .     A
C170   C874    1.421   .     S
C171   N175    1.357   .     A
C171   F233    1.349   .     S
C171   C871    1.421   .     S
C172   F234    1.349   .     S
C172   N176    1.357   .     A
C172   C1574   1.421   1_554 S
Cu173  O180    1.964   .     S
Cu173  O177    1.967   .     S
Cu173  Cu174   2.700   .     S
Cu173  O184    1.990   .     S
Cu173  O181    1.996   .     S
Cu173  N175    2.029   .     S
Cu174  O182    1.996   .     S
Cu174  O179    1.964   .     S
Cu174  O178    1.967   .     S
Cu174  O183    1.990   .     S
Cu174  N176    2.029   .     S
N185   H186    1.029   .     S
N185   C5      1.431   1_655 S
N185   C31     1.450   1_655 S
C187   H188    1.111   .     S
C187   H189    1.111   .     S
H190   C31     1.108   1_655 S
N191   H192    1.029   .     S
C193   H196    1.111   .     S
C193   H194    1.111   .     S
C193   N35     1.450   1_655 S
C193   H39     1.108   1_655 S
N197   H198    1.029   .     S
N197   C199    1.448   .     S
C199   H200    1.111   .     S
C199   H201    1.111   .     S
C199   H202    1.111   .     S
N203   C205    1.448   .     S
N203   H204    1.029   .     S
C205   H206    1.111   .     S
C205   H207    1.111   .     S
C205   H208    1.111   .     S
N209   H210    1.025   .     S
N209   C211    1.445   .     S
C211   H212    1.110   .     S
C211   H213    1.113   .     S
C211   H214    1.105   .     S
N215   H216    1.025   .     S
N215   C217    1.445   .     S
C217   H219    1.105   .     S
C217   H220    1.113   .     S
C217   H218    1.110   .     S
N221   C223    1.447   .     S
N221   H222    1.020   .     S
C223   H224    1.108   .     S
C223   H225    1.108   .     S
C223   H1630   1.109   1_554 S
H226   C925    1.109   .     S
N227   C229    1.447   .     S
N227   H228    1.020   .     S
C229   H230    1.108   .     S
C229   H232    1.108   .     S
C229   H933    1.109   .     S
H231   C1633   1.109   1_554 S
C235   O255    1.300   .     A
C235   C246    1.452   .     S
C235   O257    1.294   .     A
C236   O256    1.300   .     A
C236   C245    1.452   .     S
C236   O258    1.294   .     A
C237   O259    1.292   .     A
C237   C239    1.450   .     S
C237   O261    1.299   .     A
C238   O262    1.299   .     A
C238   C240    1.450   .     S
C238   O260    1.292   .     A
C239   C396    1.359   1_455 S
C239   N419    1.431   1_455 S
C240   C317    1.359   .     S
C240   N347    1.431   .     S
C241   C246    1.405   .     A
C241   N275    1.426   .     S
C242   N281    1.426   .     S
C242   C245    1.405   .     A
C242   C478    1.396   .     S
C243   C245    1.409   .     A
C243   N287    1.418   .     S
C243   C475    1.396   .     S
C244   C246    1.409   .     A
C244   N293    1.418   .     S
C247   N299    1.426   .     S
C247   N254    1.386   .     A
C247   C1653   1.421   1_554 S
C248   N305    1.426   .     S
C248   N253    1.386   .     A
C248   C952    1.421   .     S
C249   N253    1.357   .     A
C249   F311    1.349   .     S
C249   C949    1.421   .     S
C250   F312    1.349   .     S
C250   N254    1.357   .     A
C250   C1652   1.421   1_554 S
Cu251  O258    1.964   .     S
Cu251  O255    1.967   .     S
Cu251  Cu252   2.700   .     S
Cu251  O262    1.990   .     S
Cu251  O259    1.996   .     S
Cu251  N253    2.029   .     S
Cu252  O260    1.996   .     S
Cu252  O257    1.964   .     S
Cu252  O256    1.967   .     S
Cu252  O261    1.990   .     S
Cu252  N254    2.029   .     S
N263   H264    1.029   .     S
N263   C317    1.431   .     S
N263   C343    1.450   .     S
C265   H266    1.111   .     S
C265   H267    1.111   .     S
C265   N419    1.450   1_455 S
C265   H424    1.108   1_455 S
H268   C343    1.108   .     S
N269   H270    1.029   .     S
N269   C396    1.431   1_455 S
N269   C427    1.450   1_455 S
C271   H274    1.111   .     S
C271   H272    1.111   .     S
C271   N347    1.450   .     S
C271   H351    1.108   .     S
H273   C427    1.108   1_455 S
N275   H276    1.029   .     S
N275   C277    1.448   .     S
C277   H278    1.111   .     S
C277   H279    1.111   .     S
C277   H280    1.111   .     S
N281   C283    1.448   .     S
N281   H282    1.029   .     S
C283   H284    1.111   .     S
C283   H285    1.111   .     S
C283   H286    1.111   .     S
N287   H288    1.025   .     S
N287   C289    1.445   .     S
C289   H290    1.110   .     S
C289   H291    1.113   .     S
C289   H292    1.105   .     S
N293   H294    1.025   .     S
N293   C295    1.445   .     S
C295   H297    1.105   .     S
C295   H298    1.113   .     S
C295   H296    1.110   .     S
N299   C301    1.447   .     S
N299   H300    1.020   .     S
C301   H302    1.108   .     S
C301   H303    1.108   .     S
C301   H1708   1.109   1_554 S
H304   C1003   1.109   .     S
N305   C307    1.447   .     S
N305   H306    1.020   .     S
C307   H308    1.108   .     S
C307   H310    1.108   .     S
C307   H1011   1.109   .     S
H309   C1711   1.109   1_554 S
C313   O333    1.300   .     A
C313   C324    1.452   .     S
C313   O335    1.294   .     A
C314   O334    1.300   .     A
C314   C323    1.452   .     S
C314   O336    1.294   .     A
C315   O337    1.292   .     A
C315   C317    1.450   .     S
C315   O339    1.299   .     A
C316   O340    1.299   .     A
C316   C318    1.450   .     S
C316   O338    1.292   .     A
C318   C395    1.359   .     S
C318   N425    1.431   .     S
C319   C324    1.405   .     A
C319   N353    1.426   .     S
C320   N359    1.426   .     S
C320   C323    1.405   .     A
C320   C556    1.396   .     S
C321   C323    1.409   .     A
C321   N365    1.418   .     S
C321   C553    1.396   .     S
C322   C324    1.409   .     A
C322   N371    1.418   .     S
C325   N377    1.426   .     S
C325   N332    1.386   .     A
C325   C1731   1.421   1_554 S
C326   N383    1.426   .     S
C326   N331    1.386   .     A
C326   C1030   1.421   .     S
C327   N331    1.357   .     A
C327   F389    1.349   .     S
C327   C1027   1.421   .     S
C328   F390    1.349   .     S
C328   N332    1.357   .     A
C328   C1730   1.421   1_554 S
Cu329  O336    1.964   .     S
Cu329  O333    1.967   .     S
Cu329  Cu330   2.700   .     S
Cu329  O340    1.990   .     S
Cu329  O337    1.996   .     S
Cu329  N331    2.029   .     S
Cu330  O338    1.996   .     S
Cu330  O335    1.964   .     S
Cu330  O334    1.967   .     S
Cu330  O339    1.990   .     S
Cu330  N332    2.029   .     S
N341   H342    1.029   .     S
N341   C395    1.431   .     S
N341   C421    1.450   .     S
C343   H344    1.111   .     S
C343   H345    1.111   .     S
H346   C421    1.108   .     S
N347   H348    1.029   .     S
C349   H352    1.111   .     S
C349   H350    1.111   .     S
C349   N425    1.450   .     S
C349   H429    1.108   .     S
N353   H354    1.029   .     S
N353   C355    1.448   .     S
C355   H356    1.111   .     S
C355   H357    1.111   .     S
C355   H358    1.111   .     S
N359   C361    1.448   .     S
N359   H360    1.029   .     S
C361   H362    1.111   .     S
C361   H363    1.111   .     S
C361   H364    1.111   .     S
N365   H366    1.025   .     S
N365   C367    1.445   .     S
C367   H368    1.110   .     S
C367   H369    1.113   .     S
C367   H370    1.105   .     S
N371   H372    1.025   .     S
N371   C373    1.445   .     S
C373   H375    1.105   .     S
C373   H376    1.113   .     S
C373   H374    1.110   .     S
N377   C379    1.447   .     S
N377   H378    1.020   .     S
C379   H380    1.108   .     S
C379   H381    1.108   .     S
C379   H1786   1.109   1_554 S
H382   C1081   1.109   .     S
N383   C385    1.447   .     S
N383   H384    1.020   .     S
C385   H386    1.108   .     S
C385   H388    1.108   .     S
C385   H1089   1.109   .     S
H387   C1789   1.109   1_554 S
C391   O411    1.300   .     A
C391   C402    1.452   .     S
C391   O413    1.294   .     A
C392   O412    1.300   .     A
C392   C401    1.452   .     S
C392   O414    1.294   .     A
C393   O415    1.292   .     A
C393   C395    1.450   .     S
C393   O417    1.299   .     A
C394   O418    1.299   .     A
C394   C396    1.450   .     S
C394   O416    1.292   .     A
C396   C239    1.359   1_655 S
C396   N269    1.431   1_655 S
C397   C402    1.405   .     A
C397   N431    1.426   .     S
C398   N437    1.426   .     S
C398   C401    1.405   .     A
C398   C634    1.396   .     S
C399   C401    1.409   .     A
C399   N443    1.418   .     S
C399   C631    1.396   .     S
C400   C402    1.409   .     A
C400   N449    1.418   .     S
C403   N455    1.426   .     S
C403   N410    1.386   .     A
C403   C1809   1.421   1_554 S
C404   N461    1.426   .     S
C404   N409    1.386   .     A
C404   C1108   1.421   .     S
C405   N409    1.357   .     A
C405   F467    1.349   .     S
C405   C1105   1.421   .     S
C406   F468    1.349   .     S
C406   N410    1.357   .     A
C406   C1808   1.421   1_554 S
Cu407  O414    1.964   .     S
Cu407  O411    1.967   .     S
Cu407  Cu408   2.700   .     S
Cu407  O418    1.990   .     S
Cu407  O415    1.996   .     S
Cu407  N409    2.029   .     S
Cu408  O416    1.996   .     S
Cu408  O413    1.964   .     S
Cu408  O412    1.967   .     S
Cu408  O417    1.990   .     S
Cu408  N410    2.029   .     S
N419   H420    1.029   .     S
N419   C239    1.431   1_655 S
N419   C265    1.450   1_655 S
C421   H422    1.111   .     S
C421   H423    1.111   .     S
H424   C265    1.108   1_655 S
N425   H426    1.029   .     S
C427   H430    1.111   .     S
C427   H428    1.111   .     S
C427   N269    1.450   1_655 S
C427   H273    1.108   1_655 S
N431   H432    1.029   .     S
N431   C433    1.448   .     S
C433   H434    1.111   .     S
C433   H435    1.111   .     S
C433   H436    1.111   .     S
N437   C439    1.448   .     S
N437   H438    1.029   .     S
C439   H440    1.111   .     S
C439   H441    1.111   .     S
C439   H442    1.111   .     S
N443   H444    1.025   .     S
N443   C445    1.445   .     S
C445   H446    1.110   .     S
C445   H447    1.113   .     S
C445   H448    1.105   .     S
N449   H450    1.025   .     S
N449   C451    1.445   .     S
C451   H453    1.105   .     S
C451   H454    1.113   .     S
C451   H452    1.110   .     S
N455   C457    1.447   .     S
N455   H456    1.020   .     S
C457   H458    1.108   .     S
C457   H459    1.108   .     S
C457   H1864   1.109   1_554 S
H460   C1159   1.109   .     S
N461   C463    1.447   .     S
N461   H462    1.020   .     S
C463   H464    1.108   .     S
C463   H466    1.108   .     S
C463   H1167   1.109   .     S
H465   C1867   1.109   1_554 S
C469   O489    1.300   .     A
C469   C480    1.452   .     S
C469   O491    1.294   .     A
C470   O490    1.300   .     A
C470   C479    1.452   .     S
C470   O492    1.294   .     A
C471   O493    1.292   .     A
C471   C473    1.450   .     S
C471   O495    1.299   .     A
C472   O496    1.299   .     A
C472   C474    1.450   .     S
C472   O494    1.292   .     A
C473   C630    1.359   1_455 S
C473   N653    1.431   1_455 S
C474   C551    1.359   .     S
C474   N581    1.431   .     S
C475   C480    1.405   .     A
C475   N509    1.426   .     S
C476   N515    1.426   .     S
C476   C479    1.405   .     A
C476   C10     1.396   1_565 S
C477   C479    1.409   .     A
C477   N521    1.418   .     S
C477   C7      1.396   1_565 S
C478   C480    1.409   .     A
C478   N527    1.418   .     S
C481   N533    1.426   .     S
C481   N488    1.386   .     A
C481   C1887   1.421   1_554 S
C482   N539    1.426   .     S
C482   N487    1.386   .     A
C482   C1186   1.421   .     S
C483   N487    1.357   .     A
C483   F545    1.349   .     S
C483   C1183   1.421   .     S
C484   F546    1.349   .     S
C484   N488    1.357   .     A
C484   C1886   1.421   1_554 S
Cu485  O492    1.964   .     S
Cu485  O489    1.967   .     S
Cu485  Cu486   2.700   .     S
Cu485  O496    1.990   .     S
Cu485  O493    1.996   .     S
Cu485  N487    2.029   .     S
Cu486  O494    1.996   .     S
Cu486  O491    1.964   .     S
Cu486  O490    1.967   .     S
Cu486  O495    1.990   .     S
Cu486  N488    2.029   .     S
N497   H498    1.029   .     S
N497   C551    1.431   .     S
N497   C577    1.450   .     S
C499   H500    1.111   .     S
C499   H501    1.111   .     S
C499   N653    1.450   1_455 S
C499   H658    1.108   1_455 S
H502   C577    1.108   .     S
N503   H504    1.029   .     S
N503   C630    1.431   1_455 S
N503   C661    1.450   1_455 S
C505   H508    1.111   .     S
C505   H506    1.111   .     S
C505   N581    1.450   .     S
C505   H585    1.108   .     S
H507   C661    1.108   1_455 S
N509   H510    1.029   .     S
N509   C511    1.448   .     S
C511   H512    1.111   .     S
C511   H513    1.111   .     S
C511   H514    1.111   .     S
N515   C517    1.448   .     S
N515   H516    1.029   .     S
C517   H518    1.111   .     S
C517   H519    1.111   .     S
C517   H520    1.111   .     S
N521   H522    1.025   .     S
N521   C523    1.445   .     S
C523   H524    1.110   .     S
C523   H525    1.113   .     S
C523   H526    1.105   .     S
N527   H528    1.025   .     S
N527   C529    1.445   .     S
C529   H531    1.105   .     S
C529   H532    1.113   .     S
C529   H530    1.110   .     S
N533   C535    1.447   .     S
N533   H534    1.020   .     S
C535   H536    1.108   .     S
C535   H537    1.108   .     S
C535   H1942   1.109   1_554 S
H538   C1237   1.109   .     S
N539   C541    1.447   .     S
N539   H540    1.020   .     S
C541   H542    1.108   .     S
C541   H544    1.108   .     S
C541   H1245   1.109   .     S
H543   C1945   1.109   1_554 S
C547   O567    1.300   .     A
C547   C558    1.452   .     S
C547   O569    1.294   .     A
C548   O568    1.300   .     A
C548   C557    1.452   .     S
C548   O570    1.294   .     A
C549   O571    1.292   .     A
C549   C551    1.450   .     S
C549   O573    1.299   .     A
C550   O574    1.299   .     A
C550   C552    1.450   .     S
C550   O572    1.292   .     A
C552   C629    1.359   .     S
C552   N659    1.431   .     S
C553   C558    1.405   .     A
C553   N587    1.426   .     S
C554   N593    1.426   .     S
C554   C557    1.405   .     A
C554   C88     1.396   1_565 S
C555   C557    1.409   .     A
C555   N599    1.418   .     S
C555   C85     1.396   1_565 S
C556   C558    1.409   .     A
C556   N605    1.418   .     S
C559   N611    1.426   .     S
C559   N566    1.386   .     A
C559   C1965   1.421   1_554 S
C560   N617    1.426   .     S
C560   N565    1.386   .     A
C560   C1264   1.421   .     S
C561   N565    1.357   .     A
C561   F623    1.349   .     S
C561   C1261   1.421   .     S
C562   F624    1.349   .     S
C562   N566    1.357   .     A
C562   C1964   1.421   1_554 S
Cu563  O570    1.964   .     S
Cu563  O567    1.967   .     S
Cu563  Cu564   2.700   .     S
Cu563  O574    1.990   .     S
Cu563  O571    1.996   .     S
Cu563  N565    2.029   .     S
Cu564  O572    1.996   .     S
Cu564  O569    1.964   .     S
Cu564  O568    1.967   .     S
Cu564  O573    1.990   .     S
Cu564  N566    2.029   .     S
N575   H576    1.029   .     S
N575   C629    1.431   .     S
N575   C655    1.450   .     S
C577   H578    1.111   .     S
C577   H579    1.111   .     S
H580   C655    1.108   .     S
N581   H582    1.029   .     S
C583   H586    1.111   .     S
C583   H584    1.111   .     S
C583   N659    1.450   .     S
C583   H663    1.108   .     S
N587   H588    1.029   .     S
N587   C589    1.448   .     S
C589   H590    1.111   .     S
C589   H591    1.111   .     S
C589   H592    1.111   .     S
N593   C595    1.448   .     S
N593   H594    1.029   .     S
C595   H596    1.111   .     S
C595   H597    1.111   .     S
C595   H598    1.111   .     S
N599   H600    1.025   .     S
N599   C601    1.445   .     S
C601   H602    1.110   .     S
C601   H603    1.113   .     S
C601   H604    1.105   .     S
N605   H606    1.025   .     S
N605   C607    1.445   .     S
C607   H609    1.105   .     S
C607   H610    1.113   .     S
C607   H608    1.110   .     S
N611   C613    1.447   .     S
N611   H612    1.020   .     S
C613   H614    1.108   .     S
C613   H615    1.108   .     S
C613   H2020   1.109   1_554 S
H616   C1315   1.109   .     S
N617   C619    1.447   .     S
N617   H618    1.020   .     S
C619   H620    1.108   .     S
C619   H622    1.108   .     S
C619   H1323   1.109   .     S
H621   C2023   1.109   1_554 S
C625   O645    1.300   .     A
C625   C636    1.452   .     S
C625   O647    1.294   .     A
C626   O646    1.300   .     A
C626   C635    1.452   .     S
C626   O648    1.294   .     A
C627   O649    1.292   .     A
C627   C629    1.450   .     S
C627   O651    1.299   .     A
C628   O652    1.299   .     A
C628   C630    1.450   .     S
C628   O650    1.292   .     A
C630   C473    1.359   1_655 S
C630   N503    1.431   1_655 S
C631   C636    1.405   .     A
C631   N665    1.426   .     S
C632   N671    1.426   .     S
C632   C635    1.405   .     A
C632   C166    1.396   1_565 S
C633   C635    1.409   .     A
C633   N677    1.418   .     S
C633   C163    1.396   1_565 S
C634   C636    1.409   .     A
C634   N683    1.418   .     S
C637   N689    1.426   .     S
C637   N644    1.386   .     A
C637   C2043   1.421   1_554 S
C638   N695    1.426   .     S
C638   N643    1.386   .     A
C638   C1342   1.421   .     S
C639   N643    1.357   .     A
C639   F701    1.349   .     S
C639   C1339   1.421   .     S
C640   F702    1.349   .     S
C640   N644    1.357   .     A
C640   C2042   1.421   1_554 S
Cu641  O648    1.964   .     S
Cu641  O645    1.967   .     S
Cu641  Cu642   2.700   .     S
Cu641  O652    1.990   .     S
Cu641  O649    1.996   .     S
Cu641  N643    2.029   .     S
Cu642  O650    1.996   .     S
Cu642  O647    1.964   .     S
Cu642  O646    1.967   .     S
Cu642  O651    1.990   .     S
Cu642  N644    2.029   .     S
N653   H654    1.029   .     S
N653   C473    1.431   1_655 S
N653   C499    1.450   1_655 S
C655   H656    1.111   .     S
C655   H657    1.111   .     S
H658   C499    1.108   1_655 S
N659   H660    1.029   .     S
C661   H664    1.111   .     S
C661   H662    1.111   .     S
C661   N503    1.450   1_655 S
C661   H507    1.108   1_655 S
N665   H666    1.029   .     S
N665   C667    1.448   .     S
C667   H668    1.111   .     S
C667   H669    1.111   .     S
C667   H670    1.111   .     S
N671   C673    1.448   .     S
N671   H672    1.029   .     S
C673   H674    1.111   .     S
C673   H675    1.111   .     S
C673   H676    1.111   .     S
N677   H678    1.025   .     S
N677   C679    1.445   .     S
C679   H680    1.110   .     S
C679   H681    1.113   .     S
C679   H682    1.105   .     S
N683   H684    1.025   .     S
N683   C685    1.445   .     S
C685   H687    1.105   .     S
C685   H688    1.113   .     S
C685   H686    1.110   .     S
N689   C691    1.447   .     S
N689   H690    1.020   .     S
C691   H692    1.108   .     S
C691   H693    1.108   .     S
C691   H2098   1.109   1_554 S
H694   C1393   1.109   .     S
N695   C697    1.447   .     S
N695   H696    1.020   .     S
C697   H698    1.108   .     S
C697   H700    1.108   .     S
C697   H1401   1.109   .     S
H699   C2101   1.109   1_554 S
C703   O723    1.300   .     A
C703   C714    1.452   .     S
C703   O725    1.294   .     A
C704   O724    1.300   .     A
C704   C713    1.452   .     S
C704   O726    1.294   .     A
C705   O727    1.292   .     A
C705   C707    1.450   .     S
C705   O729    1.299   .     A
C706   O730    1.299   .     A
C706   C708    1.450   .     S
C706   O728    1.292   .     A
C707   C864    1.359   1_455 S
C707   N887    1.431   1_455 S
C708   C785    1.359   .     S
C708   N815    1.431   .     S
C709   C714    1.405   .     A
C709   N743    1.426   .     S
C709   C1179   1.396   1_545 S
C710   N749    1.426   .     S
C710   C713    1.405   .     A
C710   C946    1.396   .     S
C711   C713    1.409   .     A
C711   N755    1.418   .     S
C711   C943    1.396   .     S
C712   C714    1.409   .     A
C712   N761    1.418   .     S
C712   C1178   1.396   1_545 S
C715   N767    1.426   .     S
C715   N722    1.386   .     A
C716   N773    1.426   .     S
C716   N721    1.386   .     A
C716   C1420   1.421   .     S
C717   N721    1.357   .     A
C717   F779    1.349   .     S
C717   C1417   1.421   .     S
C718   F780    1.349   .     S
C718   N722    1.357   .     A
Cu719  O726    1.964   .     S
Cu719  O723    1.967   .     S
Cu719  Cu720   2.700   .     S
Cu719  O730    1.990   .     S
Cu719  O727    1.996   .     S
Cu719  N721    2.029   .     S
Cu720  O728    1.996   .     S
Cu720  O725    1.964   .     S
Cu720  O724    1.967   .     S
Cu720  O729    1.990   .     S
Cu720  N722    2.029   .     S
N731   H732    1.029   .     S
N731   C785    1.431   .     S
N731   C811    1.450   .     S
C733   H734    1.111   .     S
C733   H735    1.111   .     S
C733   N887    1.450   1_455 S
C733   H892    1.108   1_455 S
H736   C811    1.108   .     S
N737   H738    1.029   .     S
N737   C864    1.431   1_455 S
N737   C895    1.450   1_455 S
C739   H742    1.111   .     S
C739   H740    1.111   .     S
C739   N815    1.450   .     S
C739   H819    1.108   .     S
H741   C895    1.108   1_455 S
N743   H744    1.029   .     S
N743   C745    1.448   .     S
C745   H746    1.111   .     S
C745   H747    1.111   .     S
C745   H748    1.111   .     S
N749   C751    1.448   .     S
N749   H750    1.029   .     S
C751   H752    1.111   .     S
C751   H753    1.111   .     S
C751   H754    1.111   .     S
N755   H756    1.025   .     S
N755   C757    1.445   .     S
C757   H758    1.110   .     S
C757   H759    1.113   .     S
C757   H760    1.105   .     S
N761   H762    1.025   .     S
N761   C763    1.445   .     S
C763   H765    1.105   .     S
C763   H766    1.113   .     S
C763   H764    1.110   .     S
N767   C769    1.447   .     S
N767   H768    1.020   .     S
C769   H770    1.108   .     S
C769   H771    1.108   .     S
H772   C1471   1.109   .     S
N773   C775    1.447   .     S
N773   H774    1.020   .     S
C775   H776    1.108   .     S
C775   H778    1.108   .     S
C775   H1479   1.109   .     S
C781   O801    1.300   .     A
C781   C792    1.452   .     S
C781   O803    1.294   .     A
C782   O802    1.300   .     A
C782   C791    1.452   .     S
C782   O804    1.294   .     A
C783   O805    1.292   .     A
C783   C785    1.450   .     S
C783   O807    1.299   .     A
C784   O808    1.299   .     A
C784   C786    1.450   .     S
C784   O806    1.292   .     A
C786   C863    1.359   .     S
C786   N893    1.431   .     S
C787   C792    1.405   .     A
C787   N821    1.426   .     S
C787   C1257   1.396   1_545 S
C788   N827    1.426   .     S
C788   C791    1.405   .     A
C788   C1024   1.396   .     S
C789   C791    1.409   .     A
C789   N833    1.418   .     S
C789   C1021   1.396   .     S
C790   C792    1.409   .     A
C790   N839    1.418   .     S
C790   C1256   1.396   1_545 S
C793   N845    1.426   .     S
C793   N800    1.386   .     A
C794   N851    1.426   .     S
C794   N799    1.386   .     A
C794   C1498   1.421   .     S
C795   N799    1.357   .     A
C795   F857    1.349   .     S
C795   C1495   1.421   .     S
C796   F858    1.349   .     S
C796   N800    1.357   .     A
Cu797  O804    1.964   .     S
Cu797  O801    1.967   .     S
Cu797  Cu798   2.700   .     S
Cu797  O808    1.990   .     S
Cu797  O805    1.996   .     S
Cu797  N799    2.029   .     S
Cu798  O806    1.996   .     S
Cu798  O803    1.964   .     S
Cu798  O802    1.967   .     S
Cu798  O807    1.990   .     S
Cu798  N800    2.029   .     S
N809   H810    1.029   .     S
N809   C863    1.431   .     S
N809   C889    1.450   .     S
C811   H812    1.111   .     S
C811   H813    1.111   .     S
H814   C889    1.108   .     S
N815   H816    1.029   .     S
C817   H820    1.111   .     S
C817   H818    1.111   .     S
C817   N893    1.450   .     S
C817   H897    1.108   .     S
N821   H822    1.029   .     S
N821   C823    1.448   .     S
C823   H824    1.111   .     S
C823   H825    1.111   .     S
C823   H826    1.111   .     S
N827   C829    1.448   .     S
N827   H828    1.029   .     S
C829   H830    1.111   .     S
C829   H831    1.111   .     S
C829   H832    1.111   .     S
N833   H834    1.025   .     S
N833   C835    1.445   .     S
C835   H836    1.110   .     S
C835   H837    1.113   .     S
C835   H838    1.105   .     S
N839   H840    1.025   .     S
N839   C841    1.445   .     S
C841   H843    1.105   .     S
C841   H844    1.113   .     S
C841   H842    1.110   .     S
N845   C847    1.447   .     S
N845   H846    1.020   .     S
C847   H848    1.108   .     S
C847   H849    1.108   .     S
H850   C1549   1.109   .     S
N851   C853    1.447   .     S
N851   H852    1.020   .     S
C853   H854    1.108   .     S
C853   H856    1.108   .     S
C853   H1557   1.109   .     S
C859   O879    1.300   .     A
C859   C870    1.452   .     S
C859   O881    1.294   .     A
C860   O880    1.300   .     A
C860   C869    1.452   .     S
C860   O882    1.294   .     A
C861   O883    1.292   .     A
C861   C863    1.450   .     S
C861   O885    1.299   .     A
C862   O886    1.299   .     A
C862   C864    1.450   .     S
C862   O884    1.292   .     A
C864   C707    1.359   1_655 S
C864   N737    1.431   1_655 S
C865   C870    1.405   .     A
C865   N899    1.426   .     S
C865   C1335   1.396   1_545 S
C866   N905    1.426   .     S
C866   C869    1.405   .     A
C866   C1102   1.396   .     S
C867   C869    1.409   .     A
C867   N911    1.418   .     S
C867   C1099   1.396   .     S
C868   C870    1.409   .     A
C868   N917    1.418   .     S
C868   C1334   1.396   1_545 S
C871   N923    1.426   .     S
C871   N878    1.386   .     A
C872   N929    1.426   .     S
C872   N877    1.386   .     A
C872   C1576   1.421   .     S
C873   N877    1.357   .     A
C873   F935    1.349   .     S
C873   C1573   1.421   .     S
C874   F936    1.349   .     S
C874   N878    1.357   .     A
Cu875  O882    1.964   .     S
Cu875  O879    1.967   .     S
Cu875  Cu876   2.700   .     S
Cu875  O886    1.990   .     S
Cu875  O883    1.996   .     S
Cu875  N877    2.029   .     S
Cu876  O884    1.996   .     S
Cu876  O881    1.964   .     S
Cu876  O880    1.967   .     S
Cu876  O885    1.990   .     S
Cu876  N878    2.029   .     S
N887   H888    1.029   .     S
N887   C707    1.431   1_655 S
N887   C733    1.450   1_655 S
C889   H890    1.111   .     S
C889   H891    1.111   .     S
H892   C733    1.108   1_655 S
N893   H894    1.029   .     S
C895   H898    1.111   .     S
C895   H896    1.111   .     S
C895   N737    1.450   1_655 S
C895   H741    1.108   1_655 S
N899   H900    1.029   .     S
N899   C901    1.448   .     S
C901   H902    1.111   .     S
C901   H903    1.111   .     S
C901   H904    1.111   .     S
N905   C907    1.448   .     S
N905   H906    1.029   .     S
C907   H908    1.111   .     S
C907   H909    1.111   .     S
C907   H910    1.111   .     S
N911   H912    1.025   .     S
N911   C913    1.445   .     S
C913   H914    1.110   .     S
C913   H915    1.113   .     S
C913   H916    1.105   .     S
N917   H918    1.025   .     S
N917   C919    1.445   .     S
C919   H921    1.105   .     S
C919   H922    1.113   .     S
C919   H920    1.110   .     S
N923   C925    1.447   .     S
N923   H924    1.020   .     S
C925   H926    1.108   .     S
C925   H927    1.108   .     S
H928   C1627   1.109   .     S
N929   C931    1.447   .     S
N929   H930    1.020   .     S
C931   H932    1.108   .     S
C931   H934    1.108   .     S
C931   H1635   1.109   .     S
C937   O957    1.300   .     A
C937   C948    1.452   .     S
C937   O959    1.294   .     A
C938   O958    1.300   .     A
C938   C947    1.452   .     S
C938   O960    1.294   .     A
C939   O961    1.292   .     A
C939   C941    1.450   .     S
C939   O963    1.299   .     A
C940   O964    1.299   .     A
C940   C942    1.450   .     S
C940   O962    1.292   .     A
C941   C1098   1.359   1_455 S
C941   N1121   1.431   1_455 S
C942   C1019   1.359   .     S
C942   N1049   1.431   .     S
C943   C948    1.405   .     A
C943   N977    1.426   .     S
C944   N983    1.426   .     S
C944   C947    1.405   .     A
C944   C1180   1.396   .     S
C945   C947    1.409   .     A
C945   N989    1.418   .     S
C945   C1177   1.396   .     S
C946   C948    1.409   .     A
C946   N995    1.418   .     S
C949   N1001   1.426   .     S
C949   N956    1.386   .     A
C950   N1007   1.426   .     S
C950   N955    1.386   .     A
C950   C1654   1.421   .     S
C951   N955    1.357   .     A
C951   F1013   1.349   .     S
C951   C1651   1.421   .     S
C952   F1014   1.349   .     S
C952   N956    1.357   .     A
Cu953  O960    1.964   .     S
Cu953  O957    1.967   .     S
Cu953  Cu954   2.700   .     S
Cu953  O964    1.990   .     S
Cu953  O961    1.996   .     S
Cu953  N955    2.029   .     S
Cu954  O962    1.996   .     S
Cu954  O959    1.964   .     S
Cu954  O958    1.967   .     S
Cu954  O963    1.990   .     S
Cu954  N956    2.029   .     S
N965   H966    1.029   .     S
N965   C1019   1.431   .     S
N965   C1045   1.450   .     S
C967   H968    1.111   .     S
C967   H969    1.111   .     S
C967   N1121   1.450   1_455 S
C967   H1126   1.108   1_455 S
H970   C1045   1.108   .     S
N971   H972    1.029   .     S
N971   C1098   1.431   1_455 S
N971   C1129   1.450   1_455 S
C973   H976    1.111   .     S
C973   H974    1.111   .     S
C973   N1049   1.450   .     S
C973   H1053   1.108   .     S
H975   C1129   1.108   1_455 S
N977   H978    1.029   .     S
N977   C979    1.448   .     S
C979   H980    1.111   .     S
C979   H981    1.111   .     S
C979   H982    1.111   .     S
N983   C985    1.448   .     S
N983   H984    1.029   .     S
C985   H986    1.111   .     S
C985   H987    1.111   .     S
C985   H988    1.111   .     S
N989   H990    1.025   .     S
N989   C991    1.445   .     S
C991   H992    1.110   .     S
C991   H993    1.113   .     S
C991   H994    1.105   .     S
N995   H996    1.025   .     S
N995   C997    1.445   .     S
C997   H999    1.105   .     S
C997   H1000   1.113   .     S
C997   H998    1.110   .     S
N1001  C1003   1.447   .     S
N1001  H1002   1.020   .     S
C1003  H1004   1.108   .     S
C1003  H1005   1.108   .     S
H1006  C1705   1.109   .     S
N1007  C1009   1.447   .     S
N1007  H1008   1.020   .     S
C1009  H1010   1.108   .     S
C1009  H1012   1.108   .     S
C1009  H1713   1.109   .     S
C1015  O1035   1.300   .     A
C1015  C1026   1.452   .     S
C1015  O1037   1.294   .     A
C1016  O1036   1.300   .     A
C1016  C1025   1.452   .     S
C1016  O1038   1.294   .     A
C1017  O1039   1.292   .     A
C1017  C1019   1.450   .     S
C1017  O1041   1.299   .     A
C1018  O1042   1.299   .     A
C1018  C1020   1.450   .     S
C1018  O1040   1.292   .     A
C1020  C1097   1.359   .     S
C1020  N1127   1.431   .     S
C1021  C1026   1.405   .     A
C1021  N1055   1.426   .     S
C1022  N1061   1.426   .     S
C1022  C1025   1.405   .     A
C1022  C1258   1.396   .     S
C1023  C1025   1.409   .     A
C1023  N1067   1.418   .     S
C1023  C1255   1.396   .     S
C1024  C1026   1.409   .     A
C1024  N1073   1.418   .     S
C1027  N1079   1.426   .     S
C1027  N1034   1.386   .     A
C1028  N1085   1.426   .     S
C1028  N1033   1.386   .     A
C1028  C1732   1.421   .     S
C1029  N1033   1.357   .     A
C1029  F1091   1.349   .     S
C1029  C1729   1.421   .     S
C1030  F1092   1.349   .     S
C1030  N1034   1.357   .     A
Cu1031 O1038   1.964   .     S
Cu1031 O1035   1.967   .     S
Cu1031 Cu1032  2.700   .     S
Cu1031 O1042   1.990   .     S
Cu1031 O1039   1.996   .     S
Cu1031 N1033   2.029   .     S
Cu1032 O1040   1.996   .     S
Cu1032 O1037   1.964   .     S
Cu1032 O1036   1.967   .     S
Cu1032 O1041   1.990   .     S
Cu1032 N1034   2.029   .     S
N1043  H1044   1.029   .     S
N1043  C1097   1.431   .     S
N1043  C1123   1.450   .     S
C1045  H1046   1.111   .     S
C1045  H1047   1.111   .     S
H1048  C1123   1.108   .     S
N1049  H1050   1.029   .     S
C1051  H1054   1.111   .     S
C1051  H1052   1.111   .     S
C1051  N1127   1.450   .     S
C1051  H1131   1.108   .     S
N1055  H1056   1.029   .     S
N1055  C1057   1.448   .     S
C1057  H1058   1.111   .     S
C1057  H1059   1.111   .     S
C1057  H1060   1.111   .     S
N1061  C1063   1.448   .     S
N1061  H1062   1.029   .     S
C1063  H1064   1.111   .     S
C1063  H1065   1.111   .     S
C1063  H1066   1.111   .     S
N1067  H1068   1.025   .     S
N1067  C1069   1.445   .     S
C1069  H1070   1.110   .     S
C1069  H1071   1.113   .     S
C1069  H1072   1.105   .     S
N1073  H1074   1.025   .     S
N1073  C1075   1.445   .     S
C1075  H1077   1.105   .     S
C1075  H1078   1.113   .     S
C1075  H1076   1.110   .     S
N1079  C1081   1.447   .     S
N1079  H1080   1.020   .     S
C1081  H1082   1.108   .     S
C1081  H1083   1.108   .     S
H1084  C1783   1.109   .     S
N1085  C1087   1.447   .     S
N1085  H1086   1.020   .     S
C1087  H1088   1.108   .     S
C1087  H1090   1.108   .     S
C1087  H1791   1.109   .     S
C1093  O1113   1.300   .     A
C1093  C1104   1.452   .     S
C1093  O1115   1.294   .     A
C1094  O1114   1.300   .     A
C1094  C1103   1.452   .     S
C1094  O1116   1.294   .     A
C1095  O1117   1.292   .     A
C1095  C1097   1.450   .     S
C1095  O1119   1.299   .     A
C1096  O1120   1.299   .     A
C1096  C1098   1.450   .     S
C1096  O1118   1.292   .     A
C1098  C941    1.359   1_655 S
C1098  N971    1.431   1_655 S
C1099  C1104   1.405   .     A
C1099  N1133   1.426   .     S
C1100  N1139   1.426   .     S
C1100  C1103   1.405   .     A
C1100  C1336   1.396   .     S
C1101  C1103   1.409   .     A
C1101  N1145   1.418   .     S
C1101  C1333   1.396   .     S
C1102  C1104   1.409   .     A
C1102  N1151   1.418   .     S
C1105  N1157   1.426   .     S
C1105  N1112   1.386   .     A
C1106  N1163   1.426   .     S
C1106  N1111   1.386   .     A
C1106  C1810   1.421   .     S
C1107  N1111   1.357   .     A
C1107  F1169   1.349   .     S
C1107  C1807   1.421   .     S
C1108  F1170   1.349   .     S
C1108  N1112   1.357   .     A
Cu1109 O1116   1.964   .     S
Cu1109 O1113   1.967   .     S
Cu1109 Cu1110  2.700   .     S
Cu1109 O1120   1.990   .     S
Cu1109 O1117   1.996   .     S
Cu1109 N1111   2.029   .     S
Cu1110 O1118   1.996   .     S
Cu1110 O1115   1.964   .     S
Cu1110 O1114   1.967   .     S
Cu1110 O1119   1.990   .     S
Cu1110 N1112   2.029   .     S
N1121  H1122   1.029   .     S
N1121  C941    1.431   1_655 S
N1121  C967    1.450   1_655 S
C1123  H1124   1.111   .     S
C1123  H1125   1.111   .     S
H1126  C967    1.108   1_655 S
N1127  H1128   1.029   .     S
C1129  H1132   1.111   .     S
C1129  H1130   1.111   .     S
C1129  N971    1.450   1_655 S
C1129  H975    1.108   1_655 S
N1133  H1134   1.029   .     S
N1133  C1135   1.448   .     S
C1135  H1136   1.111   .     S
C1135  H1137   1.111   .     S
C1135  H1138   1.111   .     S
N1139  C1141   1.448   .     S
N1139  H1140   1.029   .     S
C1141  H1142   1.111   .     S
C1141  H1143   1.111   .     S
C1141  H1144   1.111   .     S
N1145  H1146   1.025   .     S
N1145  C1147   1.445   .     S
C1147  H1148   1.110   .     S
C1147  H1149   1.113   .     S
C1147  H1150   1.105   .     S
N1151  H1152   1.025   .     S
N1151  C1153   1.445   .     S
C1153  H1155   1.105   .     S
C1153  H1156   1.113   .     S
C1153  H1154   1.110   .     S
N1157  C1159   1.447   .     S
N1157  H1158   1.020   .     S
C1159  H1160   1.108   .     S
C1159  H1161   1.108   .     S
H1162  C1861   1.109   .     S
N1163  C1165   1.447   .     S
N1163  H1164   1.020   .     S
C1165  H1166   1.108   .     S
C1165  H1168   1.108   .     S
C1165  H1869   1.109   .     S
C1171  O1191   1.300   .     A
C1171  C1182   1.452   .     S
C1171  O1193   1.294   .     A
C1172  O1192   1.300   .     A
C1172  C1181   1.452   .     S
C1172  O1194   1.294   .     A
C1173  O1195   1.292   .     A
C1173  C1175   1.450   .     S
C1173  O1197   1.299   .     A
C1174  O1198   1.299   .     A
C1174  C1176   1.450   .     S
C1174  O1196   1.292   .     A
C1175  C1332   1.359   1_455 S
C1175  N1355   1.431   1_455 S
C1176  C1253   1.359   .     S
C1176  N1283   1.431   .     S
C1177  C1182   1.405   .     A
C1177  N1211   1.426   .     S
C1178  N1217   1.426   .     S
C1178  C1181   1.405   .     A
C1178  C712    1.396   1_565 S
C1179  C1181   1.409   .     A
C1179  N1223   1.418   .     S
C1179  C709    1.396   1_565 S
C1180  C1182   1.409   .     A
C1180  N1229   1.418   .     S
C1183  N1235   1.426   .     S
C1183  N1190   1.386   .     A
C1184  N1241   1.426   .     S
C1184  N1189   1.386   .     A
C1184  C1888   1.421   .     S
C1185  N1189   1.357   .     A
C1185  F1247   1.349   .     S
C1185  C1885   1.421   .     S
C1186  F1248   1.349   .     S
C1186  N1190   1.357   .     A
Cu1187 O1194   1.964   .     S
Cu1187 O1191   1.967   .     S
Cu1187 Cu1188  2.700   .     S
Cu1187 O1198   1.990   .     S
Cu1187 O1195   1.996   .     S
Cu1187 N1189   2.029   .     S
Cu1188 O1196   1.996   .     S
Cu1188 O1193   1.964   .     S
Cu1188 O1192   1.967   .     S
Cu1188 O1197   1.990   .     S
Cu1188 N1190   2.029   .     S
N1199  H1200   1.029   .     S
N1199  C1253   1.431   .     S
N1199  C1279   1.450   .     S
C1201  H1202   1.111   .     S
C1201  H1203   1.111   .     S
C1201  N1355   1.450   1_455 S
C1201  H1360   1.108   1_455 S
H1204  C1279   1.108   .     S
N1205  H1206   1.029   .     S
N1205  C1332   1.431   1_455 S
N1205  C1363   1.450   1_455 S
C1207  H1210   1.111   .     S
C1207  H1208   1.111   .     S
C1207  N1283   1.450   .     S
C1207  H1287   1.108   .     S
H1209  C1363   1.108   1_455 S
N1211  H1212   1.029   .     S
N1211  C1213   1.448   .     S
C1213  H1214   1.111   .     S
C1213  H1215   1.111   .     S
C1213  H1216   1.111   .     S
N1217  C1219   1.448   .     S
N1217  H1218   1.029   .     S
C1219  H1220   1.111   .     S
C1219  H1221   1.111   .     S
C1219  H1222   1.111   .     S
N1223  H1224   1.025   .     S
N1223  C1225   1.445   .     S
C1225  H1226   1.110   .     S
C1225  H1227   1.113   .     S
C1225  H1228   1.105   .     S
N1229  H1230   1.025   .     S
N1229  C1231   1.445   .     S
C1231  H1233   1.105   .     S
C1231  H1234   1.113   .     S
C1231  H1232   1.110   .     S
N1235  C1237   1.447   .     S
N1235  H1236   1.020   .     S
C1237  H1238   1.108   .     S
C1237  H1239   1.108   .     S
H1240  C1939   1.109   .     S
N1241  C1243   1.447   .     S
N1241  H1242   1.020   .     S
C1243  H1244   1.108   .     S
C1243  H1246   1.108   .     S
C1243  H1947   1.109   .     S
C1249  O1269   1.300   .     A
C1249  C1260   1.452   .     S
C1249  O1271   1.294   .     A
C1250  O1270   1.300   .     A
C1250  C1259   1.452   .     S
C1250  O1272   1.294   .     A
C1251  O1273   1.292   .     A
C1251  C1253   1.450   .     S
C1251  O1275   1.299   .     A
C1252  O1276   1.299   .     A
C1252  C1254   1.450   .     S
C1252  O1274   1.292   .     A
C1254  C1331   1.359   .     S
C1254  N1361   1.431   .     S
C1255  C1260   1.405   .     A
C1255  N1289   1.426   .     S
C1256  N1295   1.426   .     S
C1256  C1259   1.405   .     A
C1256  C790    1.396   1_565 S
C1257  C1259   1.409   .     A
C1257  N1301   1.418   .     S
C1257  C787    1.396   1_565 S
C1258  C1260   1.409   .     A
C1258  N1307   1.418   .     S
C1261  N1313   1.426   .     S
C1261  N1268   1.386   .     A
C1262  N1319   1.426   .     S
C1262  N1267   1.386   .     A
C1262  C1966   1.421   .     S
C1263  N1267   1.357   .     A
C1263  F1325   1.349   .     S
C1263  C1963   1.421   .     S
C1264  F1326   1.349   .     S
C1264  N1268   1.357   .     A
Cu1265 O1272   1.964   .     S
Cu1265 O1269   1.967   .     S
Cu1265 Cu1266  2.700   .     S
Cu1265 O1276   1.990   .     S
Cu1265 O1273   1.996   .     S
Cu1265 N1267   2.029   .     S
Cu1266 O1274   1.996   .     S
Cu1266 O1271   1.964   .     S
Cu1266 O1270   1.967   .     S
Cu1266 O1275   1.990   .     S
Cu1266 N1268   2.029   .     S
N1277  H1278   1.029   .     S
N1277  C1331   1.431   .     S
N1277  C1357   1.450   .     S
C1279  H1280   1.111   .     S
C1279  H1281   1.111   .     S
H1282  C1357   1.108   .     S
N1283  H1284   1.029   .     S
C1285  H1288   1.111   .     S
C1285  H1286   1.111   .     S
C1285  N1361   1.450   .     S
C1285  H1365   1.108   .     S
N1289  H1290   1.029   .     S
N1289  C1291   1.448   .     S
C1291  H1292   1.111   .     S
C1291  H1293   1.111   .     S
C1291  H1294   1.111   .     S
N1295  C1297   1.448   .     S
N1295  H1296   1.029   .     S
C1297  H1298   1.111   .     S
C1297  H1299   1.111   .     S
C1297  H1300   1.111   .     S
N1301  H1302   1.025   .     S
N1301  C1303   1.445   .     S
C1303  H1304   1.110   .     S
C1303  H1305   1.113   .     S
C1303  H1306   1.105   .     S
N1307  H1308   1.025   .     S
N1307  C1309   1.445   .     S
C1309  H1311   1.105   .     S
C1309  H1312   1.113   .     S
C1309  H1310   1.110   .     S
N1313  C1315   1.447   .     S
N1313  H1314   1.020   .     S
C1315  H1316   1.108   .     S
C1315  H1317   1.108   .     S
H1318  C2017   1.109   .     S
N1319  C1321   1.447   .     S
N1319  H1320   1.020   .     S
C1321  H1322   1.108   .     S
C1321  H1324   1.108   .     S
C1321  H2025   1.109   .     S
C1327  O1347   1.300   .     A
C1327  C1338   1.452   .     S
C1327  O1349   1.294   .     A
C1328  O1348   1.300   .     A
C1328  C1337   1.452   .     S
C1328  O1350   1.294   .     A
C1329  O1351   1.292   .     A
C1329  C1331   1.450   .     S
C1329  O1353   1.299   .     A
C1330  O1354   1.299   .     A
C1330  C1332   1.450   .     S
C1330  O1352   1.292   .     A
C1332  C1175   1.359   1_655 S
C1332  N1205   1.431   1_655 S
C1333  C1338   1.405   .     A
C1333  N1367   1.426   .     S
C1334  N1373   1.426   .     S
C1334  C1337   1.405   .     A
C1334  C868    1.396   1_565 S
C1335  C1337   1.409   .     A
C1335  N1379   1.418   .     S
C1335  C865    1.396   1_565 S
C1336  C1338   1.409   .     A
C1336  N1385   1.418   .     S
C1339  N1391   1.426   .     S
C1339  N1346   1.386   .     A
C1340  N1397   1.426   .     S
C1340  N1345   1.386   .     A
C1340  C2044   1.421   .     S
C1341  N1345   1.357   .     A
C1341  F1403   1.349   .     S
C1341  C2041   1.421   .     S
C1342  F1404   1.349   .     S
C1342  N1346   1.357   .     A
Cu1343 O1350   1.964   .     S
Cu1343 O1347   1.967   .     S
Cu1343 Cu1344  2.700   .     S
Cu1343 O1354   1.990   .     S
Cu1343 O1351   1.996   .     S
Cu1343 N1345   2.029   .     S
Cu1344 O1352   1.996   .     S
Cu1344 O1349   1.964   .     S
Cu1344 O1348   1.967   .     S
Cu1344 O1353   1.990   .     S
Cu1344 N1346   2.029   .     S
N1355  H1356   1.029   .     S
N1355  C1175   1.431   1_655 S
N1355  C1201   1.450   1_655 S
C1357  H1358   1.111   .     S
C1357  H1359   1.111   .     S
H1360  C1201   1.108   1_655 S
N1361  H1362   1.029   .     S
C1363  H1366   1.111   .     S
C1363  H1364   1.111   .     S
C1363  N1205   1.450   1_655 S
C1363  H1209   1.108   1_655 S
N1367  H1368   1.029   .     S
N1367  C1369   1.448   .     S
C1369  H1370   1.111   .     S
C1369  H1371   1.111   .     S
C1369  H1372   1.111   .     S
N1373  C1375   1.448   .     S
N1373  H1374   1.029   .     S
C1375  H1376   1.111   .     S
C1375  H1377   1.111   .     S
C1375  H1378   1.111   .     S
N1379  H1380   1.025   .     S
N1379  C1381   1.445   .     S
C1381  H1382   1.110   .     S
C1381  H1383   1.113   .     S
C1381  H1384   1.105   .     S
N1385  H1386   1.025   .     S
N1385  C1387   1.445   .     S
C1387  H1389   1.105   .     S
C1387  H1390   1.113   .     S
C1387  H1388   1.110   .     S
N1391  C1393   1.447   .     S
N1391  H1392   1.020   .     S
C1393  H1394   1.108   .     S
C1393  H1395   1.108   .     S
H1396  C2095   1.109   .     S
N1397  C1399   1.447   .     S
N1397  H1398   1.020   .     S
C1399  H1400   1.108   .     S
C1399  H1402   1.108   .     S
C1399  H2103   1.109   .     S
C1405  O1425   1.300   .     A
C1405  C1416   1.452   .     S
C1405  O1427   1.294   .     A
C1406  O1426   1.300   .     A
C1406  C1415   1.452   .     S
C1406  O1428   1.294   .     A
C1407  O1429   1.292   .     A
C1407  C1409   1.450   .     S
C1407  O1431   1.299   .     A
C1408  O1432   1.299   .     A
C1408  C1410   1.450   .     S
C1408  O1430   1.292   .     A
C1409  C1566   1.359   1_455 S
C1409  N1589   1.431   1_455 S
C1410  C1487   1.359   .     S
C1410  N1517   1.431   .     S
C1411  C1416   1.405   .     A
C1411  N1445   1.426   .     S
C1411  C1881   1.396   1_545 S
C1412  N1451   1.426   .     S
C1412  C1415   1.405   .     A
C1412  C1648   1.396   .     S
C1413  C1415   1.409   .     A
C1413  N1457   1.418   .     S
C1413  C1645   1.396   .     S
C1414  C1416   1.409   .     A
C1414  N1463   1.418   .     S
C1414  C1880   1.396   1_545 S
C1417  N1469   1.426   .     S
C1417  N1424   1.386   .     A
C1418  N1475   1.426   .     S
C1418  N1423   1.386   .     A
C1418  C16     1.421   1_556 S
C1419  N1423   1.357   .     A
C1419  F1481   1.349   .     S
C1419  C13     1.421   1_556 S
C1420  F1482   1.349   .     S
C1420  N1424   1.357   .     A
Cu1421 O1428   1.964   .     S
Cu1421 O1425   1.967   .     S
Cu1421 Cu1422  2.700   .     S
Cu1421 O1432   1.990   .     S
Cu1421 O1429   1.996   .     S
Cu1421 N1423   2.029   .     S
Cu1422 O1430   1.996   .     S
Cu1422 O1427   1.964   .     S
Cu1422 O1426   1.967   .     S
Cu1422 O1431   1.990   .     S
Cu1422 N1424   2.029   .     S
N1433  H1434   1.029   .     S
N1433  C1487   1.431   .     S
N1433  C1513   1.450   .     S
C1435  H1436   1.111   .     S
C1435  H1437   1.111   .     S
C1435  N1589   1.450   1_455 S
C1435  H1594   1.108   1_455 S
H1438  C1513   1.108   .     S
N1439  H1440   1.029   .     S
N1439  C1566   1.431   1_455 S
N1439  C1597   1.450   1_455 S
C1441  H1444   1.111   .     S
C1441  H1442   1.111   .     S
C1441  N1517   1.450   .     S
C1441  H1521   1.108   .     S
H1443  C1597   1.108   1_455 S
N1445  H1446   1.029   .     S
N1445  C1447   1.448   .     S
C1447  H1448   1.111   .     S
C1447  H1449   1.111   .     S
C1447  H1450   1.111   .     S
N1451  C1453   1.448   .     S
N1451  H1452   1.029   .     S
C1453  H1454   1.111   .     S
C1453  H1455   1.111   .     S
C1453  H1456   1.111   .     S
N1457  H1458   1.025   .     S
N1457  C1459   1.445   .     S
C1459  H1460   1.110   .     S
C1459  H1461   1.113   .     S
C1459  H1462   1.105   .     S
N1463  H1464   1.025   .     S
N1463  C1465   1.445   .     S
C1465  H1467   1.105   .     S
C1465  H1468   1.113   .     S
C1465  H1466   1.110   .     S
N1469  C1471   1.447   .     S
N1469  H1470   1.020   .     S
C1471  H1472   1.108   .     S
C1471  H1473   1.108   .     S
H1474  C67     1.109   1_556 S
N1475  C1477   1.447   .     S
N1475  H1476   1.020   .     S
C1477  H1478   1.108   .     S
C1477  H1480   1.108   .     S
C1477  H75     1.109   1_556 S
C1483  O1503   1.300   .     A
C1483  C1494   1.452   .     S
C1483  O1505   1.294   .     A
C1484  O1504   1.300   .     A
C1484  C1493   1.452   .     S
C1484  O1506   1.294   .     A
C1485  O1507   1.292   .     A
C1485  C1487   1.450   .     S
C1485  O1509   1.299   .     A
C1486  O1510   1.299   .     A
C1486  C1488   1.450   .     S
C1486  O1508   1.292   .     A
C1488  C1565   1.359   .     S
C1488  N1595   1.431   .     S
C1489  C1494   1.405   .     A
C1489  N1523   1.426   .     S
C1489  C1959   1.396   1_545 S
C1490  N1529   1.426   .     S
C1490  C1493   1.405   .     A
C1490  C1726   1.396   .     S
C1491  C1493   1.409   .     A
C1491  N1535   1.418   .     S
C1491  C1723   1.396   .     S
C1492  C1494   1.409   .     A
C1492  N1541   1.418   .     S
C1492  C1958   1.396   1_545 S
C1495  N1547   1.426   .     S
C1495  N1502   1.386   .     A
C1496  N1553   1.426   .     S
C1496  N1501   1.386   .     A
C1496  C94     1.421   1_556 S
C1497  N1501   1.357   .     A
C1497  F1559   1.349   .     S
C1497  C91     1.421   1_556 S
C1498  F1560   1.349   .     S
C1498  N1502   1.357   .     A
Cu1499 O1506   1.964   .     S
Cu1499 O1503   1.967   .     S
Cu1499 Cu1500  2.700   .     S
Cu1499 O1510   1.990   .     S
Cu1499 O1507   1.996   .     S
Cu1499 N1501   2.029   .     S
Cu1500 O1508   1.996   .     S
Cu1500 O1505   1.964   .     S
Cu1500 O1504   1.967   .     S
Cu1500 O1509   1.990   .     S
Cu1500 N1502   2.029   .     S
N1511  H1512   1.029   .     S
N1511  C1565   1.431   .     S
N1511  C1591   1.450   .     S
C1513  H1514   1.111   .     S
C1513  H1515   1.111   .     S
H1516  C1591   1.108   .     S
N1517  H1518   1.029   .     S
C1519  H1522   1.111   .     S
C1519  H1520   1.111   .     S
C1519  N1595   1.450   .     S
C1519  H1599   1.108   .     S
N1523  H1524   1.029   .     S
N1523  C1525   1.448   .     S
C1525  H1526   1.111   .     S
C1525  H1527   1.111   .     S
C1525  H1528   1.111   .     S
N1529  C1531   1.448   .     S
N1529  H1530   1.029   .     S
C1531  H1532   1.111   .     S
C1531  H1533   1.111   .     S
C1531  H1534   1.111   .     S
N1535  H1536   1.025   .     S
N1535  C1537   1.445   .     S
C1537  H1538   1.110   .     S
C1537  H1539   1.113   .     S
C1537  H1540   1.105   .     S
N1541  H1542   1.025   .     S
N1541  C1543   1.445   .     S
C1543  H1545   1.105   .     S
C1543  H1546   1.113   .     S
C1543  H1544   1.110   .     S
N1547  C1549   1.447   .     S
N1547  H1548   1.020   .     S
C1549  H1550   1.108   .     S
C1549  H1551   1.108   .     S
H1552  C145    1.109   1_556 S
N1553  C1555   1.447   .     S
N1553  H1554   1.020   .     S
C1555  H1556   1.108   .     S
C1555  H1558   1.108   .     S
C1555  H153    1.109   1_556 S
C1561  O1581   1.300   .     A
C1561  C1572   1.452   .     S
C1561  O1583   1.294   .     A
C1562  O1582   1.300   .     A
C1562  C1571   1.452   .     S
C1562  O1584   1.294   .     A
C1563  O1585   1.292   .     A
C1563  C1565   1.450   .     S
C1563  O1587   1.299   .     A
C1564  O1588   1.299   .     A
C1564  C1566   1.450   .     S
C1564  O1586   1.292   .     A
C1566  C1409   1.359   1_655 S
C1566  N1439   1.431   1_655 S
C1567  C1572   1.405   .     A
C1567  N1601   1.426   .     S
C1567  C2037   1.396   1_545 S
C1568  N1607   1.426   .     S
C1568  C1571   1.405   .     A
C1568  C1804   1.396   .     S
C1569  C1571   1.409   .     A
C1569  N1613   1.418   .     S
C1569  C1801   1.396   .     S
C1570  C1572   1.409   .     A
C1570  N1619   1.418   .     S
C1570  C2036   1.396   1_545 S
C1573  N1625   1.426   .     S
C1573  N1580   1.386   .     A
C1574  N1631   1.426   .     S
C1574  N1579   1.386   .     A
C1574  C172    1.421   1_556 S
C1575  N1579   1.357   .     A
C1575  F1637   1.349   .     S
C1575  C169    1.421   1_556 S
C1576  F1638   1.349   .     S
C1576  N1580   1.357   .     A
Cu1577 O1584   1.964   .     S
Cu1577 O1581   1.967   .     S
Cu1577 Cu1578  2.700   .     S
Cu1577 O1588   1.990   .     S
Cu1577 O1585   1.996   .     S
Cu1577 N1579   2.029   .     S
Cu1578 O1586   1.996   .     S
Cu1578 O1583   1.964   .     S
Cu1578 O1582   1.967   .     S
Cu1578 O1587   1.990   .     S
Cu1578 N1580   2.029   .     S
N1589  H1590   1.029   .     S
N1589  C1409   1.431   1_655 S
N1589  C1435   1.450   1_655 S
C1591  H1592   1.111   .     S
C1591  H1593   1.111   .     S
H1594  C1435   1.108   1_655 S
N1595  H1596   1.029   .     S
C1597  H1600   1.111   .     S
C1597  H1598   1.111   .     S
C1597  N1439   1.450   1_655 S
C1597  H1443   1.108   1_655 S
N1601  H1602   1.029   .     S
N1601  C1603   1.448   .     S
C1603  H1604   1.111   .     S
C1603  H1605   1.111   .     S
C1603  H1606   1.111   .     S
N1607  C1609   1.448   .     S
N1607  H1608   1.029   .     S
C1609  H1610   1.111   .     S
C1609  H1611   1.111   .     S
C1609  H1612   1.111   .     S
N1613  H1614   1.025   .     S
N1613  C1615   1.445   .     S
C1615  H1616   1.110   .     S
C1615  H1617   1.113   .     S
C1615  H1618   1.105   .     S
N1619  H1620   1.025   .     S
N1619  C1621   1.445   .     S
C1621  H1623   1.105   .     S
C1621  H1624   1.113   .     S
C1621  H1622   1.110   .     S
N1625  C1627   1.447   .     S
N1625  H1626   1.020   .     S
C1627  H1628   1.108   .     S
C1627  H1629   1.108   .     S
H1630  C223    1.109   1_556 S
N1631  C1633   1.447   .     S
N1631  H1632   1.020   .     S
C1633  H1634   1.108   .     S
C1633  H1636   1.108   .     S
C1633  H231    1.109   1_556 S
C1639  O1659   1.300   .     A
C1639  C1650   1.452   .     S
C1639  O1661   1.294   .     A
C1640  O1660   1.300   .     A
C1640  C1649   1.452   .     S
C1640  O1662   1.294   .     A
C1641  O1663   1.292   .     A
C1641  C1643   1.450   .     S
C1641  O1665   1.299   .     A
C1642  O1666   1.299   .     A
C1642  C1644   1.450   .     S
C1642  O1664   1.292   .     A
C1643  C1800   1.359   1_455 S
C1643  N1823   1.431   1_455 S
C1644  C1721   1.359   .     S
C1644  N1751   1.431   .     S
C1645  C1650   1.405   .     A
C1645  N1679   1.426   .     S
C1646  N1685   1.426   .     S
C1646  C1649   1.405   .     A
C1646  C1882   1.396   .     S
C1647  C1649   1.409   .     A
C1647  N1691   1.418   .     S
C1647  C1879   1.396   .     S
C1648  C1650   1.409   .     A
C1648  N1697   1.418   .     S
C1651  N1703   1.426   .     S
C1651  N1658   1.386   .     A
C1652  N1709   1.426   .     S
C1652  N1657   1.386   .     A
C1652  C250    1.421   1_556 S
C1653  N1657   1.357   .     A
C1653  F1715   1.349   .     S
C1653  C247    1.421   1_556 S
C1654  F1716   1.349   .     S
C1654  N1658   1.357   .     A
Cu1655 O1662   1.964   .     S
Cu1655 O1659   1.967   .     S
Cu1655 Cu1656  2.700   .     S
Cu1655 O1666   1.990   .     S
Cu1655 O1663   1.996   .     S
Cu1655 N1657   2.029   .     S
Cu1656 O1664   1.996   .     S
Cu1656 O1661   1.964   .     S
Cu1656 O1660   1.967   .     S
Cu1656 O1665   1.990   .     S
Cu1656 N1658   2.029   .     S
N1667  H1668   1.029   .     S
N1667  C1721   1.431   .     S
N1667  C1747   1.450   .     S
C1669  H1670   1.111   .     S
C1669  H1671   1.111   .     S
C1669  N1823   1.450   1_455 S
C1669  H1828   1.108   1_455 S
H1672  C1747   1.108   .     S
N1673  H1674   1.029   .     S
N1673  C1800   1.431   1_455 S
N1673  C1831   1.450   1_455 S
C1675  H1678   1.111   .     S
C1675  H1676   1.111   .     S
C1675  N1751   1.450   .     S
C1675  H1755   1.108   .     S
H1677  C1831   1.108   1_455 S
N1679  H1680   1.029   .     S
N1679  C1681   1.448   .     S
C1681  H1682   1.111   .     S
C1681  H1683   1.111   .     S
C1681  H1684   1.111   .     S
N1685  C1687   1.448   .     S
N1685  H1686   1.029   .     S
C1687  H1688   1.111   .     S
C1687  H1689   1.111   .     S
C1687  H1690   1.111   .     S
N1691  H1692   1.025   .     S
N1691  C1693   1.445   .     S
C1693  H1694   1.110   .     S
C1693  H1695   1.113   .     S
C1693  H1696   1.105   .     S
N1697  H1698   1.025   .     S
N1697  C1699   1.445   .     S
C1699  H1701   1.105   .     S
C1699  H1702   1.113   .     S
C1699  H1700   1.110   .     S
N1703  C1705   1.447   .     S
N1703  H1704   1.020   .     S
C1705  H1706   1.108   .     S
C1705  H1707   1.108   .     S
H1708  C301    1.109   1_556 S
N1709  C1711   1.447   .     S
N1709  H1710   1.020   .     S
C1711  H1712   1.108   .     S
C1711  H1714   1.108   .     S
C1711  H309    1.109   1_556 S
C1717  O1737   1.300   .     A
C1717  C1728   1.452   .     S
C1717  O1739   1.294   .     A
C1718  O1738   1.300   .     A
C1718  C1727   1.452   .     S
C1718  O1740   1.294   .     A
C1719  O1741   1.292   .     A
C1719  C1721   1.450   .     S
C1719  O1743   1.299   .     A
C1720  O1744   1.299   .     A
C1720  C1722   1.450   .     S
C1720  O1742   1.292   .     A
C1722  C1799   1.359   .     S
C1722  N1829   1.431   .     S
C1723  C1728   1.405   .     A
C1723  N1757   1.426   .     S
C1724  N1763   1.426   .     S
C1724  C1727   1.405   .     A
C1724  C1960   1.396   .     S
C1725  C1727   1.409   .     A
C1725  N1769   1.418   .     S
C1725  C1957   1.396   .     S
C1726  C1728   1.409   .     A
C1726  N1775   1.418   .     S
C1729  N1781   1.426   .     S
C1729  N1736   1.386   .     A
C1730  N1787   1.426   .     S
C1730  N1735   1.386   .     A
C1730  C328    1.421   1_556 S
C1731  N1735   1.357   .     A
C1731  F1793   1.349   .     S
C1731  C325    1.421   1_556 S
C1732  F1794   1.349   .     S
C1732  N1736   1.357   .     A
Cu1733 O1740   1.964   .     S
Cu1733 O1737   1.967   .     S
Cu1733 Cu1734  2.700   .     S
Cu1733 O1744   1.990   .     S
Cu1733 O1741   1.996   .     S
Cu1733 N1735   2.029   .     S
Cu1734 O1742   1.996   .     S
Cu1734 O1739   1.964   .     S
Cu1734 O1738   1.967   .     S
Cu1734 O1743   1.990   .     S
Cu1734 N1736   2.029   .     S
N1745  H1746   1.029   .     S
N1745  C1799   1.431   .     S
N1745  C1825   1.450   .     S
C1747  H1748   1.111   .     S
C1747  H1749   1.111   .     S
H1750  C1825   1.108   .     S
N1751  H1752   1.029   .     S
C1753  H1756   1.111   .     S
C1753  H1754   1.111   .     S
C1753  N1829   1.450   .     S
C1753  H1833   1.108   .     S
N1757  H1758   1.029   .     S
N1757  C1759   1.448   .     S
C1759  H1760   1.111   .     S
C1759  H1761   1.111   .     S
C1759  H1762   1.111   .     S
N1763  C1765   1.448   .     S
N1763  H1764   1.029   .     S
C1765  H1766   1.111   .     S
C1765  H1767   1.111   .     S
C1765  H1768   1.111   .     S
N1769  H1770   1.025   .     S
N1769  C1771   1.445   .     S
C1771  H1772   1.110   .     S
C1771  H1773   1.113   .     S
C1771  H1774   1.105   .     S
N1775  H1776   1.025   .     S
N1775  C1777   1.445   .     S
C1777  H1779   1.105   .     S
C1777  H1780   1.113   .     S
C1777  H1778   1.110   .     S
N1781  C1783   1.447   .     S
N1781  H1782   1.020   .     S
C1783  H1784   1.108   .     S
C1783  H1785   1.108   .     S
H1786  C379    1.109   1_556 S
N1787  C1789   1.447   .     S
N1787  H1788   1.020   .     S
C1789  H1790   1.108   .     S
C1789  H1792   1.108   .     S
C1789  H387    1.109   1_556 S
C1795  O1815   1.300   .     A
C1795  C1806   1.452   .     S
C1795  O1817   1.294   .     A
C1796  O1816   1.300   .     A
C1796  C1805   1.452   .     S
C1796  O1818   1.294   .     A
C1797  O1819   1.292   .     A
C1797  C1799   1.450   .     S
C1797  O1821   1.299   .     A
C1798  O1822   1.299   .     A
C1798  C1800   1.450   .     S
C1798  O1820   1.292   .     A
C1800  C1643   1.359   1_655 S
C1800  N1673   1.431   1_655 S
C1801  C1806   1.405   .     A
C1801  N1835   1.426   .     S
C1802  N1841   1.426   .     S
C1802  C1805   1.405   .     A
C1802  C2038   1.396   .     S
C1803  C1805   1.409   .     A
C1803  N1847   1.418   .     S
C1803  C2035   1.396   .     S
C1804  C1806   1.409   .     A
C1804  N1853   1.418   .     S
C1807  N1859   1.426   .     S
C1807  N1814   1.386   .     A
C1808  N1865   1.426   .     S
C1808  N1813   1.386   .     A
C1808  C406    1.421   1_556 S
C1809  N1813   1.357   .     A
C1809  F1871   1.349   .     S
C1809  C403    1.421   1_556 S
C1810  F1872   1.349   .     S
C1810  N1814   1.357   .     A
Cu1811 O1818   1.964   .     S
Cu1811 O1815   1.967   .     S
Cu1811 Cu1812  2.700   .     S
Cu1811 O1822   1.990   .     S
Cu1811 O1819   1.996   .     S
Cu1811 N1813   2.029   .     S
Cu1812 O1820   1.996   .     S
Cu1812 O1817   1.964   .     S
Cu1812 O1816   1.967   .     S
Cu1812 O1821   1.990   .     S
Cu1812 N1814   2.029   .     S
N1823  H1824   1.029   .     S
N1823  C1643   1.431   1_655 S
N1823  C1669   1.450   1_655 S
C1825  H1826   1.111   .     S
C1825  H1827   1.111   .     S
H1828  C1669   1.108   1_655 S
N1829  H1830   1.029   .     S
C1831  H1834   1.111   .     S
C1831  H1832   1.111   .     S
C1831  N1673   1.450   1_655 S
C1831  H1677   1.108   1_655 S
N1835  H1836   1.029   .     S
N1835  C1837   1.448   .     S
C1837  H1838   1.111   .     S
C1837  H1839   1.111   .     S
C1837  H1840   1.111   .     S
N1841  C1843   1.448   .     S
N1841  H1842   1.029   .     S
C1843  H1844   1.111   .     S
C1843  H1845   1.111   .     S
C1843  H1846   1.111   .     S
N1847  H1848   1.025   .     S
N1847  C1849   1.445   .     S
C1849  H1850   1.110   .     S
C1849  H1851   1.113   .     S
C1849  H1852   1.105   .     S
N1853  H1854   1.025   .     S
N1853  C1855   1.445   .     S
C1855  H1857   1.105   .     S
C1855  H1858   1.113   .     S
C1855  H1856   1.110   .     S
N1859  C1861   1.447   .     S
N1859  H1860   1.020   .     S
C1861  H1862   1.108   .     S
C1861  H1863   1.108   .     S
H1864  C457    1.109   1_556 S
N1865  C1867   1.447   .     S
N1865  H1866   1.020   .     S
C1867  H1868   1.108   .     S
C1867  H1870   1.108   .     S
C1867  H465    1.109   1_556 S
C1873  O1893   1.300   .     A
C1873  C1884   1.452   .     S
C1873  O1895   1.294   .     A
C1874  O1894   1.300   .     A
C1874  C1883   1.452   .     S
C1874  O1896   1.294   .     A
C1875  O1897   1.292   .     A
C1875  C1877   1.450   .     S
C1875  O1899   1.299   .     A
C1876  O1900   1.299   .     A
C1876  C1878   1.450   .     S
C1876  O1898   1.292   .     A
C1877  C2034   1.359   1_455 S
C1877  N2057   1.431   1_455 S
C1878  C1955   1.359   .     S
C1878  N1985   1.431   .     S
C1879  C1884   1.405   .     A
C1879  N1913   1.426   .     S
C1880  N1919   1.426   .     S
C1880  C1883   1.405   .     A
C1880  C1414   1.396   1_565 S
C1881  C1883   1.409   .     A
C1881  N1925   1.418   .     S
C1881  C1411   1.396   1_565 S
C1882  C1884   1.409   .     A
C1882  N1931   1.418   .     S
C1885  N1937   1.426   .     S
C1885  N1892   1.386   .     A
C1886  N1943   1.426   .     S
C1886  N1891   1.386   .     A
C1886  C484    1.421   1_556 S
C1887  N1891   1.357   .     A
C1887  F1949   1.349   .     S
C1887  C481    1.421   1_556 S
C1888  F1950   1.349   .     S
C1888  N1892   1.357   .     A
Cu1889 O1896   1.964   .     S
Cu1889 O1893   1.967   .     S
Cu1889 Cu1890  2.700   .     S
Cu1889 O1900   1.990   .     S
Cu1889 O1897   1.996   .     S
Cu1889 N1891   2.029   .     S
Cu1890 O1898   1.996   .     S
Cu1890 O1895   1.964   .     S
Cu1890 O1894   1.967   .     S
Cu1890 O1899   1.990   .     S
Cu1890 N1892   2.029   .     S
N1901  H1902   1.029   .     S
N1901  C1955   1.431   .     S
N1901  C1981   1.450   .     S
C1903  H1904   1.111   .     S
C1903  H1905   1.111   .     S
C1903  N2057   1.450   1_455 S
C1903  H2062   1.108   1_455 S
H1906  C1981   1.108   .     S
N1907  H1908   1.029   .     S
N1907  C2034   1.431   1_455 S
N1907  C2065   1.450   1_455 S
C1909  H1912   1.111   .     S
C1909  H1910   1.111   .     S
C1909  N1985   1.450   .     S
C1909  H1989   1.108   .     S
H1911  C2065   1.108   1_455 S
N1913  H1914   1.029   .     S
N1913  C1915   1.448   .     S
C1915  H1916   1.111   .     S
C1915  H1917   1.111   .     S
C1915  H1918   1.111   .     S
N1919  C1921   1.448   .     S
N1919  H1920   1.029   .     S
C1921  H1922   1.111   .     S
C1921  H1923   1.111   .     S
C1921  H1924   1.111   .     S
N1925  H1926   1.025   .     S
N1925  C1927   1.445   .     S
C1927  H1928   1.110   .     S
C1927  H1929   1.113   .     S
C1927  H1930   1.105   .     S
N1931  H1932   1.025   .     S
N1931  C1933   1.445   .     S
C1933  H1935   1.105   .     S
C1933  H1936   1.113   .     S
C1933  H1934   1.110   .     S
N1937  C1939   1.447   .     S
N1937  H1938   1.020   .     S
C1939  H1940   1.108   .     S
C1939  H1941   1.108   .     S
H1942  C535    1.109   1_556 S
N1943  C1945   1.447   .     S
N1943  H1944   1.020   .     S
C1945  H1946   1.108   .     S
C1945  H1948   1.108   .     S
C1945  H543    1.109   1_556 S
C1951  O1971   1.300   .     A
C1951  C1962   1.452   .     S
C1951  O1973   1.294   .     A
C1952  O1972   1.300   .     A
C1952  C1961   1.452   .     S
C1952  O1974   1.294   .     A
C1953  O1975   1.292   .     A
C1953  C1955   1.450   .     S
C1953  O1977   1.299   .     A
C1954  O1978   1.299   .     A
C1954  C1956   1.450   .     S
C1954  O1976   1.292   .     A
C1956  C2033   1.359   .     S
C1956  N2063   1.431   .     S
C1957  C1962   1.405   .     A
C1957  N1991   1.426   .     S
C1958  N1997   1.426   .     S
C1958  C1961   1.405   .     A
C1958  C1492   1.396   1_565 S
C1959  C1961   1.409   .     A
C1959  N2003   1.418   .     S
C1959  C1489   1.396   1_565 S
C1960  C1962   1.409   .     A
C1960  N2009   1.418   .     S
C1963  N2015   1.426   .     S
C1963  N1970   1.386   .     A
C1964  N2021   1.426   .     S
C1964  N1969   1.386   .     A
C1964  C562    1.421   1_556 S
C1965  N1969   1.357   .     A
C1965  F2027   1.349   .     S
C1965  C559    1.421   1_556 S
C1966  F2028   1.349   .     S
C1966  N1970   1.357   .     A
Cu1967 O1974   1.964   .     S
Cu1967 O1971   1.967   .     S
Cu1967 Cu1968  2.700   .     S
Cu1967 O1978   1.990   .     S
Cu1967 O1975   1.996   .     S
Cu1967 N1969   2.029   .     S
Cu1968 O1976   1.996   .     S
Cu1968 O1973   1.964   .     S
Cu1968 O1972   1.967   .     S
Cu1968 O1977   1.990   .     S
Cu1968 N1970   2.029   .     S
N1979  H1980   1.029   .     S
N1979  C2033   1.431   .     S
N1979  C2059   1.450   .     S
C1981  H1982   1.111   .     S
C1981  H1983   1.111   .     S
H1984  C2059   1.108   .     S
N1985  H1986   1.029   .     S
C1987  H1990   1.111   .     S
C1987  H1988   1.111   .     S
C1987  N2063   1.450   .     S
C1987  H2067   1.108   .     S
N1991  H1992   1.029   .     S
N1991  C1993   1.448   .     S
C1993  H1994   1.111   .     S
C1993  H1995   1.111   .     S
C1993  H1996   1.111   .     S
N1997  C1999   1.448   .     S
N1997  H1998   1.029   .     S
C1999  H2000   1.111   .     S
C1999  H2001   1.111   .     S
C1999  H2002   1.111   .     S
N2003  H2004   1.025   .     S
N2003  C2005   1.445   .     S
C2005  H2006   1.110   .     S
C2005  H2007   1.113   .     S
C2005  H2008   1.105   .     S
N2009  H2010   1.025   .     S
N2009  C2011   1.445   .     S
C2011  H2013   1.105   .     S
C2011  H2014   1.113   .     S
C2011  H2012   1.110   .     S
N2015  C2017   1.447   .     S
N2015  H2016   1.020   .     S
C2017  H2018   1.108   .     S
C2017  H2019   1.108   .     S
H2020  C613    1.109   1_556 S
N2021  C2023   1.447   .     S
N2021  H2022   1.020   .     S
C2023  H2024   1.108   .     S
C2023  H2026   1.108   .     S
C2023  H621    1.109   1_556 S
C2029  O2049   1.300   .     A
C2029  C2040   1.452   .     S
C2029  O2051   1.294   .     A
C2030  O2050   1.300   .     A
C2030  C2039   1.452   .     S
C2030  O2052   1.294   .     A
C2031  O2053   1.292   .     A
C2031  C2033   1.450   .     S
C2031  O2055   1.299   .     A
C2032  O2056   1.299   .     A
C2032  C2034   1.450   .     S
C2032  O2054   1.292   .     A
C2034  C1877   1.359   1_655 S
C2034  N1907   1.431   1_655 S
C2035  C2040   1.405   .     A
C2035  N2069   1.426   .     S
C2036  N2075   1.426   .     S
C2036  C2039   1.405   .     A
C2036  C1570   1.396   1_565 S
C2037  C2039   1.409   .     A
C2037  N2081   1.418   .     S
C2037  C1567   1.396   1_565 S
C2038  C2040   1.409   .     A
C2038  N2087   1.418   .     S
C2041  N2093   1.426   .     S
C2041  N2048   1.386   .     A
C2042  N2099   1.426   .     S
C2042  N2047   1.386   .     A
C2042  C640    1.421   1_556 S
C2043  N2047   1.357   .     A
C2043  F2105   1.349   .     S
C2043  C637    1.421   1_556 S
C2044  F2106   1.349   .     S
C2044  N2048   1.357   .     A
Cu2045 O2052   1.964   .     S
Cu2045 O2049   1.967   .     S
Cu2045 Cu2046  2.700   .     S
Cu2045 O2056   1.990   .     S
Cu2045 O2053   1.996   .     S
Cu2045 N2047   2.029   .     S
Cu2046 O2054   1.996   .     S
Cu2046 O2051   1.964   .     S
Cu2046 O2050   1.967   .     S
Cu2046 O2055   1.990   .     S
Cu2046 N2048   2.029   .     S
N2057  H2058   1.029   .     S
N2057  C1877   1.431   1_655 S
N2057  C1903   1.450   1_655 S
C2059  H2060   1.111   .     S
C2059  H2061   1.111   .     S
H2062  C1903   1.108   1_655 S
N2063  H2064   1.029   .     S
C2065  H2068   1.111   .     S
C2065  H2066   1.111   .     S
C2065  N1907   1.450   1_655 S
C2065  H1911   1.108   1_655 S
N2069  H2070   1.029   .     S
N2069  C2071   1.448   .     S
C2071  H2072   1.111   .     S
C2071  H2073   1.111   .     S
C2071  H2074   1.111   .     S
N2075  C2077   1.448   .     S
N2075  H2076   1.029   .     S
C2077  H2078   1.111   .     S
C2077  H2079   1.111   .     S
C2077  H2080   1.111   .     S
N2081  H2082   1.025   .     S
N2081  C2083   1.445   .     S
C2083  H2084   1.110   .     S
C2083  H2085   1.113   .     S
C2083  H2086   1.105   .     S
N2087  H2088   1.025   .     S
N2087  C2089   1.445   .     S
C2089  H2091   1.105   .     S
C2089  H2092   1.113   .     S
C2089  H2090   1.110   .     S
N2093  C2095   1.447   .     S
N2093  H2094   1.020   .     S
C2095  H2096   1.108   .     S
C2095  H2097   1.108   .     S
H2098  C691    1.109   1_556 S
N2099  C2101   1.447   .     S
N2099  H2100   1.020   .     S
C2101  H2102   1.108   .     S
C2101  H2104   1.108   .     S
C2101  H699    1.109   1_556 S
