data_str_m2_o2_o10_pcu_sym.163
_audit_creation_date              2020-01-03
_audit_creation_method            'Materials Studio'
_symmetry_space_group_name_H-M    'P1'
_symmetry_Int_Tables_number       1
_symmetry_cell_setting            triclinic
loop_
_symmetry_equiv_pos_as_xyz
  x,y,z
_cell_length_a                    26.1698
_cell_length_b                    30.2635
_cell_length_c                    27.8684
_cell_angle_alpha                 89.3839
_cell_angle_beta                  97.4237
_cell_angle_gamma                 91.3544
loop_
_atom_site_label
_atom_site_type_symbol
_atom_site_fract_x
_atom_site_fract_y
_atom_site_fract_z
_atom_site_U_iso_or_equiv
_atom_site_adp_type
_atom_site_occupancy
C1     C     0.16678   0.16497   0.25019   0.00000  Uiso   1.00
C2     C     0.16675   0.33498   0.24983   0.00000  Uiso   1.00
C3     C     0.18790   0.28355   0.05495   0.00000  Uiso   1.00
C4     C     0.12771   0.23160   0.44271   0.00000  Uiso   1.00
C5     C     0.19009   0.28340   0.10547   0.00000  Uiso   1.00
C6     C     0.12809   0.22944   0.39255   0.00000  Uiso   1.00
C7     C     0.14651   0.21420   0.10340   0.00000  Uiso   1.00
C8     C     0.20826   0.26761   0.39939   0.00000  Uiso   1.00
C9     C     0.14981   0.21059   0.05333   0.00000  Uiso   1.00
C10    C     0.21258   0.26470   0.45047   0.00000  Uiso   1.00
C11    C     0.16970   0.24662   0.02764   0.00000  Uiso   1.00
C12    C     0.17065   0.24748   0.47327   0.00000  Uiso   1.00
C13    C     0.06800   0.25021   0.23767   0.00000  Uiso   1.00
C14    C     0.26531   0.25078   0.26226   0.00000  Uiso   1.00
C15    C     0.01277   0.24997   0.23079   0.00000  Uiso   1.00
C16    C     0.32047   0.25264   0.26891   0.00000  Uiso   1.00
C17    C     0.15463   0.04674   0.29052   0.00000  Uiso   1.00
C18    C     0.14866   0.45241   0.20756   0.00000  Uiso   1.00
C19    C     0.15498   0.09268   0.29084   0.00000  Uiso   1.00
C20    C     0.14890   0.40647   0.20737   0.00000  Uiso   1.00
C21    C     0.16720   0.11668   0.25040   0.00000  Uiso   1.00
C22    C     0.16712   0.38320   0.24962   0.00000  Uiso   1.00
C23    C     0.17969   0.09420   0.20987   0.00000  Uiso   1.00
C24    C     0.18555   0.40627   0.29191   0.00000  Uiso   1.00
C25    C     0.18007   0.04830   0.20983   0.00000  Uiso   1.00
C26    C     0.18600   0.45218   0.29193   0.00000  Uiso   1.00
C27    C     0.16730   0.02419   0.25005   0.00000  Uiso   1.00
C28    C     0.16731   0.47563   0.24983   0.00000  Uiso   1.00
Cu29   Cu    0.16667   0.25000   0.29822   0.00000  Uiso   1.00
Cu30   Cu    0.16667   0.25001   0.20179   0.00000  Uiso   1.00
H31    H     0.32642   0.24700   0.19410   0.00000  Uiso   1.00
H32    H     0.00671   0.25634   0.30548   0.00000  Uiso   1.00
H33    H     0.14384   0.02889   0.32170   0.00000  Uiso   1.00
H34    H     0.13325   0.46972   0.17485   0.00000  Uiso   1.00
H35    H     0.14508   0.10932   0.32246   0.00000  Uiso   1.00
H36    H     0.13408   0.38917   0.17449   0.00000  Uiso   1.00
H37    H     0.18971   0.11205   0.17837   0.00000  Uiso   1.00
H38    H     0.20026   0.38885   0.32478   0.00000  Uiso   1.00
H39    H     0.19093   0.03171   0.17854   0.00000  Uiso   1.00
H40    H     0.20149   0.46931   0.32471   0.00000  Uiso   1.00
H41    H     0.20276   0.31221   0.03731   0.00000  Uiso   1.00
H42    H     0.09438   0.21865   0.45788   0.00000  Uiso   1.00
H43    H     0.12998   0.18693   0.12195   0.00000  Uiso   1.00
H44    H     0.23993   0.28196   0.38278   0.00000  Uiso   1.00
N45    N     0.16667   0.25001   0.12935   0.00000  Uiso   1.00
N46    N     0.16667   0.24999   0.37066   0.00000  Uiso   1.00
O47    O     0.16667   0.18573   0.29072   0.00000  Uiso   1.00
O48    O     0.16666   0.31428   0.20929   0.00000  Uiso   1.00
O49    O     0.16667   0.18573   0.20928   0.00000  Uiso   1.00
O50    O     0.16666   0.31427   0.29072   0.00000  Uiso   1.00
O51    O     0.09161   0.25000   0.28132   0.00000  Uiso   1.00
O52    O     0.24172   0.25001   0.21868   0.00000  Uiso   1.00
O53    O     0.09161   0.25000   0.19989   0.00000  Uiso   1.00
O54    O     0.24172   0.25000   0.30012   0.00000  Uiso   1.00
I55    I     0.24029   0.33303   0.13980   0.00000  Uiso   1.00
I56    I     0.07221   0.18451   0.35766   0.00000  Uiso   1.00
I57    I     0.13049   0.14744   0.02257   0.00000  Uiso   1.00
I58    I     0.28628   0.28118   0.48837   0.00000  Uiso   1.00
C59    C     0.50012   0.16497   0.25019   0.00000  Uiso   1.00
C60    C     0.50008   0.33498   0.24983   0.00000  Uiso   1.00
C61    C     0.52123   0.28355   0.05495   0.00000  Uiso   1.00
C62    C     0.46105   0.23160   0.44271   0.00000  Uiso   1.00
C63    C     0.52343   0.28340   0.10547   0.00000  Uiso   1.00
C64    C     0.46142   0.22944   0.39255   0.00000  Uiso   1.00
C65    C     0.47985   0.21420   0.10340   0.00000  Uiso   1.00
C66    C     0.54160   0.26761   0.39939   0.00000  Uiso   1.00
C67    C     0.48315   0.21059   0.05333   0.00000  Uiso   1.00
C68    C     0.54591   0.26470   0.45047   0.00000  Uiso   1.00
C69    C     0.50303   0.24662   0.02764   0.00000  Uiso   1.00
C70    C     0.50399   0.24748   0.47327   0.00000  Uiso   1.00
C71    C     0.40133   0.25021   0.23767   0.00000  Uiso   1.00
C72    C     0.59864   0.25078   0.26226   0.00000  Uiso   1.00
C73    C     0.34610   0.24997   0.23079   0.00000  Uiso   1.00
C74    C     0.65380   0.25264   0.26891   0.00000  Uiso   1.00
C75    C     0.48796   0.04674   0.29052   0.00000  Uiso   1.00
C76    C     0.48199   0.45241   0.20756   0.00000  Uiso   1.00
C77    C     0.48832   0.09268   0.29084   0.00000  Uiso   1.00
C78    C     0.48223   0.40647   0.20737   0.00000  Uiso   1.00
C79    C     0.50053   0.11668   0.25040   0.00000  Uiso   1.00
C80    C     0.50045   0.38320   0.24962   0.00000  Uiso   1.00
C81    C     0.51302   0.09420   0.20987   0.00000  Uiso   1.00
C82    C     0.51888   0.40627   0.29191   0.00000  Uiso   1.00
C83    C     0.51341   0.04830   0.20983   0.00000  Uiso   1.00
C84    C     0.51933   0.45218   0.29193   0.00000  Uiso   1.00
C85    C     0.50063   0.02419   0.25005   0.00000  Uiso   1.00
C86    C     0.50064   0.47563   0.24983   0.00000  Uiso   1.00
Cu87   Cu    0.50000   0.25000   0.29822   0.00000  Uiso   1.00
Cu88   Cu    0.50000   0.25001   0.20179   0.00000  Uiso   1.00
H89    H     0.65975   0.24700   0.19410   0.00000  Uiso   1.00
H90    H     0.34005   0.25634   0.30548   0.00000  Uiso   1.00
H91    H     0.47717   0.02889   0.32170   0.00000  Uiso   1.00
H92    H     0.46658   0.46972   0.17485   0.00000  Uiso   1.00
H93    H     0.47841   0.10932   0.32246   0.00000  Uiso   1.00
H94    H     0.46741   0.38917   0.17449   0.00000  Uiso   1.00
H95    H     0.52305   0.11205   0.17837   0.00000  Uiso   1.00
H96    H     0.53360   0.38885   0.32478   0.00000  Uiso   1.00
H97    H     0.52426   0.03171   0.17854   0.00000  Uiso   1.00
H98    H     0.53483   0.46931   0.32471   0.00000  Uiso   1.00
H99    H     0.53609   0.31221   0.03731   0.00000  Uiso   1.00
H100   H     0.42771   0.21865   0.45788   0.00000  Uiso   1.00
H101   H     0.46331   0.18693   0.12195   0.00000  Uiso   1.00
H102   H     0.57326   0.28196   0.38278   0.00000  Uiso   1.00
N103   N     0.50000   0.25001   0.12935   0.00000  Uiso   1.00
N104   N     0.50000   0.24999   0.37066   0.00000  Uiso   1.00
O105   O     0.50000   0.18573   0.29072   0.00000  Uiso   1.00
O106   O     0.50000   0.31428   0.20929   0.00000  Uiso   1.00
O107   O     0.50000   0.18573   0.20928   0.00000  Uiso   1.00
O108   O     0.50000   0.31427   0.29072   0.00000  Uiso   1.00
O109   O     0.42495   0.25000   0.28132   0.00000  Uiso   1.00
O110   O     0.57505   0.25001   0.21868   0.00000  Uiso   1.00
O111   O     0.42495   0.25000   0.19989   0.00000  Uiso   1.00
O112   O     0.57505   0.25000   0.30012   0.00000  Uiso   1.00
I113   I     0.57362   0.33303   0.13980   0.00000  Uiso   1.00
I114   I     0.40554   0.18451   0.35766   0.00000  Uiso   1.00
I115   I     0.46382   0.14744   0.02257   0.00000  Uiso   1.00
I116   I     0.61962   0.28118   0.48837   0.00000  Uiso   1.00
C117   C     0.83345   0.16497   0.25019   0.00000  Uiso   1.00
C118   C     0.83341   0.33498   0.24983   0.00000  Uiso   1.00
C119   C     0.85457   0.28355   0.05495   0.00000  Uiso   1.00
C120   C     0.79438   0.23160   0.44271   0.00000  Uiso   1.00
C121   C     0.85676   0.28340   0.10547   0.00000  Uiso   1.00
C122   C     0.79476   0.22944   0.39255   0.00000  Uiso   1.00
C123   C     0.81318   0.21420   0.10340   0.00000  Uiso   1.00
C124   C     0.87493   0.26761   0.39939   0.00000  Uiso   1.00
C125   C     0.81648   0.21059   0.05333   0.00000  Uiso   1.00
C126   C     0.87924   0.26470   0.45047   0.00000  Uiso   1.00
C127   C     0.83637   0.24662   0.02764   0.00000  Uiso   1.00
C128   C     0.83732   0.24748   0.47327   0.00000  Uiso   1.00
C129   C     0.73466   0.25021   0.23767   0.00000  Uiso   1.00
C130   C     0.93198   0.25078   0.26226   0.00000  Uiso   1.00
C131   C     0.67943   0.24997   0.23079   0.00000  Uiso   1.00
C132   C     0.98714   0.25264   0.26891   0.00000  Uiso   1.00
C133   C     0.82129   0.04674   0.29052   0.00000  Uiso   1.00
C134   C     0.81533   0.45241   0.20756   0.00000  Uiso   1.00
C135   C     0.82165   0.09268   0.29084   0.00000  Uiso   1.00
C136   C     0.81557   0.40647   0.20737   0.00000  Uiso   1.00
C137   C     0.83386   0.11668   0.25040   0.00000  Uiso   1.00
C138   C     0.83378   0.38320   0.24962   0.00000  Uiso   1.00
C139   C     0.84635   0.09420   0.20987   0.00000  Uiso   1.00
C140   C     0.85222   0.40627   0.29191   0.00000  Uiso   1.00
C141   C     0.84674   0.04830   0.20983   0.00000  Uiso   1.00
C142   C     0.85267   0.45218   0.29193   0.00000  Uiso   1.00
C143   C     0.83397   0.02419   0.25005   0.00000  Uiso   1.00
C144   C     0.83398   0.47563   0.24983   0.00000  Uiso   1.00
Cu145  Cu    0.83333   0.25000   0.29822   0.00000  Uiso   1.00
Cu146  Cu    0.83333   0.25001   0.20179   0.00000  Uiso   1.00
H147   H     0.99309   0.24700   0.19410   0.00000  Uiso   1.00
H148   H     0.67338   0.25634   0.30548   0.00000  Uiso   1.00
H149   H     0.81051   0.02889   0.32170   0.00000  Uiso   1.00
H150   H     0.79992   0.46972   0.17485   0.00000  Uiso   1.00
H151   H     0.81175   0.10932   0.32246   0.00000  Uiso   1.00
H152   H     0.80075   0.38917   0.17449   0.00000  Uiso   1.00
H153   H     0.85638   0.11205   0.17837   0.00000  Uiso   1.00
H154   H     0.86693   0.38885   0.32478   0.00000  Uiso   1.00
H155   H     0.85760   0.03171   0.17854   0.00000  Uiso   1.00
H156   H     0.86816   0.46931   0.32471   0.00000  Uiso   1.00
H157   H     0.86942   0.31221   0.03731   0.00000  Uiso   1.00
H158   H     0.76104   0.21865   0.45788   0.00000  Uiso   1.00
H159   H     0.79664   0.18693   0.12195   0.00000  Uiso   1.00
H160   H     0.90660   0.28196   0.38278   0.00000  Uiso   1.00
N161   N     0.83333   0.25001   0.12935   0.00000  Uiso   1.00
N162   N     0.83333   0.24999   0.37066   0.00000  Uiso   1.00
O163   O     0.83334   0.18573   0.29072   0.00000  Uiso   1.00
O164   O     0.83333   0.31428   0.20929   0.00000  Uiso   1.00
O165   O     0.83334   0.18573   0.20928   0.00000  Uiso   1.00
O166   O     0.83333   0.31427   0.29072   0.00000  Uiso   1.00
O167   O     0.75828   0.25000   0.28132   0.00000  Uiso   1.00
O168   O     0.90839   0.25001   0.21868   0.00000  Uiso   1.00
O169   O     0.75828   0.25000   0.19989   0.00000  Uiso   1.00
O170   O     0.90839   0.25000   0.30012   0.00000  Uiso   1.00
I171   I     0.90695   0.33303   0.13980   0.00000  Uiso   1.00
I172   I     0.73887   0.18451   0.35766   0.00000  Uiso   1.00
I173   I     0.79715   0.14744   0.02257   0.00000  Uiso   1.00
I174   I     0.95295   0.28118   0.48837   0.00000  Uiso   1.00
C175   C     0.16678   0.66497   0.25019   0.00000  Uiso   1.00
C176   C     0.16675   0.83498   0.24983   0.00000  Uiso   1.00
C177   C     0.18790   0.78355   0.05495   0.00000  Uiso   1.00
C178   C     0.12771   0.73160   0.44271   0.00000  Uiso   1.00
C179   C     0.19009   0.78340   0.10547   0.00000  Uiso   1.00
C180   C     0.12809   0.72944   0.39255   0.00000  Uiso   1.00
C181   C     0.14651   0.71420   0.10340   0.00000  Uiso   1.00
C182   C     0.20826   0.76761   0.39939   0.00000  Uiso   1.00
C183   C     0.14981   0.71059   0.05333   0.00000  Uiso   1.00
C184   C     0.21258   0.76470   0.45047   0.00000  Uiso   1.00
C185   C     0.16970   0.74662   0.02764   0.00000  Uiso   1.00
C186   C     0.17065   0.74748   0.47327   0.00000  Uiso   1.00
C187   C     0.06800   0.75021   0.23767   0.00000  Uiso   1.00
C188   C     0.26531   0.75078   0.26226   0.00000  Uiso   1.00
C189   C     0.01277   0.74997   0.23079   0.00000  Uiso   1.00
C190   C     0.32047   0.75264   0.26891   0.00000  Uiso   1.00
C191   C     0.15463   0.54674   0.29052   0.00000  Uiso   1.00
C192   C     0.14866   0.95241   0.20756   0.00000  Uiso   1.00
C193   C     0.15498   0.59268   0.29084   0.00000  Uiso   1.00
C194   C     0.14890   0.90647   0.20737   0.00000  Uiso   1.00
C195   C     0.16720   0.61668   0.25040   0.00000  Uiso   1.00
C196   C     0.16712   0.88320   0.24962   0.00000  Uiso   1.00
C197   C     0.17969   0.59420   0.20987   0.00000  Uiso   1.00
C198   C     0.18555   0.90627   0.29191   0.00000  Uiso   1.00
C199   C     0.18007   0.54830   0.20983   0.00000  Uiso   1.00
C200   C     0.18600   0.95218   0.29193   0.00000  Uiso   1.00
C201   C     0.16730   0.52419   0.25005   0.00000  Uiso   1.00
C202   C     0.16731   0.97563   0.24983   0.00000  Uiso   1.00
Cu203  Cu    0.16667   0.75000   0.29822   0.00000  Uiso   1.00
Cu204  Cu    0.16667   0.75001   0.20179   0.00000  Uiso   1.00
H205   H     0.32642   0.74700   0.19410   0.00000  Uiso   1.00
H206   H     0.00671   0.75634   0.30548   0.00000  Uiso   1.00
H207   H     0.14384   0.52889   0.32170   0.00000  Uiso   1.00
H208   H     0.13325   0.96972   0.17485   0.00000  Uiso   1.00
H209   H     0.14508   0.60932   0.32246   0.00000  Uiso   1.00
H210   H     0.13408   0.88917   0.17449   0.00000  Uiso   1.00
H211   H     0.18971   0.61205   0.17837   0.00000  Uiso   1.00
H212   H     0.20026   0.88885   0.32478   0.00000  Uiso   1.00
H213   H     0.19093   0.53171   0.17854   0.00000  Uiso   1.00
H214   H     0.20149   0.96931   0.32471   0.00000  Uiso   1.00
H215   H     0.20276   0.81221   0.03731   0.00000  Uiso   1.00
H216   H     0.09438   0.71865   0.45788   0.00000  Uiso   1.00
H217   H     0.12998   0.68693   0.12195   0.00000  Uiso   1.00
H218   H     0.23993   0.78196   0.38278   0.00000  Uiso   1.00
N219   N     0.16667   0.75001   0.12935   0.00000  Uiso   1.00
N220   N     0.16667   0.74999   0.37066   0.00000  Uiso   1.00
O221   O     0.16667   0.68573   0.29072   0.00000  Uiso   1.00
O222   O     0.16666   0.81428   0.20929   0.00000  Uiso   1.00
O223   O     0.16667   0.68573   0.20928   0.00000  Uiso   1.00
O224   O     0.16666   0.81427   0.29072   0.00000  Uiso   1.00
O225   O     0.09161   0.75000   0.28132   0.00000  Uiso   1.00
O226   O     0.24172   0.75001   0.21868   0.00000  Uiso   1.00
O227   O     0.09161   0.75000   0.19989   0.00000  Uiso   1.00
O228   O     0.24172   0.75000   0.30012   0.00000  Uiso   1.00
I229   I     0.24029   0.83303   0.13980   0.00000  Uiso   1.00
I230   I     0.07221   0.68451   0.35766   0.00000  Uiso   1.00
I231   I     0.13049   0.64744   0.02257   0.00000  Uiso   1.00
I232   I     0.28628   0.78118   0.48837   0.00000  Uiso   1.00
C233   C     0.50012   0.66497   0.25019   0.00000  Uiso   1.00
C234   C     0.50008   0.83498   0.24983   0.00000  Uiso   1.00
C235   C     0.52123   0.78355   0.05495   0.00000  Uiso   1.00
C236   C     0.46105   0.73160   0.44271   0.00000  Uiso   1.00
C237   C     0.52343   0.78340   0.10547   0.00000  Uiso   1.00
C238   C     0.46142   0.72944   0.39255   0.00000  Uiso   1.00
C239   C     0.47985   0.71420   0.10340   0.00000  Uiso   1.00
C240   C     0.54160   0.76761   0.39939   0.00000  Uiso   1.00
C241   C     0.48315   0.71059   0.05333   0.00000  Uiso   1.00
C242   C     0.54591   0.76470   0.45047   0.00000  Uiso   1.00
C243   C     0.50303   0.74662   0.02764   0.00000  Uiso   1.00
C244   C     0.50399   0.74748   0.47327   0.00000  Uiso   1.00
C245   C     0.40133   0.75021   0.23767   0.00000  Uiso   1.00
C246   C     0.59864   0.75078   0.26226   0.00000  Uiso   1.00
C247   C     0.34610   0.74997   0.23079   0.00000  Uiso   1.00
C248   C     0.65380   0.75264   0.26891   0.00000  Uiso   1.00
C249   C     0.48796   0.54674   0.29052   0.00000  Uiso   1.00
C250   C     0.48199   0.95241   0.20756   0.00000  Uiso   1.00
C251   C     0.48832   0.59268   0.29084   0.00000  Uiso   1.00
C252   C     0.48223   0.90647   0.20737   0.00000  Uiso   1.00
C253   C     0.50053   0.61668   0.25040   0.00000  Uiso   1.00
C254   C     0.50045   0.88320   0.24962   0.00000  Uiso   1.00
C255   C     0.51302   0.59420   0.20987   0.00000  Uiso   1.00
C256   C     0.51888   0.90627   0.29191   0.00000  Uiso   1.00
C257   C     0.51341   0.54830   0.20983   0.00000  Uiso   1.00
C258   C     0.51933   0.95218   0.29193   0.00000  Uiso   1.00
C259   C     0.50063   0.52419   0.25005   0.00000  Uiso   1.00
C260   C     0.50064   0.97563   0.24983   0.00000  Uiso   1.00
Cu261  Cu    0.50000   0.75000   0.29822   0.00000  Uiso   1.00
Cu262  Cu    0.50000   0.75001   0.20179   0.00000  Uiso   1.00
H263   H     0.65975   0.74700   0.19410   0.00000  Uiso   1.00
H264   H     0.34005   0.75634   0.30548   0.00000  Uiso   1.00
H265   H     0.47717   0.52889   0.32170   0.00000  Uiso   1.00
H266   H     0.46658   0.96972   0.17485   0.00000  Uiso   1.00
H267   H     0.47841   0.60932   0.32246   0.00000  Uiso   1.00
H268   H     0.46741   0.88917   0.17449   0.00000  Uiso   1.00
H269   H     0.52305   0.61205   0.17837   0.00000  Uiso   1.00
H270   H     0.53360   0.88885   0.32478   0.00000  Uiso   1.00
H271   H     0.52426   0.53171   0.17854   0.00000  Uiso   1.00
H272   H     0.53483   0.96931   0.32471   0.00000  Uiso   1.00
H273   H     0.53609   0.81221   0.03731   0.00000  Uiso   1.00
H274   H     0.42771   0.71865   0.45788   0.00000  Uiso   1.00
H275   H     0.46331   0.68693   0.12195   0.00000  Uiso   1.00
H276   H     0.57326   0.78196   0.38278   0.00000  Uiso   1.00
N277   N     0.50000   0.75001   0.12935   0.00000  Uiso   1.00
N278   N     0.50000   0.74999   0.37066   0.00000  Uiso   1.00
O279   O     0.50000   0.68573   0.29072   0.00000  Uiso   1.00
O280   O     0.50000   0.81428   0.20929   0.00000  Uiso   1.00
O281   O     0.50000   0.68573   0.20928   0.00000  Uiso   1.00
O282   O     0.50000   0.81427   0.29072   0.00000  Uiso   1.00
O283   O     0.42495   0.75000   0.28132   0.00000  Uiso   1.00
O284   O     0.57505   0.75001   0.21868   0.00000  Uiso   1.00
O285   O     0.42495   0.75000   0.19989   0.00000  Uiso   1.00
O286   O     0.57505   0.75000   0.30012   0.00000  Uiso   1.00
I287   I     0.57362   0.83303   0.13980   0.00000  Uiso   1.00
I288   I     0.40554   0.68451   0.35766   0.00000  Uiso   1.00
I289   I     0.46382   0.64744   0.02257   0.00000  Uiso   1.00
I290   I     0.61962   0.78118   0.48837   0.00000  Uiso   1.00
C291   C     0.83345   0.66497   0.25019   0.00000  Uiso   1.00
C292   C     0.83341   0.83498   0.24983   0.00000  Uiso   1.00
C293   C     0.85457   0.78355   0.05495   0.00000  Uiso   1.00
C294   C     0.79438   0.73160   0.44271   0.00000  Uiso   1.00
C295   C     0.85676   0.78340   0.10547   0.00000  Uiso   1.00
C296   C     0.79476   0.72944   0.39255   0.00000  Uiso   1.00
C297   C     0.81318   0.71420   0.10340   0.00000  Uiso   1.00
C298   C     0.87493   0.76761   0.39939   0.00000  Uiso   1.00
C299   C     0.81648   0.71059   0.05333   0.00000  Uiso   1.00
C300   C     0.87924   0.76470   0.45047   0.00000  Uiso   1.00
C301   C     0.83637   0.74662   0.02764   0.00000  Uiso   1.00
C302   C     0.83732   0.74748   0.47327   0.00000  Uiso   1.00
C303   C     0.73466   0.75021   0.23767   0.00000  Uiso   1.00
C304   C     0.93198   0.75078   0.26226   0.00000  Uiso   1.00
C305   C     0.67943   0.74997   0.23079   0.00000  Uiso   1.00
C306   C     0.98714   0.75264   0.26891   0.00000  Uiso   1.00
C307   C     0.82129   0.54674   0.29052   0.00000  Uiso   1.00
C308   C     0.81533   0.95241   0.20756   0.00000  Uiso   1.00
C309   C     0.82165   0.59268   0.29084   0.00000  Uiso   1.00
C310   C     0.81557   0.90647   0.20737   0.00000  Uiso   1.00
C311   C     0.83386   0.61668   0.25040   0.00000  Uiso   1.00
C312   C     0.83378   0.88320   0.24962   0.00000  Uiso   1.00
C313   C     0.84635   0.59420   0.20987   0.00000  Uiso   1.00
C314   C     0.85222   0.90627   0.29191   0.00000  Uiso   1.00
C315   C     0.84674   0.54830   0.20983   0.00000  Uiso   1.00
C316   C     0.85267   0.95218   0.29193   0.00000  Uiso   1.00
C317   C     0.83397   0.52419   0.25005   0.00000  Uiso   1.00
C318   C     0.83398   0.97563   0.24983   0.00000  Uiso   1.00
Cu319  Cu    0.83333   0.75000   0.29822   0.00000  Uiso   1.00
Cu320  Cu    0.83333   0.75001   0.20179   0.00000  Uiso   1.00
H321   H     0.99309   0.74700   0.19410   0.00000  Uiso   1.00
H322   H     0.67338   0.75634   0.30548   0.00000  Uiso   1.00
H323   H     0.81051   0.52889   0.32170   0.00000  Uiso   1.00
H324   H     0.79992   0.96972   0.17485   0.00000  Uiso   1.00
H325   H     0.81175   0.60932   0.32246   0.00000  Uiso   1.00
H326   H     0.80075   0.88917   0.17449   0.00000  Uiso   1.00
H327   H     0.85638   0.61205   0.17837   0.00000  Uiso   1.00
H328   H     0.86693   0.88885   0.32478   0.00000  Uiso   1.00
H329   H     0.85760   0.53171   0.17854   0.00000  Uiso   1.00
H330   H     0.86816   0.96931   0.32471   0.00000  Uiso   1.00
H331   H     0.86942   0.81221   0.03731   0.00000  Uiso   1.00
H332   H     0.76104   0.71865   0.45788   0.00000  Uiso   1.00
H333   H     0.79664   0.68693   0.12195   0.00000  Uiso   1.00
H334   H     0.90660   0.78196   0.38278   0.00000  Uiso   1.00
N335   N     0.83333   0.75001   0.12935   0.00000  Uiso   1.00
N336   N     0.83333   0.74999   0.37066   0.00000  Uiso   1.00
O337   O     0.83334   0.68573   0.29072   0.00000  Uiso   1.00
O338   O     0.83333   0.81428   0.20929   0.00000  Uiso   1.00
O339   O     0.83334   0.68573   0.20928   0.00000  Uiso   1.00
O340   O     0.83333   0.81427   0.29072   0.00000  Uiso   1.00
O341   O     0.75828   0.75000   0.28132   0.00000  Uiso   1.00
O342   O     0.90839   0.75001   0.21868   0.00000  Uiso   1.00
O343   O     0.75828   0.75000   0.19989   0.00000  Uiso   1.00
O344   O     0.90839   0.75000   0.30012   0.00000  Uiso   1.00
I345   I     0.90695   0.83303   0.13980   0.00000  Uiso   1.00
I346   I     0.73887   0.68451   0.35766   0.00000  Uiso   1.00
I347   I     0.79715   0.64744   0.02257   0.00000  Uiso   1.00
I348   I     0.95295   0.78118   0.48837   0.00000  Uiso   1.00
C349   C     0.16678   0.16497   0.75019   0.00000  Uiso   1.00
C350   C     0.16675   0.33498   0.74983   0.00000  Uiso   1.00
C351   C     0.18790   0.28355   0.55495   0.00000  Uiso   1.00
C352   C     0.12771   0.23160   0.94271   0.00000  Uiso   1.00
C353   C     0.19009   0.28340   0.60547   0.00000  Uiso   1.00
C354   C     0.12809   0.22944   0.89255   0.00000  Uiso   1.00
C355   C     0.14651   0.21420   0.60340   0.00000  Uiso   1.00
C356   C     0.20826   0.26761   0.89939   0.00000  Uiso   1.00
C357   C     0.14981   0.21059   0.55333   0.00000  Uiso   1.00
C358   C     0.21258   0.26470   0.95047   0.00000  Uiso   1.00
C359   C     0.16970   0.24662   0.52764   0.00000  Uiso   1.00
C360   C     0.17065   0.24748   0.97327   0.00000  Uiso   1.00
C361   C     0.06800   0.25021   0.73767   0.00000  Uiso   1.00
C362   C     0.26531   0.25078   0.76226   0.00000  Uiso   1.00
C363   C     0.01277   0.24997   0.73079   0.00000  Uiso   1.00
C364   C     0.32047   0.25264   0.76891   0.00000  Uiso   1.00
C365   C     0.15463   0.04674   0.79052   0.00000  Uiso   1.00
C366   C     0.14866   0.45241   0.70756   0.00000  Uiso   1.00
C367   C     0.15498   0.09268   0.79084   0.00000  Uiso   1.00
C368   C     0.14890   0.40647   0.70737   0.00000  Uiso   1.00
C369   C     0.16720   0.11668   0.75040   0.00000  Uiso   1.00
C370   C     0.16712   0.38320   0.74962   0.00000  Uiso   1.00
C371   C     0.17969   0.09420   0.70987   0.00000  Uiso   1.00
C372   C     0.18555   0.40627   0.79191   0.00000  Uiso   1.00
C373   C     0.18007   0.04830   0.70983   0.00000  Uiso   1.00
C374   C     0.18600   0.45218   0.79193   0.00000  Uiso   1.00
C375   C     0.16730   0.02419   0.75005   0.00000  Uiso   1.00
C376   C     0.16731   0.47563   0.74983   0.00000  Uiso   1.00
Cu377  Cu    0.16667   0.25000   0.79822   0.00000  Uiso   1.00
Cu378  Cu    0.16667   0.25001   0.70179   0.00000  Uiso   1.00
H379   H     0.32642   0.24700   0.69410   0.00000  Uiso   1.00
H380   H     0.00671   0.25634   0.80548   0.00000  Uiso   1.00
H381   H     0.14384   0.02889   0.82170   0.00000  Uiso   1.00
H382   H     0.13325   0.46972   0.67485   0.00000  Uiso   1.00
H383   H     0.14508   0.10932   0.82246   0.00000  Uiso   1.00
H384   H     0.13408   0.38917   0.67449   0.00000  Uiso   1.00
H385   H     0.18971   0.11205   0.67837   0.00000  Uiso   1.00
H386   H     0.20026   0.38885   0.82478   0.00000  Uiso   1.00
H387   H     0.19093   0.03171   0.67854   0.00000  Uiso   1.00
H388   H     0.20149   0.46931   0.82471   0.00000  Uiso   1.00
H389   H     0.20276   0.31221   0.53731   0.00000  Uiso   1.00
H390   H     0.09438   0.21865   0.95788   0.00000  Uiso   1.00
H391   H     0.12998   0.18693   0.62195   0.00000  Uiso   1.00
H392   H     0.23993   0.28196   0.88278   0.00000  Uiso   1.00
N393   N     0.16667   0.25001   0.62935   0.00000  Uiso   1.00
N394   N     0.16667   0.24999   0.87066   0.00000  Uiso   1.00
O395   O     0.16667   0.18573   0.79072   0.00000  Uiso   1.00
O396   O     0.16666   0.31428   0.70929   0.00000  Uiso   1.00
O397   O     0.16667   0.18573   0.70928   0.00000  Uiso   1.00
O398   O     0.16666   0.31427   0.79072   0.00000  Uiso   1.00
O399   O     0.09161   0.25000   0.78132   0.00000  Uiso   1.00
O400   O     0.24172   0.25001   0.71868   0.00000  Uiso   1.00
O401   O     0.09161   0.25000   0.69989   0.00000  Uiso   1.00
O402   O     0.24172   0.25000   0.80012   0.00000  Uiso   1.00
I403   I     0.24029   0.33303   0.63980   0.00000  Uiso   1.00
I404   I     0.07221   0.18451   0.85766   0.00000  Uiso   1.00
I405   I     0.13049   0.14744   0.52257   0.00000  Uiso   1.00
I406   I     0.28628   0.28118   0.98837   0.00000  Uiso   1.00
C407   C     0.50012   0.16497   0.75019   0.00000  Uiso   1.00
C408   C     0.50008   0.33498   0.74983   0.00000  Uiso   1.00
C409   C     0.52123   0.28355   0.55495   0.00000  Uiso   1.00
C410   C     0.46105   0.23160   0.94271   0.00000  Uiso   1.00
C411   C     0.52343   0.28340   0.60547   0.00000  Uiso   1.00
C412   C     0.46142   0.22944   0.89255   0.00000  Uiso   1.00
C413   C     0.47985   0.21420   0.60340   0.00000  Uiso   1.00
C414   C     0.54160   0.26761   0.89939   0.00000  Uiso   1.00
C415   C     0.48315   0.21059   0.55333   0.00000  Uiso   1.00
C416   C     0.54591   0.26470   0.95047   0.00000  Uiso   1.00
C417   C     0.50303   0.24662   0.52764   0.00000  Uiso   1.00
C418   C     0.50399   0.24748   0.97327   0.00000  Uiso   1.00
C419   C     0.40133   0.25021   0.73767   0.00000  Uiso   1.00
C420   C     0.59864   0.25078   0.76226   0.00000  Uiso   1.00
C421   C     0.34610   0.24997   0.73079   0.00000  Uiso   1.00
C422   C     0.65380   0.25264   0.76891   0.00000  Uiso   1.00
C423   C     0.48796   0.04674   0.79052   0.00000  Uiso   1.00
C424   C     0.48199   0.45241   0.70756   0.00000  Uiso   1.00
C425   C     0.48832   0.09268   0.79084   0.00000  Uiso   1.00
C426   C     0.48223   0.40647   0.70737   0.00000  Uiso   1.00
C427   C     0.50053   0.11668   0.75040   0.00000  Uiso   1.00
C428   C     0.50045   0.38320   0.74962   0.00000  Uiso   1.00
C429   C     0.51302   0.09420   0.70987   0.00000  Uiso   1.00
C430   C     0.51888   0.40627   0.79191   0.00000  Uiso   1.00
C431   C     0.51341   0.04830   0.70983   0.00000  Uiso   1.00
C432   C     0.51933   0.45218   0.79193   0.00000  Uiso   1.00
C433   C     0.50063   0.02419   0.75005   0.00000  Uiso   1.00
C434   C     0.50064   0.47563   0.74983   0.00000  Uiso   1.00
Cu435  Cu    0.50000   0.25000   0.79822   0.00000  Uiso   1.00
Cu436  Cu    0.50000   0.25001   0.70179   0.00000  Uiso   1.00
H437   H     0.65975   0.24700   0.69410   0.00000  Uiso   1.00
H438   H     0.34005   0.25634   0.80548   0.00000  Uiso   1.00
H439   H     0.47717   0.02889   0.82170   0.00000  Uiso   1.00
H440   H     0.46658   0.46972   0.67485   0.00000  Uiso   1.00
H441   H     0.47841   0.10932   0.82246   0.00000  Uiso   1.00
H442   H     0.46741   0.38917   0.67449   0.00000  Uiso   1.00
H443   H     0.52305   0.11205   0.67837   0.00000  Uiso   1.00
H444   H     0.53360   0.38885   0.82478   0.00000  Uiso   1.00
H445   H     0.52426   0.03171   0.67854   0.00000  Uiso   1.00
H446   H     0.53483   0.46931   0.82471   0.00000  Uiso   1.00
H447   H     0.53609   0.31221   0.53731   0.00000  Uiso   1.00
H448   H     0.42771   0.21865   0.95788   0.00000  Uiso   1.00
H449   H     0.46331   0.18693   0.62195   0.00000  Uiso   1.00
H450   H     0.57326   0.28196   0.88278   0.00000  Uiso   1.00
N451   N     0.50000   0.25001   0.62935   0.00000  Uiso   1.00
N452   N     0.50000   0.24999   0.87066   0.00000  Uiso   1.00
O453   O     0.50000   0.18573   0.79072   0.00000  Uiso   1.00
O454   O     0.50000   0.31428   0.70929   0.00000  Uiso   1.00
O455   O     0.50000   0.18573   0.70928   0.00000  Uiso   1.00
O456   O     0.50000   0.31427   0.79072   0.00000  Uiso   1.00
O457   O     0.42495   0.25000   0.78132   0.00000  Uiso   1.00
O458   O     0.57505   0.25001   0.71868   0.00000  Uiso   1.00
O459   O     0.42495   0.25000   0.69989   0.00000  Uiso   1.00
O460   O     0.57505   0.25000   0.80012   0.00000  Uiso   1.00
I461   I     0.57362   0.33303   0.63980   0.00000  Uiso   1.00
I462   I     0.40554   0.18451   0.85766   0.00000  Uiso   1.00
I463   I     0.46382   0.14744   0.52257   0.00000  Uiso   1.00
I464   I     0.61962   0.28118   0.98837   0.00000  Uiso   1.00
C465   C     0.83345   0.16497   0.75019   0.00000  Uiso   1.00
C466   C     0.83341   0.33498   0.74983   0.00000  Uiso   1.00
C467   C     0.85457   0.28355   0.55495   0.00000  Uiso   1.00
C468   C     0.79438   0.23160   0.94271   0.00000  Uiso   1.00
C469   C     0.85676   0.28340   0.60547   0.00000  Uiso   1.00
C470   C     0.79476   0.22944   0.89255   0.00000  Uiso   1.00
C471   C     0.81318   0.21420   0.60340   0.00000  Uiso   1.00
C472   C     0.87493   0.26761   0.89939   0.00000  Uiso   1.00
C473   C     0.81648   0.21059   0.55333   0.00000  Uiso   1.00
C474   C     0.87924   0.26470   0.95047   0.00000  Uiso   1.00
C475   C     0.83637   0.24662   0.52764   0.00000  Uiso   1.00
C476   C     0.83732   0.24748   0.97327   0.00000  Uiso   1.00
C477   C     0.73466   0.25021   0.73767   0.00000  Uiso   1.00
C478   C     0.93198   0.25078   0.76226   0.00000  Uiso   1.00
C479   C     0.67943   0.24997   0.73079   0.00000  Uiso   1.00
C480   C     0.98714   0.25264   0.76891   0.00000  Uiso   1.00
C481   C     0.82129   0.04674   0.79052   0.00000  Uiso   1.00
C482   C     0.81533   0.45241   0.70756   0.00000  Uiso   1.00
C483   C     0.82165   0.09268   0.79084   0.00000  Uiso   1.00
C484   C     0.81557   0.40647   0.70737   0.00000  Uiso   1.00
C485   C     0.83386   0.11668   0.75040   0.00000  Uiso   1.00
C486   C     0.83378   0.38320   0.74962   0.00000  Uiso   1.00
C487   C     0.84635   0.09420   0.70987   0.00000  Uiso   1.00
C488   C     0.85222   0.40627   0.79191   0.00000  Uiso   1.00
C489   C     0.84674   0.04830   0.70983   0.00000  Uiso   1.00
C490   C     0.85267   0.45218   0.79193   0.00000  Uiso   1.00
C491   C     0.83397   0.02419   0.75005   0.00000  Uiso   1.00
C492   C     0.83398   0.47563   0.74983   0.00000  Uiso   1.00
Cu493  Cu    0.83333   0.25000   0.79822   0.00000  Uiso   1.00
Cu494  Cu    0.83333   0.25001   0.70179   0.00000  Uiso   1.00
H495   H     0.99309   0.24700   0.69410   0.00000  Uiso   1.00
H496   H     0.67338   0.25634   0.80548   0.00000  Uiso   1.00
H497   H     0.81051   0.02889   0.82170   0.00000  Uiso   1.00
H498   H     0.79992   0.46972   0.67485   0.00000  Uiso   1.00
H499   H     0.81175   0.10932   0.82246   0.00000  Uiso   1.00
H500   H     0.80075   0.38917   0.67449   0.00000  Uiso   1.00
H501   H     0.85638   0.11205   0.67837   0.00000  Uiso   1.00
H502   H     0.86693   0.38885   0.82478   0.00000  Uiso   1.00
H503   H     0.85760   0.03171   0.67854   0.00000  Uiso   1.00
H504   H     0.86816   0.46931   0.82471   0.00000  Uiso   1.00
H505   H     0.86942   0.31221   0.53731   0.00000  Uiso   1.00
H506   H     0.76104   0.21865   0.95788   0.00000  Uiso   1.00
H507   H     0.79664   0.18693   0.62195   0.00000  Uiso   1.00
H508   H     0.90660   0.28196   0.88278   0.00000  Uiso   1.00
N509   N     0.83333   0.25001   0.62935   0.00000  Uiso   1.00
N510   N     0.83333   0.24999   0.87066   0.00000  Uiso   1.00
O511   O     0.83334   0.18573   0.79072   0.00000  Uiso   1.00
O512   O     0.83333   0.31428   0.70929   0.00000  Uiso   1.00
O513   O     0.83334   0.18573   0.70928   0.00000  Uiso   1.00
O514   O     0.83333   0.31427   0.79072   0.00000  Uiso   1.00
O515   O     0.75828   0.25000   0.78132   0.00000  Uiso   1.00
O516   O     0.90839   0.25001   0.71868   0.00000  Uiso   1.00
O517   O     0.75828   0.25000   0.69989   0.00000  Uiso   1.00
O518   O     0.90839   0.25000   0.80012   0.00000  Uiso   1.00
I519   I     0.90695   0.33303   0.63980   0.00000  Uiso   1.00
I520   I     0.73887   0.18451   0.85766   0.00000  Uiso   1.00
I521   I     0.79715   0.14744   0.52257   0.00000  Uiso   1.00
I522   I     0.95295   0.28118   0.98837   0.00000  Uiso   1.00
C523   C     0.16678   0.66497   0.75019   0.00000  Uiso   1.00
C524   C     0.16675   0.83498   0.74983   0.00000  Uiso   1.00
C525   C     0.18790   0.78355   0.55495   0.00000  Uiso   1.00
C526   C     0.12771   0.73160   0.94271   0.00000  Uiso   1.00
C527   C     0.19009   0.78340   0.60547   0.00000  Uiso   1.00
C528   C     0.12809   0.72944   0.89255   0.00000  Uiso   1.00
C529   C     0.14651   0.71420   0.60340   0.00000  Uiso   1.00
C530   C     0.20826   0.76761   0.89939   0.00000  Uiso   1.00
C531   C     0.14981   0.71059   0.55333   0.00000  Uiso   1.00
C532   C     0.21258   0.76470   0.95047   0.00000  Uiso   1.00
C533   C     0.16970   0.74662   0.52764   0.00000  Uiso   1.00
C534   C     0.17065   0.74748   0.97327   0.00000  Uiso   1.00
C535   C     0.06800   0.75021   0.73767   0.00000  Uiso   1.00
C536   C     0.26531   0.75078   0.76226   0.00000  Uiso   1.00
C537   C     0.01277   0.74997   0.73079   0.00000  Uiso   1.00
C538   C     0.32047   0.75264   0.76891   0.00000  Uiso   1.00
C539   C     0.15463   0.54674   0.79052   0.00000  Uiso   1.00
C540   C     0.14866   0.95241   0.70756   0.00000  Uiso   1.00
C541   C     0.15498   0.59268   0.79084   0.00000  Uiso   1.00
C542   C     0.14890   0.90647   0.70737   0.00000  Uiso   1.00
C543   C     0.16720   0.61668   0.75040   0.00000  Uiso   1.00
C544   C     0.16712   0.88320   0.74962   0.00000  Uiso   1.00
C545   C     0.17969   0.59420   0.70987   0.00000  Uiso   1.00
C546   C     0.18555   0.90627   0.79191   0.00000  Uiso   1.00
C547   C     0.18007   0.54830   0.70983   0.00000  Uiso   1.00
C548   C     0.18600   0.95218   0.79193   0.00000  Uiso   1.00
C549   C     0.16730   0.52419   0.75005   0.00000  Uiso   1.00
C550   C     0.16731   0.97563   0.74983   0.00000  Uiso   1.00
Cu551  Cu    0.16667   0.75000   0.79822   0.00000  Uiso   1.00
Cu552  Cu    0.16667   0.75001   0.70179   0.00000  Uiso   1.00
H553   H     0.32642   0.74700   0.69410   0.00000  Uiso   1.00
H554   H     0.00671   0.75634   0.80548   0.00000  Uiso   1.00
H555   H     0.14384   0.52889   0.82170   0.00000  Uiso   1.00
H556   H     0.13325   0.96972   0.67485   0.00000  Uiso   1.00
H557   H     0.14508   0.60932   0.82246   0.00000  Uiso   1.00
H558   H     0.13408   0.88917   0.67449   0.00000  Uiso   1.00
H559   H     0.18971   0.61205   0.67837   0.00000  Uiso   1.00
H560   H     0.20026   0.88885   0.82478   0.00000  Uiso   1.00
H561   H     0.19093   0.53171   0.67854   0.00000  Uiso   1.00
H562   H     0.20149   0.96931   0.82471   0.00000  Uiso   1.00
H563   H     0.20276   0.81221   0.53731   0.00000  Uiso   1.00
H564   H     0.09438   0.71865   0.95788   0.00000  Uiso   1.00
H565   H     0.12998   0.68693   0.62195   0.00000  Uiso   1.00
H566   H     0.23993   0.78196   0.88278   0.00000  Uiso   1.00
N567   N     0.16667   0.75001   0.62935   0.00000  Uiso   1.00
N568   N     0.16667   0.74999   0.87066   0.00000  Uiso   1.00
O569   O     0.16667   0.68573   0.79072   0.00000  Uiso   1.00
O570   O     0.16666   0.81428   0.70929   0.00000  Uiso   1.00
O571   O     0.16667   0.68573   0.70928   0.00000  Uiso   1.00
O572   O     0.16666   0.81427   0.79072   0.00000  Uiso   1.00
O573   O     0.09161   0.75000   0.78132   0.00000  Uiso   1.00
O574   O     0.24172   0.75001   0.71868   0.00000  Uiso   1.00
O575   O     0.09161   0.75000   0.69989   0.00000  Uiso   1.00
O576   O     0.24172   0.75000   0.80012   0.00000  Uiso   1.00
I577   I     0.24029   0.83303   0.63980   0.00000  Uiso   1.00
I578   I     0.07221   0.68451   0.85766   0.00000  Uiso   1.00
I579   I     0.13049   0.64744   0.52257   0.00000  Uiso   1.00
I580   I     0.28628   0.78118   0.98837   0.00000  Uiso   1.00
C581   C     0.50012   0.66497   0.75019   0.00000  Uiso   1.00
C582   C     0.50008   0.83498   0.74983   0.00000  Uiso   1.00
C583   C     0.52123   0.78355   0.55495   0.00000  Uiso   1.00
C584   C     0.46105   0.73160   0.94271   0.00000  Uiso   1.00
C585   C     0.52343   0.78340   0.60547   0.00000  Uiso   1.00
C586   C     0.46142   0.72944   0.89255   0.00000  Uiso   1.00
C587   C     0.47985   0.71420   0.60340   0.00000  Uiso   1.00
C588   C     0.54160   0.76761   0.89939   0.00000  Uiso   1.00
C589   C     0.48315   0.71059   0.55333   0.00000  Uiso   1.00
C590   C     0.54591   0.76470   0.95047   0.00000  Uiso   1.00
C591   C     0.50303   0.74662   0.52764   0.00000  Uiso   1.00
C592   C     0.50399   0.74748   0.97327   0.00000  Uiso   1.00
C593   C     0.40133   0.75021   0.73767   0.00000  Uiso   1.00
C594   C     0.59864   0.75078   0.76226   0.00000  Uiso   1.00
C595   C     0.34610   0.74997   0.73079   0.00000  Uiso   1.00
C596   C     0.65380   0.75264   0.76891   0.00000  Uiso   1.00
C597   C     0.48796   0.54674   0.79052   0.00000  Uiso   1.00
C598   C     0.48199   0.95241   0.70756   0.00000  Uiso   1.00
C599   C     0.48832   0.59268   0.79084   0.00000  Uiso   1.00
C600   C     0.48223   0.90647   0.70737   0.00000  Uiso   1.00
C601   C     0.50053   0.61668   0.75040   0.00000  Uiso   1.00
C602   C     0.50045   0.88320   0.74962   0.00000  Uiso   1.00
C603   C     0.51302   0.59420   0.70987   0.00000  Uiso   1.00
C604   C     0.51888   0.90627   0.79191   0.00000  Uiso   1.00
C605   C     0.51341   0.54830   0.70983   0.00000  Uiso   1.00
C606   C     0.51933   0.95218   0.79193   0.00000  Uiso   1.00
C607   C     0.50063   0.52419   0.75005   0.00000  Uiso   1.00
C608   C     0.50064   0.97563   0.74983   0.00000  Uiso   1.00
Cu609  Cu    0.50000   0.75000   0.79822   0.00000  Uiso   1.00
Cu610  Cu    0.50000   0.75001   0.70179   0.00000  Uiso   1.00
H611   H     0.65975   0.74700   0.69410   0.00000  Uiso   1.00
H612   H     0.34005   0.75634   0.80548   0.00000  Uiso   1.00
H613   H     0.47717   0.52889   0.82170   0.00000  Uiso   1.00
H614   H     0.46658   0.96972   0.67485   0.00000  Uiso   1.00
H615   H     0.47841   0.60932   0.82246   0.00000  Uiso   1.00
H616   H     0.46741   0.88917   0.67449   0.00000  Uiso   1.00
H617   H     0.52305   0.61205   0.67837   0.00000  Uiso   1.00
H618   H     0.53360   0.88885   0.82478   0.00000  Uiso   1.00
H619   H     0.52426   0.53171   0.67854   0.00000  Uiso   1.00
H620   H     0.53483   0.96931   0.82471   0.00000  Uiso   1.00
H621   H     0.53609   0.81221   0.53731   0.00000  Uiso   1.00
H622   H     0.42771   0.71865   0.95788   0.00000  Uiso   1.00
H623   H     0.46331   0.68693   0.62195   0.00000  Uiso   1.00
H624   H     0.57326   0.78196   0.88278   0.00000  Uiso   1.00
N625   N     0.50000   0.75001   0.62935   0.00000  Uiso   1.00
N626   N     0.50000   0.74999   0.87066   0.00000  Uiso   1.00
O627   O     0.50000   0.68573   0.79072   0.00000  Uiso   1.00
O628   O     0.50000   0.81428   0.70929   0.00000  Uiso   1.00
O629   O     0.50000   0.68573   0.70928   0.00000  Uiso   1.00
O630   O     0.50000   0.81427   0.79072   0.00000  Uiso   1.00
O631   O     0.42495   0.75000   0.78132   0.00000  Uiso   1.00
O632   O     0.57505   0.75001   0.71868   0.00000  Uiso   1.00
O633   O     0.42495   0.75000   0.69989   0.00000  Uiso   1.00
O634   O     0.57505   0.75000   0.80012   0.00000  Uiso   1.00
I635   I     0.57362   0.83303   0.63980   0.00000  Uiso   1.00
I636   I     0.40554   0.68451   0.85766   0.00000  Uiso   1.00
I637   I     0.46382   0.64744   0.52257   0.00000  Uiso   1.00
I638   I     0.61962   0.78118   0.98837   0.00000  Uiso   1.00
C639   C     0.83345   0.66497   0.75019   0.00000  Uiso   1.00
C640   C     0.83341   0.83498   0.74983   0.00000  Uiso   1.00
C641   C     0.85457   0.78355   0.55495   0.00000  Uiso   1.00
C642   C     0.79438   0.73160   0.94271   0.00000  Uiso   1.00
C643   C     0.85676   0.78340   0.60547   0.00000  Uiso   1.00
C644   C     0.79476   0.72944   0.89255   0.00000  Uiso   1.00
C645   C     0.81318   0.71420   0.60340   0.00000  Uiso   1.00
C646   C     0.87493   0.76761   0.89939   0.00000  Uiso   1.00
C647   C     0.81648   0.71059   0.55333   0.00000  Uiso   1.00
C648   C     0.87924   0.76470   0.95047   0.00000  Uiso   1.00
C649   C     0.83637   0.74662   0.52764   0.00000  Uiso   1.00
C650   C     0.83732   0.74748   0.97327   0.00000  Uiso   1.00
C651   C     0.73466   0.75021   0.73767   0.00000  Uiso   1.00
C652   C     0.93198   0.75078   0.76226   0.00000  Uiso   1.00
C653   C     0.67943   0.74997   0.73079   0.00000  Uiso   1.00
C654   C     0.98714   0.75264   0.76891   0.00000  Uiso   1.00
C655   C     0.82129   0.54674   0.79052   0.00000  Uiso   1.00
C656   C     0.81533   0.95241   0.70756   0.00000  Uiso   1.00
C657   C     0.82165   0.59268   0.79084   0.00000  Uiso   1.00
C658   C     0.81557   0.90647   0.70737   0.00000  Uiso   1.00
C659   C     0.83386   0.61668   0.75040   0.00000  Uiso   1.00
C660   C     0.83378   0.88320   0.74962   0.00000  Uiso   1.00
C661   C     0.84635   0.59420   0.70987   0.00000  Uiso   1.00
C662   C     0.85222   0.90627   0.79191   0.00000  Uiso   1.00
C663   C     0.84674   0.54830   0.70983   0.00000  Uiso   1.00
C664   C     0.85267   0.95218   0.79193   0.00000  Uiso   1.00
C665   C     0.83397   0.52419   0.75005   0.00000  Uiso   1.00
C666   C     0.83398   0.97563   0.74983   0.00000  Uiso   1.00
Cu667  Cu    0.83333   0.75000   0.79822   0.00000  Uiso   1.00
Cu668  Cu    0.83333   0.75001   0.70179   0.00000  Uiso   1.00
H669   H     0.99309   0.74700   0.69410   0.00000  Uiso   1.00
H670   H     0.67338   0.75634   0.80548   0.00000  Uiso   1.00
H671   H     0.81051   0.52889   0.82170   0.00000  Uiso   1.00
H672   H     0.79992   0.96972   0.67485   0.00000  Uiso   1.00
H673   H     0.81175   0.60932   0.82246   0.00000  Uiso   1.00
H674   H     0.80075   0.88917   0.67449   0.00000  Uiso   1.00
H675   H     0.85638   0.61205   0.67837   0.00000  Uiso   1.00
H676   H     0.86693   0.88885   0.82478   0.00000  Uiso   1.00
H677   H     0.85760   0.53171   0.67854   0.00000  Uiso   1.00
H678   H     0.86816   0.96931   0.82471   0.00000  Uiso   1.00
H679   H     0.86942   0.81221   0.53731   0.00000  Uiso   1.00
H680   H     0.76104   0.71865   0.95788   0.00000  Uiso   1.00
H681   H     0.79664   0.68693   0.62195   0.00000  Uiso   1.00
H682   H     0.90660   0.78196   0.88278   0.00000  Uiso   1.00
N683   N     0.83333   0.75001   0.62935   0.00000  Uiso   1.00
N684   N     0.83333   0.74999   0.87066   0.00000  Uiso   1.00
O685   O     0.83334   0.68573   0.79072   0.00000  Uiso   1.00
O686   O     0.83333   0.81428   0.70929   0.00000  Uiso   1.00
O687   O     0.83334   0.68573   0.70928   0.00000  Uiso   1.00
O688   O     0.83333   0.81427   0.79072   0.00000  Uiso   1.00
O689   O     0.75828   0.75000   0.78132   0.00000  Uiso   1.00
O690   O     0.90839   0.75001   0.71868   0.00000  Uiso   1.00
O691   O     0.75828   0.75000   0.69989   0.00000  Uiso   1.00
O692   O     0.90839   0.75000   0.80012   0.00000  Uiso   1.00
I693   I     0.90695   0.83303   0.63980   0.00000  Uiso   1.00
I694   I     0.73887   0.68451   0.85766   0.00000  Uiso   1.00
I695   I     0.79715   0.64744   0.52257   0.00000  Uiso   1.00
I696   I     0.95295   0.78118   0.98837   0.00000  Uiso   1.00
loop_
_geom_bond_atom_site_label_1
_geom_bond_atom_site_label_2
_geom_bond_distance
_geom_bond_site_symmetry_2
_ccdc_geom_bond_type
C1     C21     1.462   .     S
C1     O49     1.295   .     A
C1     O47     1.299   .     A
C2     C22     1.459   .     S
C2     O50     1.295   .     A
C2     O48     1.298   .     A
C3     C5      1.402   .     A
C3     C11     1.398   .     A
C3     H41     1.081   .     S
C4     H42     1.081   .     S
C4     C6      1.401   .     A
C4     C12     1.398   .     A
C5     N45     1.379   .     A
C5     I55     2.124   .     S
C6     I56     2.121   .     S
C6     N46     1.378   .     A
C7     H43     1.080   .     S
C7     N45     1.366   .     A
C7     C9      1.415   .     A
C8     C10     1.415   .     A
C8     N46     1.366   .     A
C8     H44     1.081   .     S
C9     I57     2.126   .     S
C9     C11     1.423   .     A
C10    C12     1.423   .     A
C10    I58     2.127   .     S
C11    C360    1.519   1_554 S
C12    C359    1.519   .     S
C13    C15     1.433   .     S
C13    O53     1.288   .     A
C13    O51     1.291   .     A
C14    O52     1.290   .     A
C14    C16     1.431   .     S
C14    O54     1.289   .     A
C15    C132    1.332   1_455 S
C15    H147    1.087   1_455 S
C16    C73     1.332   .     S
C16    H90     1.086   .     S
C17    H33     1.083   .     S
C17    C19     1.390   .     A
C17    C27     1.404   .     A
C18    H34     1.083   .     S
C18    C28     1.404   .     A
C18    C20     1.390   .     A
C19    H35     1.082   .     S
C19    C21     1.402   .     A
C20    H36     1.083   .     S
C20    C22     1.401   .     A
C21    C23     1.403   .     A
C22    C24     1.402   .     A
C23    C25     1.389   .     A
C23    H37     1.083   .     S
C24    H38     1.083   .     S
C24    C26     1.389   .     A
C25    H39     1.083   .     S
C25    C27     1.403   .     A
C26    H40     1.083   .     S
C26    C28     1.403   .     A
C27    C202    1.470   1_545 S
C28    C201    1.470   .     S
Cu29   Cu30    2.687   .     S
Cu29   N46     2.019   .     S
Cu29   O47     1.958   .     S
Cu29   O50     1.954   .     S
Cu29   O54     1.958   .     S
Cu29   O51     1.960   .     S
Cu30   N45     2.019   .     S
Cu30   O49     1.954   .     S
Cu30   O53     1.958   .     S
Cu30   O48     1.958   .     S
Cu30   O52     1.960   .     S
H31    C73     1.087   .     S
H32    C132    1.086   1_455 S
C59    C79     1.462   .     S
C59    O107    1.295   .     A
C59    O105    1.299   .     A
C60    C80     1.459   .     S
C60    O108    1.295   .     A
C60    O106    1.298   .     A
C61    C63     1.402   .     A
C61    C69     1.398   .     A
C61    H99     1.081   .     S
C62    H100    1.081   .     S
C62    C64     1.401   .     A
C62    C70     1.398   .     A
C63    N103    1.379   .     A
C63    I113    2.124   .     S
C64    I114    2.121   .     S
C64    N104    1.378   .     A
C65    H101    1.080   .     S
C65    N103    1.366   .     A
C65    C67     1.415   .     A
C66    C68     1.415   .     A
C66    N104    1.366   .     A
C66    H102    1.081   .     S
C67    I115    2.126   .     S
C67    C69     1.423   .     A
C68    C70     1.423   .     A
C68    I116    2.127   .     S
C69    C418    1.519   1_554 S
C70    C417    1.519   .     S
C71    C73     1.433   .     S
C71    O111    1.288   .     A
C71    O109    1.291   .     A
C72    O110    1.290   .     A
C72    C74     1.431   .     S
C72    O112    1.289   .     A
C74    C131    1.332   .     S
C74    H148    1.086   .     S
C75    H91     1.083   .     S
C75    C77     1.390   .     A
C75    C85     1.404   .     A
C76    H92     1.083   .     S
C76    C86     1.404   .     A
C76    C78     1.390   .     A
C77    H93     1.082   .     S
C77    C79     1.402   .     A
C78    H94     1.083   .     S
C78    C80     1.401   .     A
C79    C81     1.403   .     A
C80    C82     1.402   .     A
C81    C83     1.389   .     A
C81    H95     1.083   .     S
C82    H96     1.083   .     S
C82    C84     1.389   .     A
C83    H97     1.083   .     S
C83    C85     1.403   .     A
C84    H98     1.083   .     S
C84    C86     1.403   .     A
C85    C260    1.470   1_545 S
C86    C259    1.470   .     S
Cu87   Cu88    2.687   .     S
Cu87   N104    2.019   .     S
Cu87   O105    1.958   .     S
Cu87   O108    1.954   .     S
Cu87   O112    1.958   .     S
Cu87   O109    1.960   .     S
Cu88   N103    2.019   .     S
Cu88   O107    1.954   .     S
Cu88   O111    1.958   .     S
Cu88   O106    1.958   .     S
Cu88   O110    1.960   .     S
H89    C131    1.087   .     S
C117   C137    1.462   .     S
C117   O165    1.295   .     A
C117   O163    1.299   .     A
C118   C138    1.459   .     S
C118   O166    1.295   .     A
C118   O164    1.298   .     A
C119   C121    1.402   .     A
C119   C127    1.398   .     A
C119   H157    1.081   .     S
C120   H158    1.081   .     S
C120   C122    1.401   .     A
C120   C128    1.398   .     A
C121   N161    1.379   .     A
C121   I171    2.124   .     S
C122   I172    2.121   .     S
C122   N162    1.378   .     A
C123   H159    1.080   .     S
C123   N161    1.366   .     A
C123   C125    1.415   .     A
C124   C126    1.415   .     A
C124   N162    1.366   .     A
C124   H160    1.081   .     S
C125   I173    2.126   .     S
C125   C127    1.423   .     A
C126   C128    1.423   .     A
C126   I174    2.127   .     S
C127   C476    1.519   1_554 S
C128   C475    1.519   .     S
C129   C131    1.433   .     S
C129   O169    1.288   .     A
C129   O167    1.291   .     A
C130   O168    1.290   .     A
C130   C132    1.431   .     S
C130   O170    1.289   .     A
C132   C15     1.332   1_655 S
C132   H32     1.086   1_655 S
C133   H149    1.083   .     S
C133   C135    1.390   .     A
C133   C143    1.404   .     A
C134   H150    1.083   .     S
C134   C144    1.404   .     A
C134   C136    1.390   .     A
C135   H151    1.082   .     S
C135   C137    1.402   .     A
C136   H152    1.083   .     S
C136   C138    1.401   .     A
C137   C139    1.403   .     A
C138   C140    1.402   .     A
C139   C141    1.389   .     A
C139   H153    1.083   .     S
C140   H154    1.083   .     S
C140   C142    1.389   .     A
C141   H155    1.083   .     S
C141   C143    1.403   .     A
C142   H156    1.083   .     S
C142   C144    1.403   .     A
C143   C318    1.470   1_545 S
C144   C317    1.470   .     S
Cu145  Cu146   2.687   .     S
Cu145  N162    2.019   .     S
Cu145  O163    1.958   .     S
Cu145  O166    1.954   .     S
Cu145  O170    1.958   .     S
Cu145  O167    1.960   .     S
Cu146  N161    2.019   .     S
Cu146  O165    1.954   .     S
Cu146  O169    1.958   .     S
Cu146  O164    1.958   .     S
Cu146  O168    1.960   .     S
H147   C15     1.087   1_655 S
C175   C195    1.462   .     S
C175   O223    1.295   .     A
C175   O221    1.299   .     A
C176   C196    1.459   .     S
C176   O224    1.295   .     A
C176   O222    1.298   .     A
C177   C179    1.402   .     A
C177   C185    1.398   .     A
C177   H215    1.081   .     S
C178   H216    1.081   .     S
C178   C180    1.401   .     A
C178   C186    1.398   .     A
C179   N219    1.379   .     A
C179   I229    2.124   .     S
C180   I230    2.121   .     S
C180   N220    1.378   .     A
C181   H217    1.080   .     S
C181   N219    1.366   .     A
C181   C183    1.415   .     A
C182   C184    1.415   .     A
C182   N220    1.366   .     A
C182   H218    1.081   .     S
C183   I231    2.126   .     S
C183   C185    1.423   .     A
C184   C186    1.423   .     A
C184   I232    2.127   .     S
C185   C534    1.519   1_554 S
C186   C533    1.519   .     S
C187   C189    1.433   .     S
C187   O227    1.288   .     A
C187   O225    1.291   .     A
C188   O226    1.290   .     A
C188   C190    1.431   .     S
C188   O228    1.289   .     A
C189   C306    1.332   1_455 S
C189   H321    1.087   1_455 S
C190   C247    1.332   .     S
C190   H264    1.086   .     S
C191   H207    1.083   .     S
C191   C193    1.390   .     A
C191   C201    1.404   .     A
C192   H208    1.083   .     S
C192   C202    1.404   .     A
C192   C194    1.390   .     A
C193   H209    1.082   .     S
C193   C195    1.402   .     A
C194   H210    1.083   .     S
C194   C196    1.401   .     A
C195   C197    1.403   .     A
C196   C198    1.402   .     A
C197   C199    1.389   .     A
C197   H211    1.083   .     S
C198   H212    1.083   .     S
C198   C200    1.389   .     A
C199   H213    1.083   .     S
C199   C201    1.403   .     A
C200   H214    1.083   .     S
C200   C202    1.403   .     A
C202   C27     1.470   1_565 S
Cu203  Cu204   2.687   .     S
Cu203  N220    2.019   .     S
Cu203  O221    1.958   .     S
Cu203  O224    1.954   .     S
Cu203  O228    1.958   .     S
Cu203  O225    1.960   .     S
Cu204  N219    2.019   .     S
Cu204  O223    1.954   .     S
Cu204  O227    1.958   .     S
Cu204  O222    1.958   .     S
Cu204  O226    1.960   .     S
H205   C247    1.087   .     S
H206   C306    1.086   1_455 S
C233   C253    1.462   .     S
C233   O281    1.295   .     A
C233   O279    1.299   .     A
C234   C254    1.459   .     S
C234   O282    1.295   .     A
C234   O280    1.298   .     A
C235   C237    1.402   .     A
C235   C243    1.398   .     A
C235   H273    1.081   .     S
C236   H274    1.081   .     S
C236   C238    1.401   .     A
C236   C244    1.398   .     A
C237   N277    1.379   .     A
C237   I287    2.124   .     S
C238   I288    2.121   .     S
C238   N278    1.378   .     A
C239   H275    1.080   .     S
C239   N277    1.366   .     A
C239   C241    1.415   .     A
C240   C242    1.415   .     A
C240   N278    1.366   .     A
C240   H276    1.081   .     S
C241   I289    2.126   .     S
C241   C243    1.423   .     A
C242   C244    1.423   .     A
C242   I290    2.127   .     S
C243   C592    1.519   1_554 S
C244   C591    1.519   .     S
C245   C247    1.433   .     S
C245   O285    1.288   .     A
C245   O283    1.291   .     A
C246   O284    1.290   .     A
C246   C248    1.431   .     S
C246   O286    1.289   .     A
C248   C305    1.332   .     S
C248   H322    1.086   .     S
C249   H265    1.083   .     S
C249   C251    1.390   .     A
C249   C259    1.404   .     A
C250   H266    1.083   .     S
C250   C260    1.404   .     A
C250   C252    1.390   .     A
C251   H267    1.082   .     S
C251   C253    1.402   .     A
C252   H268    1.083   .     S
C252   C254    1.401   .     A
C253   C255    1.403   .     A
C254   C256    1.402   .     A
C255   C257    1.389   .     A
C255   H269    1.083   .     S
C256   H270    1.083   .     S
C256   C258    1.389   .     A
C257   H271    1.083   .     S
C257   C259    1.403   .     A
C258   H272    1.083   .     S
C258   C260    1.403   .     A
C260   C85     1.470   1_565 S
Cu261  Cu262   2.687   .     S
Cu261  N278    2.019   .     S
Cu261  O279    1.958   .     S
Cu261  O282    1.954   .     S
Cu261  O286    1.958   .     S
Cu261  O283    1.960   .     S
Cu262  N277    2.019   .     S
Cu262  O281    1.954   .     S
Cu262  O285    1.958   .     S
Cu262  O280    1.958   .     S
Cu262  O284    1.960   .     S
H263   C305    1.087   .     S
C291   C311    1.462   .     S
C291   O339    1.295   .     A
C291   O337    1.299   .     A
C292   C312    1.459   .     S
C292   O340    1.295   .     A
C292   O338    1.298   .     A
C293   C295    1.402   .     A
C293   C301    1.398   .     A
C293   H331    1.081   .     S
C294   H332    1.081   .     S
C294   C296    1.401   .     A
C294   C302    1.398   .     A
C295   N335    1.379   .     A
C295   I345    2.124   .     S
C296   I346    2.121   .     S
C296   N336    1.378   .     A
C297   H333    1.080   .     S
C297   N335    1.366   .     A
C297   C299    1.415   .     A
C298   C300    1.415   .     A
C298   N336    1.366   .     A
C298   H334    1.081   .     S
C299   I347    2.126   .     S
C299   C301    1.423   .     A
C300   C302    1.423   .     A
C300   I348    2.127   .     S
C301   C650    1.519   1_554 S
C302   C649    1.519   .     S
C303   C305    1.433   .     S
C303   O343    1.288   .     A
C303   O341    1.291   .     A
C304   O342    1.290   .     A
C304   C306    1.431   .     S
C304   O344    1.289   .     A
C306   C189    1.332   1_655 S
C306   H206    1.086   1_655 S
C307   H323    1.083   .     S
C307   C309    1.390   .     A
C307   C317    1.404   .     A
C308   H324    1.083   .     S
C308   C318    1.404   .     A
C308   C310    1.390   .     A
C309   H325    1.082   .     S
C309   C311    1.402   .     A
C310   H326    1.083   .     S
C310   C312    1.401   .     A
C311   C313    1.403   .     A
C312   C314    1.402   .     A
C313   C315    1.389   .     A
C313   H327    1.083   .     S
C314   H328    1.083   .     S
C314   C316    1.389   .     A
C315   H329    1.083   .     S
C315   C317    1.403   .     A
C316   H330    1.083   .     S
C316   C318    1.403   .     A
C318   C143    1.470   1_565 S
Cu319  Cu320   2.687   .     S
Cu319  N336    2.019   .     S
Cu319  O337    1.958   .     S
Cu319  O340    1.954   .     S
Cu319  O344    1.958   .     S
Cu319  O341    1.960   .     S
Cu320  N335    2.019   .     S
Cu320  O339    1.954   .     S
Cu320  O343    1.958   .     S
Cu320  O338    1.958   .     S
Cu320  O342    1.960   .     S
H321   C189    1.087   1_655 S
C349   C369    1.462   .     S
C349   O397    1.295   .     A
C349   O395    1.299   .     A
C350   C370    1.459   .     S
C350   O398    1.295   .     A
C350   O396    1.298   .     A
C351   C353    1.402   .     A
C351   C359    1.398   .     A
C351   H389    1.081   .     S
C352   H390    1.081   .     S
C352   C354    1.401   .     A
C352   C360    1.398   .     A
C353   N393    1.379   .     A
C353   I403    2.124   .     S
C354   I404    2.121   .     S
C354   N394    1.378   .     A
C355   H391    1.080   .     S
C355   N393    1.366   .     A
C355   C357    1.415   .     A
C356   C358    1.415   .     A
C356   N394    1.366   .     A
C356   H392    1.081   .     S
C357   I405    2.126   .     S
C357   C359    1.423   .     A
C358   C360    1.423   .     A
C358   I406    2.127   .     S
C360   C11     1.519   1_556 S
C361   C363    1.433   .     S
C361   O401    1.288   .     A
C361   O399    1.291   .     A
C362   O400    1.290   .     A
C362   C364    1.431   .     S
C362   O402    1.289   .     A
C363   C480    1.332   1_455 S
C363   H495    1.087   1_455 S
C364   C421    1.332   .     S
C364   H438    1.086   .     S
C365   H381    1.083   .     S
C365   C367    1.390   .     A
C365   C375    1.404   .     A
C366   H382    1.083   .     S
C366   C376    1.404   .     A
C366   C368    1.390   .     A
C367   H383    1.082   .     S
C367   C369    1.402   .     A
C368   H384    1.083   .     S
C368   C370    1.401   .     A
C369   C371    1.403   .     A
C370   C372    1.402   .     A
C371   C373    1.389   .     A
C371   H385    1.083   .     S
C372   H386    1.083   .     S
C372   C374    1.389   .     A
C373   H387    1.083   .     S
C373   C375    1.403   .     A
C374   H388    1.083   .     S
C374   C376    1.403   .     A
C375   C550    1.470   1_545 S
C376   C549    1.470   .     S
Cu377  Cu378   2.687   .     S
Cu377  N394    2.019   .     S
Cu377  O395    1.958   .     S
Cu377  O398    1.954   .     S
Cu377  O402    1.958   .     S
Cu377  O399    1.960   .     S
Cu378  N393    2.019   .     S
Cu378  O397    1.954   .     S
Cu378  O401    1.958   .     S
Cu378  O396    1.958   .     S
Cu378  O400    1.960   .     S
H379   C421    1.087   .     S
H380   C480    1.086   1_455 S
C407   C427    1.462   .     S
C407   O455    1.295   .     A
C407   O453    1.299   .     A
C408   C428    1.459   .     S
C408   O456    1.295   .     A
C408   O454    1.298   .     A
C409   C411    1.402   .     A
C409   C417    1.398   .     A
C409   H447    1.081   .     S
C410   H448    1.081   .     S
C410   C412    1.401   .     A
C410   C418    1.398   .     A
C411   N451    1.379   .     A
C411   I461    2.124   .     S
C412   I462    2.121   .     S
C412   N452    1.378   .     A
C413   H449    1.080   .     S
C413   N451    1.366   .     A
C413   C415    1.415   .     A
C414   C416    1.415   .     A
C414   N452    1.366   .     A
C414   H450    1.081   .     S
C415   I463    2.126   .     S
C415   C417    1.423   .     A
C416   C418    1.423   .     A
C416   I464    2.127   .     S
C418   C69     1.519   1_556 S
C419   C421    1.433   .     S
C419   O459    1.288   .     A
C419   O457    1.291   .     A
C420   O458    1.290   .     A
C420   C422    1.431   .     S
C420   O460    1.289   .     A
C422   C479    1.332   .     S
C422   H496    1.086   .     S
C423   H439    1.083   .     S
C423   C425    1.390   .     A
C423   C433    1.404   .     A
C424   H440    1.083   .     S
C424   C434    1.404   .     A
C424   C426    1.390   .     A
C425   H441    1.082   .     S
C425   C427    1.402   .     A
C426   H442    1.083   .     S
C426   C428    1.401   .     A
C427   C429    1.403   .     A
C428   C430    1.402   .     A
C429   C431    1.389   .     A
C429   H443    1.083   .     S
C430   H444    1.083   .     S
C430   C432    1.389   .     A
C431   H445    1.083   .     S
C431   C433    1.403   .     A
C432   H446    1.083   .     S
C432   C434    1.403   .     A
C433   C608    1.470   1_545 S
C434   C607    1.470   .     S
Cu435  Cu436   2.687   .     S
Cu435  N452    2.019   .     S
Cu435  O453    1.958   .     S
Cu435  O456    1.954   .     S
Cu435  O460    1.958   .     S
Cu435  O457    1.960   .     S
Cu436  N451    2.019   .     S
Cu436  O455    1.954   .     S
Cu436  O459    1.958   .     S
Cu436  O454    1.958   .     S
Cu436  O458    1.960   .     S
H437   C479    1.087   .     S
C465   C485    1.462   .     S
C465   O513    1.295   .     A
C465   O511    1.299   .     A
C466   C486    1.459   .     S
C466   O514    1.295   .     A
C466   O512    1.298   .     A
C467   C469    1.402   .     A
C467   C475    1.398   .     A
C467   H505    1.081   .     S
C468   H506    1.081   .     S
C468   C470    1.401   .     A
C468   C476    1.398   .     A
C469   N509    1.379   .     A
C469   I519    2.124   .     S
C470   I520    2.121   .     S
C470   N510    1.378   .     A
C471   H507    1.080   .     S
C471   N509    1.366   .     A
C471   C473    1.415   .     A
C472   C474    1.415   .     A
C472   N510    1.366   .     A
C472   H508    1.081   .     S
C473   I521    2.126   .     S
C473   C475    1.423   .     A
C474   C476    1.423   .     A
C474   I522    2.127   .     S
C476   C127    1.519   1_556 S
C477   C479    1.433   .     S
C477   O517    1.288   .     A
C477   O515    1.291   .     A
C478   O516    1.290   .     A
C478   C480    1.431   .     S
C478   O518    1.289   .     A
C480   C363    1.332   1_655 S
C480   H380    1.086   1_655 S
C481   H497    1.083   .     S
C481   C483    1.390   .     A
C481   C491    1.404   .     A
C482   H498    1.083   .     S
C482   C492    1.404   .     A
C482   C484    1.390   .     A
C483   H499    1.082   .     S
C483   C485    1.402   .     A
C484   H500    1.083   .     S
C484   C486    1.401   .     A
C485   C487    1.403   .     A
C486   C488    1.402   .     A
C487   C489    1.389   .     A
C487   H501    1.083   .     S
C488   H502    1.083   .     S
C488   C490    1.389   .     A
C489   H503    1.083   .     S
C489   C491    1.403   .     A
C490   H504    1.083   .     S
C490   C492    1.403   .     A
C491   C666    1.470   1_545 S
C492   C665    1.470   .     S
Cu493  Cu494   2.687   .     S
Cu493  N510    2.019   .     S
Cu493  O511    1.958   .     S
Cu493  O514    1.954   .     S
Cu493  O518    1.958   .     S
Cu493  O515    1.960   .     S
Cu494  N509    2.019   .     S
Cu494  O513    1.954   .     S
Cu494  O517    1.958   .     S
Cu494  O512    1.958   .     S
Cu494  O516    1.960   .     S
H495   C363    1.087   1_655 S
C523   C543    1.462   .     S
C523   O571    1.295   .     A
C523   O569    1.299   .     A
C524   C544    1.459   .     S
C524   O572    1.295   .     A
C524   O570    1.298   .     A
C525   C527    1.402   .     A
C525   C533    1.398   .     A
C525   H563    1.081   .     S
C526   H564    1.081   .     S
C526   C528    1.401   .     A
C526   C534    1.398   .     A
C527   N567    1.379   .     A
C527   I577    2.124   .     S
C528   I578    2.121   .     S
C528   N568    1.378   .     A
C529   H565    1.080   .     S
C529   N567    1.366   .     A
C529   C531    1.415   .     A
C530   C532    1.415   .     A
C530   N568    1.366   .     A
C530   H566    1.081   .     S
C531   I579    2.126   .     S
C531   C533    1.423   .     A
C532   C534    1.423   .     A
C532   I580    2.127   .     S
C534   C185    1.519   1_556 S
C535   C537    1.433   .     S
C535   O575    1.288   .     A
C535   O573    1.291   .     A
C536   O574    1.290   .     A
C536   C538    1.431   .     S
C536   O576    1.289   .     A
C537   C654    1.332   1_455 S
C537   H669    1.087   1_455 S
C538   C595    1.332   .     S
C538   H612    1.086   .     S
C539   H555    1.083   .     S
C539   C541    1.390   .     A
C539   C549    1.404   .     A
C540   H556    1.083   .     S
C540   C550    1.404   .     A
C540   C542    1.390   .     A
C541   H557    1.082   .     S
C541   C543    1.402   .     A
C542   H558    1.083   .     S
C542   C544    1.401   .     A
C543   C545    1.403   .     A
C544   C546    1.402   .     A
C545   C547    1.389   .     A
C545   H559    1.083   .     S
C546   H560    1.083   .     S
C546   C548    1.389   .     A
C547   H561    1.083   .     S
C547   C549    1.403   .     A
C548   H562    1.083   .     S
C548   C550    1.403   .     A
C550   C375    1.470   1_565 S
Cu551  Cu552   2.687   .     S
Cu551  N568    2.019   .     S
Cu551  O569    1.958   .     S
Cu551  O572    1.954   .     S
Cu551  O576    1.958   .     S
Cu551  O573    1.960   .     S
Cu552  N567    2.019   .     S
Cu552  O571    1.954   .     S
Cu552  O575    1.958   .     S
Cu552  O570    1.958   .     S
Cu552  O574    1.960   .     S
H553   C595    1.087   .     S
H554   C654    1.086   1_455 S
C581   C601    1.462   .     S
C581   O629    1.295   .     A
C581   O627    1.299   .     A
C582   C602    1.459   .     S
C582   O630    1.295   .     A
C582   O628    1.298   .     A
C583   C585    1.402   .     A
C583   C591    1.398   .     A
C583   H621    1.081   .     S
C584   H622    1.081   .     S
C584   C586    1.401   .     A
C584   C592    1.398   .     A
C585   N625    1.379   .     A
C585   I635    2.124   .     S
C586   I636    2.121   .     S
C586   N626    1.378   .     A
C587   H623    1.080   .     S
C587   N625    1.366   .     A
C587   C589    1.415   .     A
C588   C590    1.415   .     A
C588   N626    1.366   .     A
C588   H624    1.081   .     S
C589   I637    2.126   .     S
C589   C591    1.423   .     A
C590   C592    1.423   .     A
C590   I638    2.127   .     S
C592   C243    1.519   1_556 S
C593   C595    1.433   .     S
C593   O633    1.288   .     A
C593   O631    1.291   .     A
C594   O632    1.290   .     A
C594   C596    1.431   .     S
C594   O634    1.289   .     A
C596   C653    1.332   .     S
C596   H670    1.086   .     S
C597   H613    1.083   .     S
C597   C599    1.390   .     A
C597   C607    1.404   .     A
C598   H614    1.083   .     S
C598   C608    1.404   .     A
C598   C600    1.390   .     A
C599   H615    1.082   .     S
C599   C601    1.402   .     A
C600   H616    1.083   .     S
C600   C602    1.401   .     A
C601   C603    1.403   .     A
C602   C604    1.402   .     A
C603   C605    1.389   .     A
C603   H617    1.083   .     S
C604   H618    1.083   .     S
C604   C606    1.389   .     A
C605   H619    1.083   .     S
C605   C607    1.403   .     A
C606   H620    1.083   .     S
C606   C608    1.403   .     A
C608   C433    1.470   1_565 S
Cu609  Cu610   2.687   .     S
Cu609  N626    2.019   .     S
Cu609  O627    1.958   .     S
Cu609  O630    1.954   .     S
Cu609  O634    1.958   .     S
Cu609  O631    1.960   .     S
Cu610  N625    2.019   .     S
Cu610  O629    1.954   .     S
Cu610  O633    1.958   .     S
Cu610  O628    1.958   .     S
Cu610  O632    1.960   .     S
H611   C653    1.087   .     S
C639   C659    1.462   .     S
C639   O687    1.295   .     A
C639   O685    1.299   .     A
C640   C660    1.459   .     S
C640   O688    1.295   .     A
C640   O686    1.298   .     A
C641   C643    1.402   .     A
C641   C649    1.398   .     A
C641   H679    1.081   .     S
C642   H680    1.081   .     S
C642   C644    1.401   .     A
C642   C650    1.398   .     A
C643   N683    1.379   .     A
C643   I693    2.124   .     S
C644   I694    2.121   .     S
C644   N684    1.378   .     A
C645   H681    1.080   .     S
C645   N683    1.366   .     A
C645   C647    1.415   .     A
C646   C648    1.415   .     A
C646   N684    1.366   .     A
C646   H682    1.081   .     S
C647   I695    2.126   .     S
C647   C649    1.423   .     A
C648   C650    1.423   .     A
C648   I696    2.127   .     S
C650   C301    1.519   1_556 S
C651   C653    1.433   .     S
C651   O691    1.288   .     A
C651   O689    1.291   .     A
C652   O690    1.290   .     A
C652   C654    1.431   .     S
C652   O692    1.289   .     A
C654   C537    1.332   1_655 S
C654   H554    1.086   1_655 S
C655   H671    1.083   .     S
C655   C657    1.390   .     A
C655   C665    1.404   .     A
C656   H672    1.083   .     S
C656   C666    1.404   .     A
C656   C658    1.390   .     A
C657   H673    1.082   .     S
C657   C659    1.402   .     A
C658   H674    1.083   .     S
C658   C660    1.401   .     A
C659   C661    1.403   .     A
C660   C662    1.402   .     A
C661   C663    1.389   .     A
C661   H675    1.083   .     S
C662   H676    1.083   .     S
C662   C664    1.389   .     A
C663   H677    1.083   .     S
C663   C665    1.403   .     A
C664   H678    1.083   .     S
C664   C666    1.403   .     A
C666   C491    1.470   1_565 S
Cu667  Cu668   2.687   .     S
Cu667  N684    2.019   .     S
Cu667  O685    1.958   .     S
Cu667  O688    1.954   .     S
Cu667  O692    1.958   .     S
Cu667  O689    1.960   .     S
Cu668  N683    2.019   .     S
Cu668  O687    1.954   .     S
Cu668  O691    1.958   .     S
Cu668  O686    1.958   .     S
Cu668  O690    1.960   .     S
H669   C537    1.087   1_655 S
