data_str_m2_o2_o10_pcu_sym.255
_audit_creation_date              2020-01-03
_audit_creation_method            'Materials Studio'
_symmetry_space_group_name_H-M    'P1'
_symmetry_Int_Tables_number       1
_symmetry_cell_setting            triclinic
loop_
_symmetry_equiv_pos_as_xyz
  x,y,z
_cell_length_a                    26.4484
_cell_length_b                    30.3197
_cell_length_c                    27.7009
_cell_angle_alpha                 90.7459
_cell_angle_beta                  97.6449
_cell_angle_gamma                 90.0433
loop_
_atom_site_label
_atom_site_type_symbol
_atom_site_fract_x
_atom_site_fract_y
_atom_site_fract_z
_atom_site_U_iso_or_equiv
_atom_site_adp_type
_atom_site_occupancy
C1     C     0.16586   0.16492   0.24953   0.00000  Uiso   1.00
C2     C     0.16607   0.33515   0.25034   0.00000  Uiso   1.00
C3     C     0.20765   0.26794   0.05934   0.00000  Uiso   1.00
C4     C     0.14015   0.21764   0.44225   0.00000  Uiso   1.00
C5     C     0.20673   0.26786   0.10998   0.00000  Uiso   1.00
C6     C     0.14042   0.21832   0.39153   0.00000  Uiso   1.00
C7     C     0.12635   0.23263   0.09926   0.00000  Uiso   1.00
C8     C     0.19275   0.28183   0.39898   0.00000  Uiso   1.00
C9     C     0.12540   0.23261   0.04839   0.00000  Uiso   1.00
C10    C     0.19291   0.28271   0.44977   0.00000  Uiso   1.00
C11    C     0.16655   0.25023   0.02727   0.00000  Uiso   1.00
C12    C     0.16654   0.25020   0.47260   0.00000  Uiso   1.00
C13    C     0.06814   0.24935   0.23782   0.00000  Uiso   1.00
C14    C     0.26519   0.25046   0.26220   0.00000  Uiso   1.00
C15    C     0.01369   0.24373   0.23192   0.00000  Uiso   1.00
C16    C     0.31969   0.25575   0.26821   0.00000  Uiso   1.00
C17    C     0.18926   0.04863   0.29091   0.00000  Uiso   1.00
C18    C     0.18370   0.45172   0.21164   0.00000  Uiso   1.00
C19    C     0.18777   0.09441   0.29041   0.00000  Uiso   1.00
C20    C     0.18240   0.40594   0.21201   0.00000  Uiso   1.00
C21    C     0.16568   0.11656   0.24868   0.00000  Uiso   1.00
C22    C     0.16606   0.38364   0.25130   0.00000  Uiso   1.00
C23    C     0.14434   0.09192   0.20715   0.00000  Uiso   1.00
C24    C     0.15055   0.40833   0.29061   0.00000  Uiso   1.00
C25    C     0.14629   0.04601   0.20798   0.00000  Uiso   1.00
C26    C     0.15229   0.45424   0.28991   0.00000  Uiso   1.00
C27    C     0.16866   0.02427   0.24968   0.00000  Uiso   1.00
C28    C     0.16875   0.47602   0.25060   0.00000  Uiso   1.00
Cu29   Cu    0.16667   0.25000   0.29821   0.00000  Uiso   1.00
Cu30   Cu    0.16667   0.25001   0.20178   0.00000  Uiso   1.00
H31    H     0.20685   0.03220   0.32336   0.00000  Uiso   1.00
H32    H     0.19674   0.46821   0.18109   0.00000  Uiso   1.00
H33    H     0.20448   0.11255   0.32258   0.00000  Uiso   1.00
H34    H     0.19469   0.38796   0.18160   0.00000  Uiso   1.00
H35    H     0.12921   0.02707   0.17648   0.00000  Uiso   1.00
H36    H     0.13968   0.47316   0.31958   0.00000  Uiso   1.00
H37    H     0.24082   0.28137   0.04571   0.00000  Uiso   1.00
H38    H     0.11989   0.19127   0.45737   0.00000  Uiso   1.00
H39    H     0.23841   0.28214   0.13375   0.00000  Uiso   1.00
H40    H     0.11965   0.19323   0.36887   0.00000  Uiso   1.00
H41    H     0.09437   0.21888   0.11453   0.00000  Uiso   1.00
H42    H     0.21340   0.30692   0.38218   0.00000  Uiso   1.00
H43    H     0.09212   0.21937   0.02594   0.00000  Uiso   1.00
H44    H     0.21308   0.30918   0.47071   0.00000  Uiso   1.00
N45    N     0.16667   0.25001   0.12934   0.00000  Uiso   1.00
N46    N     0.16667   0.24999   0.37065   0.00000  Uiso   1.00
O47    O     0.16667   0.18573   0.29071   0.00000  Uiso   1.00
O48    O     0.16666   0.31428   0.20928   0.00000  Uiso   1.00
O49    O     0.16667   0.18573   0.20928   0.00000  Uiso   1.00
O50    O     0.16666   0.31427   0.29072   0.00000  Uiso   1.00
O51    O     0.09161   0.25000   0.28132   0.00000  Uiso   1.00
O52    O     0.24172   0.25001   0.21868   0.00000  Uiso   1.00
O53    O     0.09161   0.25000   0.19988   0.00000  Uiso   1.00
O54    O     0.24172   0.25000   0.30011   0.00000  Uiso   1.00
C55    C     0.32528   0.22014   0.18791   0.00000  Uiso   1.00
N56    N     0.30826   0.20127   0.15289   0.00000  Uiso   1.00
C57    C     0.00825   0.27856   0.31269   0.00000  Uiso   1.00
N58    N     0.02545   0.29669   0.34814   0.00000  Uiso   1.00
C59    C     0.11815   0.11232   0.16407   0.00000  Uiso   1.00
N60    N     0.09703   0.12840   0.12946   0.00000  Uiso   1.00
C61    C     0.13112   0.38807   0.33137   0.00000  Uiso   1.00
N62    N     0.11553   0.37200   0.36409   0.00000  Uiso   1.00
C63    C     0.49920   0.16492   0.24953   0.00000  Uiso   1.00
C64    C     0.49940   0.33515   0.25034   0.00000  Uiso   1.00
C65    C     0.54098   0.26794   0.05934   0.00000  Uiso   1.00
C66    C     0.47349   0.21764   0.44225   0.00000  Uiso   1.00
C67    C     0.54006   0.26786   0.10998   0.00000  Uiso   1.00
C68    C     0.47376   0.21832   0.39153   0.00000  Uiso   1.00
C69    C     0.45968   0.23263   0.09926   0.00000  Uiso   1.00
C70    C     0.52608   0.28183   0.39898   0.00000  Uiso   1.00
C71    C     0.45874   0.23261   0.04839   0.00000  Uiso   1.00
C72    C     0.52624   0.28271   0.44977   0.00000  Uiso   1.00
C73    C     0.49988   0.25023   0.02727   0.00000  Uiso   1.00
C74    C     0.49987   0.25020   0.47260   0.00000  Uiso   1.00
C75    C     0.40148   0.24935   0.23782   0.00000  Uiso   1.00
C76    C     0.59853   0.25046   0.26220   0.00000  Uiso   1.00
C77    C     0.34702   0.24373   0.23192   0.00000  Uiso   1.00
C78    C     0.65302   0.25575   0.26821   0.00000  Uiso   1.00
C79    C     0.52260   0.04863   0.29091   0.00000  Uiso   1.00
C80    C     0.51703   0.45172   0.21164   0.00000  Uiso   1.00
C81    C     0.52111   0.09441   0.29041   0.00000  Uiso   1.00
C82    C     0.51573   0.40594   0.21201   0.00000  Uiso   1.00
C83    C     0.49902   0.11656   0.24868   0.00000  Uiso   1.00
C84    C     0.49939   0.38364   0.25130   0.00000  Uiso   1.00
C85    C     0.47767   0.09192   0.20715   0.00000  Uiso   1.00
C86    C     0.48389   0.40833   0.29061   0.00000  Uiso   1.00
C87    C     0.47963   0.04601   0.20798   0.00000  Uiso   1.00
C88    C     0.48562   0.45424   0.28991   0.00000  Uiso   1.00
C89    C     0.50199   0.02427   0.24968   0.00000  Uiso   1.00
C90    C     0.50208   0.47602   0.25060   0.00000  Uiso   1.00
Cu91   Cu    0.50000   0.25000   0.29821   0.00000  Uiso   1.00
Cu92   Cu    0.50000   0.25001   0.20178   0.00000  Uiso   1.00
H93    H     0.54018   0.03220   0.32336   0.00000  Uiso   1.00
H94    H     0.53008   0.46821   0.18109   0.00000  Uiso   1.00
H95    H     0.53781   0.11255   0.32258   0.00000  Uiso   1.00
H96    H     0.52803   0.38796   0.18160   0.00000  Uiso   1.00
H97    H     0.46254   0.02707   0.17648   0.00000  Uiso   1.00
H98    H     0.47301   0.47316   0.31958   0.00000  Uiso   1.00
H99    H     0.57415   0.28137   0.04571   0.00000  Uiso   1.00
H100   H     0.45322   0.19127   0.45737   0.00000  Uiso   1.00
H101   H     0.57175   0.28214   0.13375   0.00000  Uiso   1.00
H102   H     0.45299   0.19323   0.36887   0.00000  Uiso   1.00
H103   H     0.42770   0.21888   0.11453   0.00000  Uiso   1.00
H104   H     0.54673   0.30692   0.38218   0.00000  Uiso   1.00
H105   H     0.42545   0.21937   0.02594   0.00000  Uiso   1.00
H106   H     0.54641   0.30918   0.47071   0.00000  Uiso   1.00
N107   N     0.50000   0.25001   0.12934   0.00000  Uiso   1.00
N108   N     0.50000   0.24999   0.37065   0.00000  Uiso   1.00
O109   O     0.50000   0.18573   0.29071   0.00000  Uiso   1.00
O110   O     0.50000   0.31428   0.20928   0.00000  Uiso   1.00
O111   O     0.50000   0.18573   0.20928   0.00000  Uiso   1.00
O112   O     0.50000   0.31427   0.29072   0.00000  Uiso   1.00
O113   O     0.42495   0.25000   0.28132   0.00000  Uiso   1.00
O114   O     0.57505   0.25001   0.21868   0.00000  Uiso   1.00
O115   O     0.42495   0.25000   0.19988   0.00000  Uiso   1.00
O116   O     0.57505   0.25000   0.30011   0.00000  Uiso   1.00
C117   C     0.65861   0.22014   0.18791   0.00000  Uiso   1.00
N118   N     0.64159   0.20127   0.15289   0.00000  Uiso   1.00
C119   C     0.34158   0.27856   0.31269   0.00000  Uiso   1.00
N120   N     0.35878   0.29669   0.34814   0.00000  Uiso   1.00
C121   C     0.45149   0.11232   0.16407   0.00000  Uiso   1.00
N122   N     0.43036   0.12840   0.12946   0.00000  Uiso   1.00
C123   C     0.46445   0.38807   0.33137   0.00000  Uiso   1.00
N124   N     0.44886   0.37200   0.36409   0.00000  Uiso   1.00
C125   C     0.83253   0.16492   0.24953   0.00000  Uiso   1.00
C126   C     0.83273   0.33515   0.25034   0.00000  Uiso   1.00
C127   C     0.87432   0.26794   0.05934   0.00000  Uiso   1.00
C128   C     0.80682   0.21764   0.44225   0.00000  Uiso   1.00
C129   C     0.87340   0.26786   0.10998   0.00000  Uiso   1.00
C130   C     0.80709   0.21832   0.39153   0.00000  Uiso   1.00
C131   C     0.79301   0.23263   0.09926   0.00000  Uiso   1.00
C132   C     0.85942   0.28183   0.39898   0.00000  Uiso   1.00
C133   C     0.79207   0.23261   0.04839   0.00000  Uiso   1.00
C134   C     0.85957   0.28271   0.44977   0.00000  Uiso   1.00
C135   C     0.83322   0.25023   0.02727   0.00000  Uiso   1.00
C136   C     0.83320   0.25020   0.47260   0.00000  Uiso   1.00
C137   C     0.73481   0.24935   0.23782   0.00000  Uiso   1.00
C138   C     0.93186   0.25046   0.26220   0.00000  Uiso   1.00
C139   C     0.68035   0.24373   0.23192   0.00000  Uiso   1.00
C140   C     0.98635   0.25575   0.26821   0.00000  Uiso   1.00
C141   C     0.85593   0.04863   0.29091   0.00000  Uiso   1.00
C142   C     0.85036   0.45172   0.21164   0.00000  Uiso   1.00
C143   C     0.85444   0.09441   0.29041   0.00000  Uiso   1.00
C144   C     0.84906   0.40594   0.21201   0.00000  Uiso   1.00
C145   C     0.83235   0.11656   0.24868   0.00000  Uiso   1.00
C146   C     0.83272   0.38364   0.25130   0.00000  Uiso   1.00
C147   C     0.81101   0.09192   0.20715   0.00000  Uiso   1.00
C148   C     0.81722   0.40833   0.29061   0.00000  Uiso   1.00
C149   C     0.81296   0.04601   0.20798   0.00000  Uiso   1.00
C150   C     0.81896   0.45424   0.28991   0.00000  Uiso   1.00
C151   C     0.83533   0.02427   0.24968   0.00000  Uiso   1.00
C152   C     0.83542   0.47602   0.25060   0.00000  Uiso   1.00
Cu153  Cu    0.83333   0.25000   0.29821   0.00000  Uiso   1.00
Cu154  Cu    0.83333   0.25001   0.20178   0.00000  Uiso   1.00
H155   H     0.87351   0.03220   0.32336   0.00000  Uiso   1.00
H156   H     0.86341   0.46821   0.18109   0.00000  Uiso   1.00
H157   H     0.87114   0.11255   0.32258   0.00000  Uiso   1.00
H158   H     0.86136   0.38796   0.18160   0.00000  Uiso   1.00
H159   H     0.79588   0.02707   0.17648   0.00000  Uiso   1.00
H160   H     0.80635   0.47316   0.31958   0.00000  Uiso   1.00
H161   H     0.90749   0.28137   0.04571   0.00000  Uiso   1.00
H162   H     0.78656   0.19127   0.45737   0.00000  Uiso   1.00
H163   H     0.90508   0.28214   0.13375   0.00000  Uiso   1.00
H164   H     0.78632   0.19323   0.36887   0.00000  Uiso   1.00
H165   H     0.76104   0.21888   0.11453   0.00000  Uiso   1.00
H166   H     0.88006   0.30692   0.38218   0.00000  Uiso   1.00
H167   H     0.75879   0.21937   0.02594   0.00000  Uiso   1.00
H168   H     0.87975   0.30918   0.47071   0.00000  Uiso   1.00
N169   N     0.83333   0.25001   0.12934   0.00000  Uiso   1.00
N170   N     0.83333   0.24999   0.37065   0.00000  Uiso   1.00
O171   O     0.83334   0.18573   0.29071   0.00000  Uiso   1.00
O172   O     0.83333   0.31428   0.20928   0.00000  Uiso   1.00
O173   O     0.83334   0.18573   0.20928   0.00000  Uiso   1.00
O174   O     0.83333   0.31427   0.29072   0.00000  Uiso   1.00
O175   O     0.75828   0.25000   0.28132   0.00000  Uiso   1.00
O176   O     0.90839   0.25001   0.21868   0.00000  Uiso   1.00
O177   O     0.75828   0.25000   0.19988   0.00000  Uiso   1.00
O178   O     0.90839   0.25000   0.30011   0.00000  Uiso   1.00
C179   C     0.99194   0.22014   0.18791   0.00000  Uiso   1.00
N180   N     0.97492   0.20127   0.15289   0.00000  Uiso   1.00
C181   C     0.67492   0.27856   0.31269   0.00000  Uiso   1.00
N182   N     0.69212   0.29669   0.34814   0.00000  Uiso   1.00
C183   C     0.78482   0.11232   0.16407   0.00000  Uiso   1.00
N184   N     0.76369   0.12840   0.12946   0.00000  Uiso   1.00
C185   C     0.79778   0.38807   0.33137   0.00000  Uiso   1.00
N186   N     0.78220   0.37200   0.36409   0.00000  Uiso   1.00
C187   C     0.16586   0.66492   0.24953   0.00000  Uiso   1.00
C188   C     0.16607   0.83515   0.25034   0.00000  Uiso   1.00
C189   C     0.20765   0.76794   0.05934   0.00000  Uiso   1.00
C190   C     0.14015   0.71764   0.44225   0.00000  Uiso   1.00
C191   C     0.20673   0.76786   0.10998   0.00000  Uiso   1.00
C192   C     0.14042   0.71832   0.39153   0.00000  Uiso   1.00
C193   C     0.12635   0.73263   0.09926   0.00000  Uiso   1.00
C194   C     0.19275   0.78183   0.39898   0.00000  Uiso   1.00
C195   C     0.12540   0.73261   0.04839   0.00000  Uiso   1.00
C196   C     0.19291   0.78271   0.44977   0.00000  Uiso   1.00
C197   C     0.16655   0.75023   0.02727   0.00000  Uiso   1.00
C198   C     0.16654   0.75020   0.47260   0.00000  Uiso   1.00
C199   C     0.06814   0.74935   0.23782   0.00000  Uiso   1.00
C200   C     0.26519   0.75046   0.26220   0.00000  Uiso   1.00
C201   C     0.01369   0.74373   0.23192   0.00000  Uiso   1.00
C202   C     0.31969   0.75575   0.26821   0.00000  Uiso   1.00
C203   C     0.18926   0.54863   0.29091   0.00000  Uiso   1.00
C204   C     0.18370   0.95172   0.21164   0.00000  Uiso   1.00
C205   C     0.18777   0.59441   0.29041   0.00000  Uiso   1.00
C206   C     0.18240   0.90594   0.21201   0.00000  Uiso   1.00
C207   C     0.16568   0.61656   0.24868   0.00000  Uiso   1.00
C208   C     0.16606   0.88364   0.25130   0.00000  Uiso   1.00
C209   C     0.14434   0.59192   0.20715   0.00000  Uiso   1.00
C210   C     0.15055   0.90833   0.29061   0.00000  Uiso   1.00
C211   C     0.14629   0.54601   0.20798   0.00000  Uiso   1.00
C212   C     0.15229   0.95424   0.28991   0.00000  Uiso   1.00
C213   C     0.16866   0.52427   0.24968   0.00000  Uiso   1.00
C214   C     0.16875   0.97602   0.25060   0.00000  Uiso   1.00
Cu215  Cu    0.16667   0.75000   0.29821   0.00000  Uiso   1.00
Cu216  Cu    0.16667   0.75001   0.20178   0.00000  Uiso   1.00
H217   H     0.20685   0.53220   0.32336   0.00000  Uiso   1.00
H218   H     0.19674   0.96821   0.18109   0.00000  Uiso   1.00
H219   H     0.20448   0.61255   0.32258   0.00000  Uiso   1.00
H220   H     0.19469   0.88796   0.18160   0.00000  Uiso   1.00
H221   H     0.12921   0.52707   0.17648   0.00000  Uiso   1.00
H222   H     0.13968   0.97316   0.31958   0.00000  Uiso   1.00
H223   H     0.24082   0.78137   0.04571   0.00000  Uiso   1.00
H224   H     0.11989   0.69127   0.45737   0.00000  Uiso   1.00
H225   H     0.23841   0.78214   0.13375   0.00000  Uiso   1.00
H226   H     0.11965   0.69323   0.36887   0.00000  Uiso   1.00
H227   H     0.09437   0.71888   0.11453   0.00000  Uiso   1.00
H228   H     0.21340   0.80692   0.38218   0.00000  Uiso   1.00
H229   H     0.09212   0.71937   0.02594   0.00000  Uiso   1.00
H230   H     0.21308   0.80918   0.47071   0.00000  Uiso   1.00
N231   N     0.16667   0.75001   0.12934   0.00000  Uiso   1.00
N232   N     0.16667   0.74999   0.37065   0.00000  Uiso   1.00
O233   O     0.16667   0.68573   0.29071   0.00000  Uiso   1.00
O234   O     0.16666   0.81428   0.20928   0.00000  Uiso   1.00
O235   O     0.16667   0.68573   0.20928   0.00000  Uiso   1.00
O236   O     0.16666   0.81427   0.29072   0.00000  Uiso   1.00
O237   O     0.09161   0.75000   0.28132   0.00000  Uiso   1.00
O238   O     0.24172   0.75001   0.21868   0.00000  Uiso   1.00
O239   O     0.09161   0.75000   0.19988   0.00000  Uiso   1.00
O240   O     0.24172   0.75000   0.30011   0.00000  Uiso   1.00
C241   C     0.32528   0.72014   0.18791   0.00000  Uiso   1.00
N242   N     0.30826   0.70127   0.15289   0.00000  Uiso   1.00
C243   C     0.00825   0.77856   0.31269   0.00000  Uiso   1.00
N244   N     0.02545   0.79669   0.34814   0.00000  Uiso   1.00
C245   C     0.11815   0.61232   0.16407   0.00000  Uiso   1.00
N246   N     0.09703   0.62840   0.12946   0.00000  Uiso   1.00
C247   C     0.13112   0.88807   0.33137   0.00000  Uiso   1.00
N248   N     0.11553   0.87200   0.36409   0.00000  Uiso   1.00
C249   C     0.49920   0.66492   0.24953   0.00000  Uiso   1.00
C250   C     0.49940   0.83515   0.25034   0.00000  Uiso   1.00
C251   C     0.54098   0.76794   0.05934   0.00000  Uiso   1.00
C252   C     0.47349   0.71764   0.44225   0.00000  Uiso   1.00
C253   C     0.54006   0.76786   0.10998   0.00000  Uiso   1.00
C254   C     0.47376   0.71832   0.39153   0.00000  Uiso   1.00
C255   C     0.45968   0.73263   0.09926   0.00000  Uiso   1.00
C256   C     0.52608   0.78183   0.39898   0.00000  Uiso   1.00
C257   C     0.45874   0.73261   0.04839   0.00000  Uiso   1.00
C258   C     0.52624   0.78271   0.44977   0.00000  Uiso   1.00
C259   C     0.49988   0.75023   0.02727   0.00000  Uiso   1.00
C260   C     0.49987   0.75020   0.47260   0.00000  Uiso   1.00
C261   C     0.40148   0.74935   0.23782   0.00000  Uiso   1.00
C262   C     0.59853   0.75046   0.26220   0.00000  Uiso   1.00
C263   C     0.34702   0.74373   0.23192   0.00000  Uiso   1.00
C264   C     0.65302   0.75575   0.26821   0.00000  Uiso   1.00
C265   C     0.52260   0.54863   0.29091   0.00000  Uiso   1.00
C266   C     0.51703   0.95172   0.21164   0.00000  Uiso   1.00
C267   C     0.52111   0.59441   0.29041   0.00000  Uiso   1.00
C268   C     0.51573   0.90594   0.21201   0.00000  Uiso   1.00
C269   C     0.49902   0.61656   0.24868   0.00000  Uiso   1.00
C270   C     0.49939   0.88364   0.25130   0.00000  Uiso   1.00
C271   C     0.47767   0.59192   0.20715   0.00000  Uiso   1.00
C272   C     0.48389   0.90833   0.29061   0.00000  Uiso   1.00
C273   C     0.47963   0.54601   0.20798   0.00000  Uiso   1.00
C274   C     0.48562   0.95424   0.28991   0.00000  Uiso   1.00
C275   C     0.50199   0.52427   0.24968   0.00000  Uiso   1.00
C276   C     0.50208   0.97602   0.25060   0.00000  Uiso   1.00
Cu277  Cu    0.50000   0.75000   0.29821   0.00000  Uiso   1.00
Cu278  Cu    0.50000   0.75001   0.20178   0.00000  Uiso   1.00
H279   H     0.54018   0.53220   0.32336   0.00000  Uiso   1.00
H280   H     0.53008   0.96821   0.18109   0.00000  Uiso   1.00
H281   H     0.53781   0.61255   0.32258   0.00000  Uiso   1.00
H282   H     0.52803   0.88796   0.18160   0.00000  Uiso   1.00
H283   H     0.46254   0.52707   0.17648   0.00000  Uiso   1.00
H284   H     0.47301   0.97316   0.31958   0.00000  Uiso   1.00
H285   H     0.57415   0.78137   0.04571   0.00000  Uiso   1.00
H286   H     0.45322   0.69127   0.45737   0.00000  Uiso   1.00
H287   H     0.57175   0.78214   0.13375   0.00000  Uiso   1.00
H288   H     0.45299   0.69323   0.36887   0.00000  Uiso   1.00
H289   H     0.42770   0.71888   0.11453   0.00000  Uiso   1.00
H290   H     0.54673   0.80692   0.38218   0.00000  Uiso   1.00
H291   H     0.42545   0.71937   0.02594   0.00000  Uiso   1.00
H292   H     0.54641   0.80918   0.47071   0.00000  Uiso   1.00
N293   N     0.50000   0.75001   0.12934   0.00000  Uiso   1.00
N294   N     0.50000   0.74999   0.37065   0.00000  Uiso   1.00
O295   O     0.50000   0.68573   0.29071   0.00000  Uiso   1.00
O296   O     0.50000   0.81428   0.20928   0.00000  Uiso   1.00
O297   O     0.50000   0.68573   0.20928   0.00000  Uiso   1.00
O298   O     0.50000   0.81427   0.29072   0.00000  Uiso   1.00
O299   O     0.42495   0.75000   0.28132   0.00000  Uiso   1.00
O300   O     0.57505   0.75001   0.21868   0.00000  Uiso   1.00
O301   O     0.42495   0.75000   0.19988   0.00000  Uiso   1.00
O302   O     0.57505   0.75000   0.30011   0.00000  Uiso   1.00
C303   C     0.65861   0.72014   0.18791   0.00000  Uiso   1.00
N304   N     0.64159   0.70127   0.15289   0.00000  Uiso   1.00
C305   C     0.34158   0.77856   0.31269   0.00000  Uiso   1.00
N306   N     0.35878   0.79669   0.34814   0.00000  Uiso   1.00
C307   C     0.45149   0.61232   0.16407   0.00000  Uiso   1.00
N308   N     0.43036   0.62840   0.12946   0.00000  Uiso   1.00
C309   C     0.46445   0.88807   0.33137   0.00000  Uiso   1.00
N310   N     0.44886   0.87200   0.36409   0.00000  Uiso   1.00
C311   C     0.83253   0.66492   0.24953   0.00000  Uiso   1.00
C312   C     0.83273   0.83515   0.25034   0.00000  Uiso   1.00
C313   C     0.87432   0.76794   0.05934   0.00000  Uiso   1.00
C314   C     0.80682   0.71764   0.44225   0.00000  Uiso   1.00
C315   C     0.87340   0.76786   0.10998   0.00000  Uiso   1.00
C316   C     0.80709   0.71832   0.39153   0.00000  Uiso   1.00
C317   C     0.79301   0.73263   0.09926   0.00000  Uiso   1.00
C318   C     0.85942   0.78183   0.39898   0.00000  Uiso   1.00
C319   C     0.79207   0.73261   0.04839   0.00000  Uiso   1.00
C320   C     0.85957   0.78271   0.44977   0.00000  Uiso   1.00
C321   C     0.83322   0.75023   0.02727   0.00000  Uiso   1.00
C322   C     0.83320   0.75020   0.47260   0.00000  Uiso   1.00
C323   C     0.73481   0.74935   0.23782   0.00000  Uiso   1.00
C324   C     0.93186   0.75046   0.26220   0.00000  Uiso   1.00
C325   C     0.68035   0.74373   0.23192   0.00000  Uiso   1.00
C326   C     0.98635   0.75575   0.26821   0.00000  Uiso   1.00
C327   C     0.85593   0.54863   0.29091   0.00000  Uiso   1.00
C328   C     0.85036   0.95172   0.21164   0.00000  Uiso   1.00
C329   C     0.85444   0.59441   0.29041   0.00000  Uiso   1.00
C330   C     0.84906   0.90594   0.21201   0.00000  Uiso   1.00
C331   C     0.83235   0.61656   0.24868   0.00000  Uiso   1.00
C332   C     0.83272   0.88364   0.25130   0.00000  Uiso   1.00
C333   C     0.81101   0.59192   0.20715   0.00000  Uiso   1.00
C334   C     0.81722   0.90833   0.29061   0.00000  Uiso   1.00
C335   C     0.81296   0.54601   0.20798   0.00000  Uiso   1.00
C336   C     0.81896   0.95424   0.28991   0.00000  Uiso   1.00
C337   C     0.83533   0.52427   0.24968   0.00000  Uiso   1.00
C338   C     0.83542   0.97602   0.25060   0.00000  Uiso   1.00
Cu339  Cu    0.83333   0.75000   0.29821   0.00000  Uiso   1.00
Cu340  Cu    0.83333   0.75001   0.20178   0.00000  Uiso   1.00
H341   H     0.87351   0.53220   0.32336   0.00000  Uiso   1.00
H342   H     0.86341   0.96821   0.18109   0.00000  Uiso   1.00
H343   H     0.87114   0.61255   0.32258   0.00000  Uiso   1.00
H344   H     0.86136   0.88796   0.18160   0.00000  Uiso   1.00
H345   H     0.79588   0.52707   0.17648   0.00000  Uiso   1.00
H346   H     0.80635   0.97316   0.31958   0.00000  Uiso   1.00
H347   H     0.90749   0.78137   0.04571   0.00000  Uiso   1.00
H348   H     0.78656   0.69127   0.45737   0.00000  Uiso   1.00
H349   H     0.90508   0.78214   0.13375   0.00000  Uiso   1.00
H350   H     0.78632   0.69323   0.36887   0.00000  Uiso   1.00
H351   H     0.76104   0.71888   0.11453   0.00000  Uiso   1.00
H352   H     0.88006   0.80692   0.38218   0.00000  Uiso   1.00
H353   H     0.75879   0.71937   0.02594   0.00000  Uiso   1.00
H354   H     0.87975   0.80918   0.47071   0.00000  Uiso   1.00
N355   N     0.83333   0.75001   0.12934   0.00000  Uiso   1.00
N356   N     0.83333   0.74999   0.37065   0.00000  Uiso   1.00
O357   O     0.83334   0.68573   0.29071   0.00000  Uiso   1.00
O358   O     0.83333   0.81428   0.20928   0.00000  Uiso   1.00
O359   O     0.83334   0.68573   0.20928   0.00000  Uiso   1.00
O360   O     0.83333   0.81427   0.29072   0.00000  Uiso   1.00
O361   O     0.75828   0.75000   0.28132   0.00000  Uiso   1.00
O362   O     0.90839   0.75001   0.21868   0.00000  Uiso   1.00
O363   O     0.75828   0.75000   0.19988   0.00000  Uiso   1.00
O364   O     0.90839   0.75000   0.30011   0.00000  Uiso   1.00
C365   C     0.99194   0.72014   0.18791   0.00000  Uiso   1.00
N366   N     0.97492   0.70127   0.15289   0.00000  Uiso   1.00
C367   C     0.67492   0.77856   0.31269   0.00000  Uiso   1.00
N368   N     0.69212   0.79669   0.34814   0.00000  Uiso   1.00
C369   C     0.78482   0.61232   0.16407   0.00000  Uiso   1.00
N370   N     0.76369   0.62840   0.12946   0.00000  Uiso   1.00
C371   C     0.79778   0.88807   0.33137   0.00000  Uiso   1.00
N372   N     0.78220   0.87200   0.36409   0.00000  Uiso   1.00
C373   C     0.16586   0.16492   0.74953   0.00000  Uiso   1.00
C374   C     0.16607   0.33515   0.75034   0.00000  Uiso   1.00
C375   C     0.20765   0.26794   0.55934   0.00000  Uiso   1.00
C376   C     0.14015   0.21764   0.94225   0.00000  Uiso   1.00
C377   C     0.20673   0.26786   0.60998   0.00000  Uiso   1.00
C378   C     0.14042   0.21832   0.89153   0.00000  Uiso   1.00
C379   C     0.12635   0.23263   0.59926   0.00000  Uiso   1.00
C380   C     0.19275   0.28183   0.89898   0.00000  Uiso   1.00
C381   C     0.12540   0.23261   0.54839   0.00000  Uiso   1.00
C382   C     0.19291   0.28271   0.94977   0.00000  Uiso   1.00
C383   C     0.16655   0.25023   0.52727   0.00000  Uiso   1.00
C384   C     0.16654   0.25020   0.97260   0.00000  Uiso   1.00
C385   C     0.06814   0.24935   0.73782   0.00000  Uiso   1.00
C386   C     0.26519   0.25046   0.76220   0.00000  Uiso   1.00
C387   C     0.01369   0.24373   0.73192   0.00000  Uiso   1.00
C388   C     0.31969   0.25575   0.76821   0.00000  Uiso   1.00
C389   C     0.18926   0.04863   0.79091   0.00000  Uiso   1.00
C390   C     0.18370   0.45172   0.71164   0.00000  Uiso   1.00
C391   C     0.18777   0.09441   0.79041   0.00000  Uiso   1.00
C392   C     0.18240   0.40594   0.71201   0.00000  Uiso   1.00
C393   C     0.16568   0.11656   0.74868   0.00000  Uiso   1.00
C394   C     0.16606   0.38364   0.75130   0.00000  Uiso   1.00
C395   C     0.14434   0.09192   0.70715   0.00000  Uiso   1.00
C396   C     0.15055   0.40833   0.79061   0.00000  Uiso   1.00
C397   C     0.14629   0.04601   0.70798   0.00000  Uiso   1.00
C398   C     0.15229   0.45424   0.78991   0.00000  Uiso   1.00
C399   C     0.16866   0.02427   0.74968   0.00000  Uiso   1.00
C400   C     0.16875   0.47602   0.75060   0.00000  Uiso   1.00
Cu401  Cu    0.16667   0.25000   0.79821   0.00000  Uiso   1.00
Cu402  Cu    0.16667   0.25001   0.70178   0.00000  Uiso   1.00
H403   H     0.20685   0.03220   0.82336   0.00000  Uiso   1.00
H404   H     0.19674   0.46821   0.68109   0.00000  Uiso   1.00
H405   H     0.20448   0.11255   0.82258   0.00000  Uiso   1.00
H406   H     0.19469   0.38796   0.68160   0.00000  Uiso   1.00
H407   H     0.12921   0.02707   0.67648   0.00000  Uiso   1.00
H408   H     0.13968   0.47316   0.81958   0.00000  Uiso   1.00
H409   H     0.24082   0.28137   0.54571   0.00000  Uiso   1.00
H410   H     0.11989   0.19127   0.95737   0.00000  Uiso   1.00
H411   H     0.23841   0.28214   0.63375   0.00000  Uiso   1.00
H412   H     0.11965   0.19323   0.86887   0.00000  Uiso   1.00
H413   H     0.09437   0.21888   0.61453   0.00000  Uiso   1.00
H414   H     0.21340   0.30692   0.88218   0.00000  Uiso   1.00
H415   H     0.09212   0.21937   0.52594   0.00000  Uiso   1.00
H416   H     0.21308   0.30918   0.97071   0.00000  Uiso   1.00
N417   N     0.16667   0.25001   0.62934   0.00000  Uiso   1.00
N418   N     0.16667   0.24999   0.87065   0.00000  Uiso   1.00
O419   O     0.16667   0.18573   0.79071   0.00000  Uiso   1.00
O420   O     0.16666   0.31428   0.70928   0.00000  Uiso   1.00
O421   O     0.16667   0.18573   0.70928   0.00000  Uiso   1.00
O422   O     0.16666   0.31427   0.79072   0.00000  Uiso   1.00
O423   O     0.09161   0.25000   0.78132   0.00000  Uiso   1.00
O424   O     0.24172   0.25001   0.71868   0.00000  Uiso   1.00
O425   O     0.09161   0.25000   0.69988   0.00000  Uiso   1.00
O426   O     0.24172   0.25000   0.80011   0.00000  Uiso   1.00
C427   C     0.32528   0.22014   0.68791   0.00000  Uiso   1.00
N428   N     0.30826   0.20127   0.65289   0.00000  Uiso   1.00
C429   C     0.00825   0.27856   0.81269   0.00000  Uiso   1.00
N430   N     0.02545   0.29669   0.84814   0.00000  Uiso   1.00
C431   C     0.11815   0.11232   0.66407   0.00000  Uiso   1.00
N432   N     0.09703   0.12840   0.62946   0.00000  Uiso   1.00
C433   C     0.13112   0.38807   0.83137   0.00000  Uiso   1.00
N434   N     0.11553   0.37200   0.86409   0.00000  Uiso   1.00
C435   C     0.49920   0.16492   0.74953   0.00000  Uiso   1.00
C436   C     0.49940   0.33515   0.75034   0.00000  Uiso   1.00
C437   C     0.54098   0.26794   0.55934   0.00000  Uiso   1.00
C438   C     0.47349   0.21764   0.94225   0.00000  Uiso   1.00
C439   C     0.54006   0.26786   0.60998   0.00000  Uiso   1.00
C440   C     0.47376   0.21832   0.89153   0.00000  Uiso   1.00
C441   C     0.45968   0.23263   0.59926   0.00000  Uiso   1.00
C442   C     0.52608   0.28183   0.89898   0.00000  Uiso   1.00
C443   C     0.45874   0.23261   0.54839   0.00000  Uiso   1.00
C444   C     0.52624   0.28271   0.94977   0.00000  Uiso   1.00
C445   C     0.49988   0.25023   0.52727   0.00000  Uiso   1.00
C446   C     0.49987   0.25020   0.97260   0.00000  Uiso   1.00
C447   C     0.40148   0.24935   0.73782   0.00000  Uiso   1.00
C448   C     0.59853   0.25046   0.76220   0.00000  Uiso   1.00
C449   C     0.34702   0.24373   0.73192   0.00000  Uiso   1.00
C450   C     0.65302   0.25575   0.76821   0.00000  Uiso   1.00
C451   C     0.52260   0.04863   0.79091   0.00000  Uiso   1.00
C452   C     0.51703   0.45172   0.71164   0.00000  Uiso   1.00
C453   C     0.52111   0.09441   0.79041   0.00000  Uiso   1.00
C454   C     0.51573   0.40594   0.71201   0.00000  Uiso   1.00
C455   C     0.49902   0.11656   0.74868   0.00000  Uiso   1.00
C456   C     0.49939   0.38364   0.75130   0.00000  Uiso   1.00
C457   C     0.47767   0.09192   0.70715   0.00000  Uiso   1.00
C458   C     0.48389   0.40833   0.79061   0.00000  Uiso   1.00
C459   C     0.47963   0.04601   0.70798   0.00000  Uiso   1.00
C460   C     0.48562   0.45424   0.78991   0.00000  Uiso   1.00
C461   C     0.50199   0.02427   0.74968   0.00000  Uiso   1.00
C462   C     0.50208   0.47602   0.75060   0.00000  Uiso   1.00
Cu463  Cu    0.50000   0.25000   0.79821   0.00000  Uiso   1.00
Cu464  Cu    0.50000   0.25001   0.70178   0.00000  Uiso   1.00
H465   H     0.54018   0.03220   0.82336   0.00000  Uiso   1.00
H466   H     0.53008   0.46821   0.68109   0.00000  Uiso   1.00
H467   H     0.53781   0.11255   0.82258   0.00000  Uiso   1.00
H468   H     0.52803   0.38796   0.68160   0.00000  Uiso   1.00
H469   H     0.46254   0.02707   0.67648   0.00000  Uiso   1.00
H470   H     0.47301   0.47316   0.81958   0.00000  Uiso   1.00
H471   H     0.57415   0.28137   0.54571   0.00000  Uiso   1.00
H472   H     0.45322   0.19127   0.95737   0.00000  Uiso   1.00
H473   H     0.57175   0.28214   0.63375   0.00000  Uiso   1.00
H474   H     0.45299   0.19323   0.86887   0.00000  Uiso   1.00
H475   H     0.42770   0.21888   0.61453   0.00000  Uiso   1.00
H476   H     0.54673   0.30692   0.88218   0.00000  Uiso   1.00
H477   H     0.42545   0.21937   0.52594   0.00000  Uiso   1.00
H478   H     0.54641   0.30918   0.97071   0.00000  Uiso   1.00
N479   N     0.50000   0.25001   0.62934   0.00000  Uiso   1.00
N480   N     0.50000   0.24999   0.87065   0.00000  Uiso   1.00
O481   O     0.50000   0.18573   0.79071   0.00000  Uiso   1.00
O482   O     0.50000   0.31428   0.70928   0.00000  Uiso   1.00
O483   O     0.50000   0.18573   0.70928   0.00000  Uiso   1.00
O484   O     0.50000   0.31427   0.79072   0.00000  Uiso   1.00
O485   O     0.42495   0.25000   0.78132   0.00000  Uiso   1.00
O486   O     0.57505   0.25001   0.71868   0.00000  Uiso   1.00
O487   O     0.42495   0.25000   0.69988   0.00000  Uiso   1.00
O488   O     0.57505   0.25000   0.80011   0.00000  Uiso   1.00
C489   C     0.65861   0.22014   0.68791   0.00000  Uiso   1.00
N490   N     0.64159   0.20127   0.65289   0.00000  Uiso   1.00
C491   C     0.34158   0.27856   0.81269   0.00000  Uiso   1.00
N492   N     0.35878   0.29669   0.84814   0.00000  Uiso   1.00
C493   C     0.45149   0.11232   0.66407   0.00000  Uiso   1.00
N494   N     0.43036   0.12840   0.62946   0.00000  Uiso   1.00
C495   C     0.46445   0.38807   0.83137   0.00000  Uiso   1.00
N496   N     0.44886   0.37200   0.86409   0.00000  Uiso   1.00
C497   C     0.83253   0.16492   0.74953   0.00000  Uiso   1.00
C498   C     0.83273   0.33515   0.75034   0.00000  Uiso   1.00
C499   C     0.87432   0.26794   0.55934   0.00000  Uiso   1.00
C500   C     0.80682   0.21764   0.94225   0.00000  Uiso   1.00
C501   C     0.87340   0.26786   0.60998   0.00000  Uiso   1.00
C502   C     0.80709   0.21832   0.89153   0.00000  Uiso   1.00
C503   C     0.79301   0.23263   0.59926   0.00000  Uiso   1.00
C504   C     0.85942   0.28183   0.89898   0.00000  Uiso   1.00
C505   C     0.79207   0.23261   0.54839   0.00000  Uiso   1.00
C506   C     0.85957   0.28271   0.94977   0.00000  Uiso   1.00
C507   C     0.83322   0.25023   0.52727   0.00000  Uiso   1.00
C508   C     0.83320   0.25020   0.97260   0.00000  Uiso   1.00
C509   C     0.73481   0.24935   0.73782   0.00000  Uiso   1.00
C510   C     0.93186   0.25046   0.76220   0.00000  Uiso   1.00
C511   C     0.68035   0.24373   0.73192   0.00000  Uiso   1.00
C512   C     0.98635   0.25575   0.76821   0.00000  Uiso   1.00
C513   C     0.85593   0.04863   0.79091   0.00000  Uiso   1.00
C514   C     0.85036   0.45172   0.71164   0.00000  Uiso   1.00
C515   C     0.85444   0.09441   0.79041   0.00000  Uiso   1.00
C516   C     0.84906   0.40594   0.71201   0.00000  Uiso   1.00
C517   C     0.83235   0.11656   0.74868   0.00000  Uiso   1.00
C518   C     0.83272   0.38364   0.75130   0.00000  Uiso   1.00
C519   C     0.81101   0.09192   0.70715   0.00000  Uiso   1.00
C520   C     0.81722   0.40833   0.79061   0.00000  Uiso   1.00
C521   C     0.81296   0.04601   0.70798   0.00000  Uiso   1.00
C522   C     0.81896   0.45424   0.78991   0.00000  Uiso   1.00
C523   C     0.83533   0.02427   0.74968   0.00000  Uiso   1.00
C524   C     0.83542   0.47602   0.75060   0.00000  Uiso   1.00
Cu525  Cu    0.83333   0.25000   0.79821   0.00000  Uiso   1.00
Cu526  Cu    0.83333   0.25001   0.70178   0.00000  Uiso   1.00
H527   H     0.87351   0.03220   0.82336   0.00000  Uiso   1.00
H528   H     0.86341   0.46821   0.68109   0.00000  Uiso   1.00
H529   H     0.87114   0.11255   0.82258   0.00000  Uiso   1.00
H530   H     0.86136   0.38796   0.68160   0.00000  Uiso   1.00
H531   H     0.79588   0.02707   0.67648   0.00000  Uiso   1.00
H532   H     0.80635   0.47316   0.81958   0.00000  Uiso   1.00
H533   H     0.90749   0.28137   0.54571   0.00000  Uiso   1.00
H534   H     0.78656   0.19127   0.95737   0.00000  Uiso   1.00
H535   H     0.90508   0.28214   0.63375   0.00000  Uiso   1.00
H536   H     0.78632   0.19323   0.86887   0.00000  Uiso   1.00
H537   H     0.76104   0.21888   0.61453   0.00000  Uiso   1.00
H538   H     0.88006   0.30692   0.88218   0.00000  Uiso   1.00
H539   H     0.75879   0.21937   0.52594   0.00000  Uiso   1.00
H540   H     0.87975   0.30918   0.97071   0.00000  Uiso   1.00
N541   N     0.83333   0.25001   0.62934   0.00000  Uiso   1.00
N542   N     0.83333   0.24999   0.87065   0.00000  Uiso   1.00
O543   O     0.83334   0.18573   0.79071   0.00000  Uiso   1.00
O544   O     0.83333   0.31428   0.70928   0.00000  Uiso   1.00
O545   O     0.83334   0.18573   0.70928   0.00000  Uiso   1.00
O546   O     0.83333   0.31427   0.79072   0.00000  Uiso   1.00
O547   O     0.75828   0.25000   0.78132   0.00000  Uiso   1.00
O548   O     0.90839   0.25001   0.71868   0.00000  Uiso   1.00
O549   O     0.75828   0.25000   0.69988   0.00000  Uiso   1.00
O550   O     0.90839   0.25000   0.80011   0.00000  Uiso   1.00
C551   C     0.99194   0.22014   0.68791   0.00000  Uiso   1.00
N552   N     0.97492   0.20127   0.65289   0.00000  Uiso   1.00
C553   C     0.67492   0.27856   0.81269   0.00000  Uiso   1.00
N554   N     0.69212   0.29669   0.84814   0.00000  Uiso   1.00
C555   C     0.78482   0.11232   0.66407   0.00000  Uiso   1.00
N556   N     0.76369   0.12840   0.62946   0.00000  Uiso   1.00
C557   C     0.79778   0.38807   0.83137   0.00000  Uiso   1.00
N558   N     0.78220   0.37200   0.86409   0.00000  Uiso   1.00
C559   C     0.16586   0.66492   0.74953   0.00000  Uiso   1.00
C560   C     0.16607   0.83515   0.75034   0.00000  Uiso   1.00
C561   C     0.20765   0.76794   0.55934   0.00000  Uiso   1.00
C562   C     0.14015   0.71764   0.94225   0.00000  Uiso   1.00
C563   C     0.20673   0.76786   0.60998   0.00000  Uiso   1.00
C564   C     0.14042   0.71832   0.89153   0.00000  Uiso   1.00
C565   C     0.12635   0.73263   0.59926   0.00000  Uiso   1.00
C566   C     0.19275   0.78183   0.89898   0.00000  Uiso   1.00
C567   C     0.12540   0.73261   0.54839   0.00000  Uiso   1.00
C568   C     0.19291   0.78271   0.94977   0.00000  Uiso   1.00
C569   C     0.16655   0.75023   0.52727   0.00000  Uiso   1.00
C570   C     0.16654   0.75020   0.97260   0.00000  Uiso   1.00
C571   C     0.06814   0.74935   0.73782   0.00000  Uiso   1.00
C572   C     0.26519   0.75046   0.76220   0.00000  Uiso   1.00
C573   C     0.01369   0.74373   0.73192   0.00000  Uiso   1.00
C574   C     0.31969   0.75575   0.76821   0.00000  Uiso   1.00
C575   C     0.18926   0.54863   0.79091   0.00000  Uiso   1.00
C576   C     0.18370   0.95172   0.71164   0.00000  Uiso   1.00
C577   C     0.18777   0.59441   0.79041   0.00000  Uiso   1.00
C578   C     0.18240   0.90594   0.71201   0.00000  Uiso   1.00
C579   C     0.16568   0.61656   0.74868   0.00000  Uiso   1.00
C580   C     0.16606   0.88364   0.75130   0.00000  Uiso   1.00
C581   C     0.14434   0.59192   0.70715   0.00000  Uiso   1.00
C582   C     0.15055   0.90833   0.79061   0.00000  Uiso   1.00
C583   C     0.14629   0.54601   0.70798   0.00000  Uiso   1.00
C584   C     0.15229   0.95424   0.78991   0.00000  Uiso   1.00
C585   C     0.16866   0.52427   0.74968   0.00000  Uiso   1.00
C586   C     0.16875   0.97602   0.75060   0.00000  Uiso   1.00
Cu587  Cu    0.16667   0.75000   0.79821   0.00000  Uiso   1.00
Cu588  Cu    0.16667   0.75001   0.70178   0.00000  Uiso   1.00
H589   H     0.20685   0.53220   0.82336   0.00000  Uiso   1.00
H590   H     0.19674   0.96821   0.68109   0.00000  Uiso   1.00
H591   H     0.20448   0.61255   0.82258   0.00000  Uiso   1.00
H592   H     0.19469   0.88796   0.68160   0.00000  Uiso   1.00
H593   H     0.12921   0.52707   0.67648   0.00000  Uiso   1.00
H594   H     0.13968   0.97316   0.81958   0.00000  Uiso   1.00
H595   H     0.24082   0.78137   0.54571   0.00000  Uiso   1.00
H596   H     0.11989   0.69127   0.95737   0.00000  Uiso   1.00
H597   H     0.23841   0.78214   0.63375   0.00000  Uiso   1.00
H598   H     0.11965   0.69323   0.86887   0.00000  Uiso   1.00
H599   H     0.09437   0.71888   0.61453   0.00000  Uiso   1.00
H600   H     0.21340   0.80692   0.88218   0.00000  Uiso   1.00
H601   H     0.09212   0.71937   0.52594   0.00000  Uiso   1.00
H602   H     0.21308   0.80918   0.97071   0.00000  Uiso   1.00
N603   N     0.16667   0.75001   0.62934   0.00000  Uiso   1.00
N604   N     0.16667   0.74999   0.87065   0.00000  Uiso   1.00
O605   O     0.16667   0.68573   0.79071   0.00000  Uiso   1.00
O606   O     0.16666   0.81428   0.70928   0.00000  Uiso   1.00
O607   O     0.16667   0.68573   0.70928   0.00000  Uiso   1.00
O608   O     0.16666   0.81427   0.79072   0.00000  Uiso   1.00
O609   O     0.09161   0.75000   0.78132   0.00000  Uiso   1.00
O610   O     0.24172   0.75001   0.71868   0.00000  Uiso   1.00
O611   O     0.09161   0.75000   0.69988   0.00000  Uiso   1.00
O612   O     0.24172   0.75000   0.80011   0.00000  Uiso   1.00
C613   C     0.32528   0.72014   0.68791   0.00000  Uiso   1.00
N614   N     0.30826   0.70127   0.65289   0.00000  Uiso   1.00
C615   C     0.00825   0.77856   0.81269   0.00000  Uiso   1.00
N616   N     0.02545   0.79669   0.84814   0.00000  Uiso   1.00
C617   C     0.11815   0.61232   0.66407   0.00000  Uiso   1.00
N618   N     0.09703   0.62840   0.62946   0.00000  Uiso   1.00
C619   C     0.13112   0.88807   0.83137   0.00000  Uiso   1.00
N620   N     0.11553   0.87200   0.86409   0.00000  Uiso   1.00
C621   C     0.49920   0.66492   0.74953   0.00000  Uiso   1.00
C622   C     0.49940   0.83515   0.75034   0.00000  Uiso   1.00
C623   C     0.54098   0.76794   0.55934   0.00000  Uiso   1.00
C624   C     0.47349   0.71764   0.94225   0.00000  Uiso   1.00
C625   C     0.54006   0.76786   0.60998   0.00000  Uiso   1.00
C626   C     0.47376   0.71832   0.89153   0.00000  Uiso   1.00
C627   C     0.45968   0.73263   0.59926   0.00000  Uiso   1.00
C628   C     0.52608   0.78183   0.89898   0.00000  Uiso   1.00
C629   C     0.45874   0.73261   0.54839   0.00000  Uiso   1.00
C630   C     0.52624   0.78271   0.94977   0.00000  Uiso   1.00
C631   C     0.49988   0.75023   0.52727   0.00000  Uiso   1.00
C632   C     0.49987   0.75020   0.97260   0.00000  Uiso   1.00
C633   C     0.40148   0.74935   0.73782   0.00000  Uiso   1.00
C634   C     0.59853   0.75046   0.76220   0.00000  Uiso   1.00
C635   C     0.34702   0.74373   0.73192   0.00000  Uiso   1.00
C636   C     0.65302   0.75575   0.76821   0.00000  Uiso   1.00
C637   C     0.52260   0.54863   0.79091   0.00000  Uiso   1.00
C638   C     0.51703   0.95172   0.71164   0.00000  Uiso   1.00
C639   C     0.52111   0.59441   0.79041   0.00000  Uiso   1.00
C640   C     0.51573   0.90594   0.71201   0.00000  Uiso   1.00
C641   C     0.49902   0.61656   0.74868   0.00000  Uiso   1.00
C642   C     0.49939   0.88364   0.75130   0.00000  Uiso   1.00
C643   C     0.47767   0.59192   0.70715   0.00000  Uiso   1.00
C644   C     0.48389   0.90833   0.79061   0.00000  Uiso   1.00
C645   C     0.47963   0.54601   0.70798   0.00000  Uiso   1.00
C646   C     0.48562   0.95424   0.78991   0.00000  Uiso   1.00
C647   C     0.50199   0.52427   0.74968   0.00000  Uiso   1.00
C648   C     0.50208   0.97602   0.75060   0.00000  Uiso   1.00
Cu649  Cu    0.50000   0.75000   0.79821   0.00000  Uiso   1.00
Cu650  Cu    0.50000   0.75001   0.70178   0.00000  Uiso   1.00
H651   H     0.54018   0.53220   0.82336   0.00000  Uiso   1.00
H652   H     0.53008   0.96821   0.68109   0.00000  Uiso   1.00
H653   H     0.53781   0.61255   0.82258   0.00000  Uiso   1.00
H654   H     0.52803   0.88796   0.68160   0.00000  Uiso   1.00
H655   H     0.46254   0.52707   0.67648   0.00000  Uiso   1.00
H656   H     0.47301   0.97316   0.81958   0.00000  Uiso   1.00
H657   H     0.57415   0.78137   0.54571   0.00000  Uiso   1.00
H658   H     0.45322   0.69127   0.95737   0.00000  Uiso   1.00
H659   H     0.57175   0.78214   0.63375   0.00000  Uiso   1.00
H660   H     0.45299   0.69323   0.86887   0.00000  Uiso   1.00
H661   H     0.42770   0.71888   0.61453   0.00000  Uiso   1.00
H662   H     0.54673   0.80692   0.88218   0.00000  Uiso   1.00
H663   H     0.42545   0.71937   0.52594   0.00000  Uiso   1.00
H664   H     0.54641   0.80918   0.97071   0.00000  Uiso   1.00
N665   N     0.50000   0.75001   0.62934   0.00000  Uiso   1.00
N666   N     0.50000   0.74999   0.87065   0.00000  Uiso   1.00
O667   O     0.50000   0.68573   0.79071   0.00000  Uiso   1.00
O668   O     0.50000   0.81428   0.70928   0.00000  Uiso   1.00
O669   O     0.50000   0.68573   0.70928   0.00000  Uiso   1.00
O670   O     0.50000   0.81427   0.79072   0.00000  Uiso   1.00
O671   O     0.42495   0.75000   0.78132   0.00000  Uiso   1.00
O672   O     0.57505   0.75001   0.71868   0.00000  Uiso   1.00
O673   O     0.42495   0.75000   0.69988   0.00000  Uiso   1.00
O674   O     0.57505   0.75000   0.80011   0.00000  Uiso   1.00
C675   C     0.65861   0.72014   0.68791   0.00000  Uiso   1.00
N676   N     0.64159   0.70127   0.65289   0.00000  Uiso   1.00
C677   C     0.34158   0.77856   0.81269   0.00000  Uiso   1.00
N678   N     0.35878   0.79669   0.84814   0.00000  Uiso   1.00
C679   C     0.45149   0.61232   0.66407   0.00000  Uiso   1.00
N680   N     0.43036   0.62840   0.62946   0.00000  Uiso   1.00
C681   C     0.46445   0.88807   0.83137   0.00000  Uiso   1.00
N682   N     0.44886   0.87200   0.86409   0.00000  Uiso   1.00
C683   C     0.83253   0.66492   0.74953   0.00000  Uiso   1.00
C684   C     0.83273   0.83515   0.75034   0.00000  Uiso   1.00
C685   C     0.87432   0.76794   0.55934   0.00000  Uiso   1.00
C686   C     0.80682   0.71764   0.94225   0.00000  Uiso   1.00
C687   C     0.87340   0.76786   0.60998   0.00000  Uiso   1.00
C688   C     0.80709   0.71832   0.89153   0.00000  Uiso   1.00
C689   C     0.79301   0.73263   0.59926   0.00000  Uiso   1.00
C690   C     0.85942   0.78183   0.89898   0.00000  Uiso   1.00
C691   C     0.79207   0.73261   0.54839   0.00000  Uiso   1.00
C692   C     0.85957   0.78271   0.94977   0.00000  Uiso   1.00
C693   C     0.83322   0.75023   0.52727   0.00000  Uiso   1.00
C694   C     0.83320   0.75020   0.97260   0.00000  Uiso   1.00
C695   C     0.73481   0.74935   0.73782   0.00000  Uiso   1.00
C696   C     0.93186   0.75046   0.76220   0.00000  Uiso   1.00
C697   C     0.68035   0.74373   0.73192   0.00000  Uiso   1.00
C698   C     0.98635   0.75575   0.76821   0.00000  Uiso   1.00
C699   C     0.85593   0.54863   0.79091   0.00000  Uiso   1.00
C700   C     0.85036   0.95172   0.71164   0.00000  Uiso   1.00
C701   C     0.85444   0.59441   0.79041   0.00000  Uiso   1.00
C702   C     0.84906   0.90594   0.71201   0.00000  Uiso   1.00
C703   C     0.83235   0.61656   0.74868   0.00000  Uiso   1.00
C704   C     0.83272   0.88364   0.75130   0.00000  Uiso   1.00
C705   C     0.81101   0.59192   0.70715   0.00000  Uiso   1.00
C706   C     0.81722   0.90833   0.79061   0.00000  Uiso   1.00
C707   C     0.81296   0.54601   0.70798   0.00000  Uiso   1.00
C708   C     0.81896   0.95424   0.78991   0.00000  Uiso   1.00
C709   C     0.83533   0.52427   0.74968   0.00000  Uiso   1.00
C710   C     0.83542   0.97602   0.75060   0.00000  Uiso   1.00
Cu711  Cu    0.83333   0.75000   0.79821   0.00000  Uiso   1.00
Cu712  Cu    0.83333   0.75001   0.70178   0.00000  Uiso   1.00
H713   H     0.87351   0.53220   0.82336   0.00000  Uiso   1.00
H714   H     0.86341   0.96821   0.68109   0.00000  Uiso   1.00
H715   H     0.87114   0.61255   0.82258   0.00000  Uiso   1.00
H716   H     0.86136   0.88796   0.68160   0.00000  Uiso   1.00
H717   H     0.79588   0.52707   0.67648   0.00000  Uiso   1.00
H718   H     0.80635   0.97316   0.81958   0.00000  Uiso   1.00
H719   H     0.90749   0.78137   0.54571   0.00000  Uiso   1.00
H720   H     0.78656   0.69127   0.95737   0.00000  Uiso   1.00
H721   H     0.90508   0.78214   0.63375   0.00000  Uiso   1.00
H722   H     0.78632   0.69323   0.86887   0.00000  Uiso   1.00
H723   H     0.76104   0.71888   0.61453   0.00000  Uiso   1.00
H724   H     0.88006   0.80692   0.88218   0.00000  Uiso   1.00
H725   H     0.75879   0.71937   0.52594   0.00000  Uiso   1.00
H726   H     0.87975   0.80918   0.97071   0.00000  Uiso   1.00
N727   N     0.83333   0.75001   0.62934   0.00000  Uiso   1.00
N728   N     0.83333   0.74999   0.87065   0.00000  Uiso   1.00
O729   O     0.83334   0.68573   0.79071   0.00000  Uiso   1.00
O730   O     0.83333   0.81428   0.70928   0.00000  Uiso   1.00
O731   O     0.83334   0.68573   0.70928   0.00000  Uiso   1.00
O732   O     0.83333   0.81427   0.79072   0.00000  Uiso   1.00
O733   O     0.75828   0.75000   0.78132   0.00000  Uiso   1.00
O734   O     0.90839   0.75001   0.71868   0.00000  Uiso   1.00
O735   O     0.75828   0.75000   0.69988   0.00000  Uiso   1.00
O736   O     0.90839   0.75000   0.80011   0.00000  Uiso   1.00
C737   C     0.99194   0.72014   0.68791   0.00000  Uiso   1.00
N738   N     0.97492   0.70127   0.65289   0.00000  Uiso   1.00
C739   C     0.67492   0.77856   0.81269   0.00000  Uiso   1.00
N740   N     0.69212   0.79669   0.84814   0.00000  Uiso   1.00
C741   C     0.78482   0.61232   0.66407   0.00000  Uiso   1.00
N742   N     0.76369   0.62840   0.62946   0.00000  Uiso   1.00
C743   C     0.79778   0.88807   0.83137   0.00000  Uiso   1.00
N744   N     0.78220   0.87200   0.86409   0.00000  Uiso   1.00
loop_
_geom_bond_atom_site_label_1
_geom_bond_atom_site_label_2
_geom_bond_distance
_geom_bond_site_symmetry_2
_ccdc_geom_bond_type
C1     C21     1.466   .     S
C1     O49     1.291   .     A
C1     O47     1.294   .     A
C2     C22     1.470   .     S
C2     O50     1.291   .     A
C2     O48     1.296   .     A
C3     C11     1.410   .     A
C3     H37     1.082   .     S
C3     C5      1.406   .     A
C4     C6      1.406   .     A
C4     C12     1.411   .     A
C4     H38     1.081   .     S
C5     H39     1.081   .     S
C5     N45     1.364   .     A
C6     N46     1.363   .     A
C6     H40     1.081   .     S
C7     N45     1.364   .     A
C7     C9      1.406   .     A
C7     H41     1.080   .     S
C8     H42     1.082   .     S
C8     C10     1.406   .     A
C8     N46     1.363   .     A
C9     C11     1.410   .     A
C9     H43     1.082   .     S
C10    C12     1.411   .     A
C10    H44     1.081   .     S
C11    C384    1.514   1_554 S
C12    C383    1.514   .     S
C13    O51     1.280   .     A
C13    O53     1.290   .     A
C13    C15     1.438   .     S
C14    O52     1.280   .     A
C14    O54     1.289   .     A
C14    C16     1.437   .     S
C15    C140    1.360   1_455 S
C15    C179    1.455   1_455 S
C16    C77     1.360   .     S
C16    C119    1.456   .     S
C17    H31     1.083   .     S
C17    C27     1.399   .     A
C17    C19     1.389   .     A
C18    H32     1.083   .     S
C18    C28     1.399   .     A
C18    C20     1.389   .     A
C19    C21     1.403   .     A
C19    H33     1.083   .     S
C20    H34     1.083   .     S
C20    C22     1.405   .     A
C21    C23     1.416   .     A
C22    C24     1.418   .     A
C23    C25     1.393   .     A
C23    C59     1.444   .     S
C24    C61     1.445   .     S
C24    C26     1.393   .     A
C25    C27     1.399   .     A
C25    H35     1.085   .     S
C26    C28     1.399   .     A
C26    H36     1.085   .     S
C27    C214    1.464   1_545 S
C28    C213    1.464   .     S
Cu29   N46     2.007   .     S
Cu29   Cu30    2.671   .     S
Cu29   O50     1.963   .     S
Cu29   O47     1.957   .     S
Cu29   O51     1.978   .     S
Cu29   O54     1.979   .     S
Cu30   N45     2.007   .     S
Cu30   O49     1.963   .     S
Cu30   O53     1.979   .     S
Cu30   O48     1.957   .     S
Cu30   O52     1.978   .     S
C55    N56     1.158   .     T
C55    C77     1.455   .     S
C57    N58     1.158   .     T
C57    C140    1.456   1_455 S
C59    N60     1.157   .     T
C61    N62     1.157   .     T
C63    C83     1.466   .     S
C63    O111    1.291   .     A
C63    O109    1.294   .     A
C64    C84     1.470   .     S
C64    O112    1.291   .     A
C64    O110    1.296   .     A
C65    C73     1.410   .     A
C65    H99     1.082   .     S
C65    C67     1.406   .     A
C66    C68     1.406   .     A
C66    C74     1.411   .     A
C66    H100    1.081   .     S
C67    H101    1.081   .     S
C67    N107    1.364   .     A
C68    N108    1.363   .     A
C68    H102    1.081   .     S
C69    N107    1.364   .     A
C69    C71     1.406   .     A
C69    H103    1.080   .     S
C70    H104    1.082   .     S
C70    C72     1.406   .     A
C70    N108    1.363   .     A
C71    C73     1.410   .     A
C71    H105    1.082   .     S
C72    C74     1.411   .     A
C72    H106    1.081   .     S
C73    C446    1.514   1_554 S
C74    C445    1.514   .     S
C75    O113    1.280   .     A
C75    O115    1.290   .     A
C75    C77     1.438   .     S
C76    O114    1.280   .     A
C76    O116    1.289   .     A
C76    C78     1.437   .     S
C78    C139    1.360   .     S
C78    C181    1.456   .     S
C79    H93     1.083   .     S
C79    C89     1.399   .     A
C79    C81     1.389   .     A
C80    H94     1.083   .     S
C80    C90     1.399   .     A
C80    C82     1.389   .     A
C81    C83     1.403   .     A
C81    H95     1.083   .     S
C82    H96     1.083   .     S
C82    C84     1.405   .     A
C83    C85     1.416   .     A
C84    C86     1.418   .     A
C85    C87     1.393   .     A
C85    C121    1.444   .     S
C86    C123    1.445   .     S
C86    C88     1.393   .     A
C87    C89     1.399   .     A
C87    H97     1.085   .     S
C88    C90     1.399   .     A
C88    H98     1.085   .     S
C89    C276    1.464   1_545 S
C90    C275    1.464   .     S
Cu91   N108    2.007   .     S
Cu91   Cu92    2.671   .     S
Cu91   O112    1.963   .     S
Cu91   O109    1.957   .     S
Cu91   O113    1.978   .     S
Cu91   O116    1.979   .     S
Cu92   N107    2.007   .     S
Cu92   O111    1.963   .     S
Cu92   O115    1.979   .     S
Cu92   O110    1.957   .     S
Cu92   O114    1.978   .     S
C117   N118    1.158   .     T
C117   C139    1.455   .     S
C119   N120    1.158   .     T
C121   N122    1.157   .     T
C123   N124    1.157   .     T
C125   C145    1.466   .     S
C125   O173    1.291   .     A
C125   O171    1.294   .     A
C126   C146    1.470   .     S
C126   O174    1.291   .     A
C126   O172    1.296   .     A
C127   C135    1.410   .     A
C127   H161    1.082   .     S
C127   C129    1.406   .     A
C128   C130    1.406   .     A
C128   C136    1.411   .     A
C128   H162    1.081   .     S
C129   H163    1.081   .     S
C129   N169    1.364   .     A
C130   N170    1.363   .     A
C130   H164    1.081   .     S
C131   N169    1.364   .     A
C131   C133    1.406   .     A
C131   H165    1.080   .     S
C132   H166    1.082   .     S
C132   C134    1.406   .     A
C132   N170    1.363   .     A
C133   C135    1.410   .     A
C133   H167    1.082   .     S
C134   C136    1.411   .     A
C134   H168    1.081   .     S
C135   C508    1.514   1_554 S
C136   C507    1.514   .     S
C137   O175    1.280   .     A
C137   O177    1.290   .     A
C137   C139    1.438   .     S
C138   O176    1.280   .     A
C138   O178    1.289   .     A
C138   C140    1.437   .     S
C140   C15     1.360   1_655 S
C140   C57     1.456   1_655 S
C141   H155    1.083   .     S
C141   C151    1.399   .     A
C141   C143    1.389   .     A
C142   H156    1.083   .     S
C142   C152    1.399   .     A
C142   C144    1.389   .     A
C143   C145    1.403   .     A
C143   H157    1.083   .     S
C144   H158    1.083   .     S
C144   C146    1.405   .     A
C145   C147    1.416   .     A
C146   C148    1.418   .     A
C147   C149    1.393   .     A
C147   C183    1.444   .     S
C148   C185    1.445   .     S
C148   C150    1.393   .     A
C149   C151    1.399   .     A
C149   H159    1.085   .     S
C150   C152    1.399   .     A
C150   H160    1.085   .     S
C151   C338    1.464   1_545 S
C152   C337    1.464   .     S
Cu153  N170    2.007   .     S
Cu153  Cu154   2.671   .     S
Cu153  O174    1.963   .     S
Cu153  O171    1.957   .     S
Cu153  O175    1.978   .     S
Cu153  O178    1.979   .     S
Cu154  N169    2.007   .     S
Cu154  O173    1.963   .     S
Cu154  O177    1.979   .     S
Cu154  O172    1.957   .     S
Cu154  O176    1.978   .     S
C179   N180    1.158   .     T
C179   C15     1.455   1_655 S
C181   N182    1.158   .     T
C183   N184    1.157   .     T
C185   N186    1.157   .     T
C187   C207    1.466   .     S
C187   O235    1.291   .     A
C187   O233    1.294   .     A
C188   C208    1.470   .     S
C188   O236    1.291   .     A
C188   O234    1.296   .     A
C189   C197    1.410   .     A
C189   H223    1.082   .     S
C189   C191    1.406   .     A
C190   C192    1.406   .     A
C190   C198    1.411   .     A
C190   H224    1.081   .     S
C191   H225    1.081   .     S
C191   N231    1.364   .     A
C192   N232    1.363   .     A
C192   H226    1.081   .     S
C193   N231    1.364   .     A
C193   C195    1.406   .     A
C193   H227    1.080   .     S
C194   H228    1.082   .     S
C194   C196    1.406   .     A
C194   N232    1.363   .     A
C195   C197    1.410   .     A
C195   H229    1.082   .     S
C196   C198    1.411   .     A
C196   H230    1.081   .     S
C197   C570    1.514   1_554 S
C198   C569    1.514   .     S
C199   O237    1.280   .     A
C199   O239    1.290   .     A
C199   C201    1.438   .     S
C200   O238    1.280   .     A
C200   O240    1.289   .     A
C200   C202    1.437   .     S
C201   C326    1.360   1_455 S
C201   C365    1.455   1_455 S
C202   C263    1.360   .     S
C202   C305    1.456   .     S
C203   H217    1.083   .     S
C203   C213    1.399   .     A
C203   C205    1.389   .     A
C204   H218    1.083   .     S
C204   C214    1.399   .     A
C204   C206    1.389   .     A
C205   C207    1.403   .     A
C205   H219    1.083   .     S
C206   H220    1.083   .     S
C206   C208    1.405   .     A
C207   C209    1.416   .     A
C208   C210    1.418   .     A
C209   C211    1.393   .     A
C209   C245    1.444   .     S
C210   C247    1.445   .     S
C210   C212    1.393   .     A
C211   C213    1.399   .     A
C211   H221    1.085   .     S
C212   C214    1.399   .     A
C212   H222    1.085   .     S
C214   C27     1.464   1_565 S
Cu215  N232    2.007   .     S
Cu215  Cu216   2.671   .     S
Cu215  O236    1.963   .     S
Cu215  O233    1.957   .     S
Cu215  O237    1.978   .     S
Cu215  O240    1.979   .     S
Cu216  N231    2.007   .     S
Cu216  O235    1.963   .     S
Cu216  O239    1.979   .     S
Cu216  O234    1.957   .     S
Cu216  O238    1.978   .     S
C241   N242    1.158   .     T
C241   C263    1.455   .     S
C243   N244    1.158   .     T
C243   C326    1.456   1_455 S
C245   N246    1.157   .     T
C247   N248    1.157   .     T
C249   C269    1.466   .     S
C249   O297    1.291   .     A
C249   O295    1.294   .     A
C250   C270    1.470   .     S
C250   O298    1.291   .     A
C250   O296    1.296   .     A
C251   C259    1.410   .     A
C251   H285    1.082   .     S
C251   C253    1.406   .     A
C252   C254    1.406   .     A
C252   C260    1.411   .     A
C252   H286    1.081   .     S
C253   H287    1.081   .     S
C253   N293    1.364   .     A
C254   N294    1.363   .     A
C254   H288    1.081   .     S
C255   N293    1.364   .     A
C255   C257    1.406   .     A
C255   H289    1.080   .     S
C256   H290    1.082   .     S
C256   C258    1.406   .     A
C256   N294    1.363   .     A
C257   C259    1.410   .     A
C257   H291    1.082   .     S
C258   C260    1.411   .     A
C258   H292    1.081   .     S
C259   C632    1.514   1_554 S
C260   C631    1.514   .     S
C261   O299    1.280   .     A
C261   O301    1.290   .     A
C261   C263    1.438   .     S
C262   O300    1.280   .     A
C262   O302    1.289   .     A
C262   C264    1.437   .     S
C264   C325    1.360   .     S
C264   C367    1.456   .     S
C265   H279    1.083   .     S
C265   C275    1.399   .     A
C265   C267    1.389   .     A
C266   H280    1.083   .     S
C266   C276    1.399   .     A
C266   C268    1.389   .     A
C267   C269    1.403   .     A
C267   H281    1.083   .     S
C268   H282    1.083   .     S
C268   C270    1.405   .     A
C269   C271    1.416   .     A
C270   C272    1.418   .     A
C271   C273    1.393   .     A
C271   C307    1.444   .     S
C272   C309    1.445   .     S
C272   C274    1.393   .     A
C273   C275    1.399   .     A
C273   H283    1.085   .     S
C274   C276    1.399   .     A
C274   H284    1.085   .     S
C276   C89     1.464   1_565 S
Cu277  N294    2.007   .     S
Cu277  Cu278   2.671   .     S
Cu277  O298    1.963   .     S
Cu277  O295    1.957   .     S
Cu277  O299    1.978   .     S
Cu277  O302    1.979   .     S
Cu278  N293    2.007   .     S
Cu278  O297    1.963   .     S
Cu278  O301    1.979   .     S
Cu278  O296    1.957   .     S
Cu278  O300    1.978   .     S
C303   N304    1.158   .     T
C303   C325    1.455   .     S
C305   N306    1.158   .     T
C307   N308    1.157   .     T
C309   N310    1.157   .     T
C311   C331    1.466   .     S
C311   O359    1.291   .     A
C311   O357    1.294   .     A
C312   C332    1.470   .     S
C312   O360    1.291   .     A
C312   O358    1.296   .     A
C313   C321    1.410   .     A
C313   H347    1.082   .     S
C313   C315    1.406   .     A
C314   C316    1.406   .     A
C314   C322    1.411   .     A
C314   H348    1.081   .     S
C315   H349    1.081   .     S
C315   N355    1.364   .     A
C316   N356    1.363   .     A
C316   H350    1.081   .     S
C317   N355    1.364   .     A
C317   C319    1.406   .     A
C317   H351    1.080   .     S
C318   H352    1.082   .     S
C318   C320    1.406   .     A
C318   N356    1.363   .     A
C319   C321    1.410   .     A
C319   H353    1.082   .     S
C320   C322    1.411   .     A
C320   H354    1.081   .     S
C321   C694    1.514   1_554 S
C322   C693    1.514   .     S
C323   O361    1.280   .     A
C323   O363    1.290   .     A
C323   C325    1.438   .     S
C324   O362    1.280   .     A
C324   O364    1.289   .     A
C324   C326    1.437   .     S
C326   C201    1.360   1_655 S
C326   C243    1.456   1_655 S
C327   H341    1.083   .     S
C327   C337    1.399   .     A
C327   C329    1.389   .     A
C328   H342    1.083   .     S
C328   C338    1.399   .     A
C328   C330    1.389   .     A
C329   C331    1.403   .     A
C329   H343    1.083   .     S
C330   H344    1.083   .     S
C330   C332    1.405   .     A
C331   C333    1.416   .     A
C332   C334    1.418   .     A
C333   C335    1.393   .     A
C333   C369    1.444   .     S
C334   C371    1.445   .     S
C334   C336    1.393   .     A
C335   C337    1.399   .     A
C335   H345    1.085   .     S
C336   C338    1.399   .     A
C336   H346    1.085   .     S
C338   C151    1.464   1_565 S
Cu339  N356    2.007   .     S
Cu339  Cu340   2.671   .     S
Cu339  O360    1.963   .     S
Cu339  O357    1.957   .     S
Cu339  O361    1.978   .     S
Cu339  O364    1.979   .     S
Cu340  N355    2.007   .     S
Cu340  O359    1.963   .     S
Cu340  O363    1.979   .     S
Cu340  O358    1.957   .     S
Cu340  O362    1.978   .     S
C365   N366    1.158   .     T
C365   C201    1.455   1_655 S
C367   N368    1.158   .     T
C369   N370    1.157   .     T
C371   N372    1.157   .     T
C373   C393    1.466   .     S
C373   O421    1.291   .     A
C373   O419    1.294   .     A
C374   C394    1.470   .     S
C374   O422    1.291   .     A
C374   O420    1.296   .     A
C375   C383    1.410   .     A
C375   H409    1.082   .     S
C375   C377    1.406   .     A
C376   C378    1.406   .     A
C376   C384    1.411   .     A
C376   H410    1.081   .     S
C377   H411    1.081   .     S
C377   N417    1.364   .     A
C378   N418    1.363   .     A
C378   H412    1.081   .     S
C379   N417    1.364   .     A
C379   C381    1.406   .     A
C379   H413    1.080   .     S
C380   H414    1.082   .     S
C380   C382    1.406   .     A
C380   N418    1.363   .     A
C381   C383    1.410   .     A
C381   H415    1.082   .     S
C382   C384    1.411   .     A
C382   H416    1.081   .     S
C384   C11     1.514   1_556 S
C385   O423    1.280   .     A
C385   O425    1.290   .     A
C385   C387    1.438   .     S
C386   O424    1.280   .     A
C386   O426    1.289   .     A
C386   C388    1.437   .     S
C387   C512    1.360   1_455 S
C387   C551    1.455   1_455 S
C388   C449    1.360   .     S
C388   C491    1.456   .     S
C389   H403    1.083   .     S
C389   C399    1.399   .     A
C389   C391    1.389   .     A
C390   H404    1.083   .     S
C390   C400    1.399   .     A
C390   C392    1.389   .     A
C391   C393    1.403   .     A
C391   H405    1.083   .     S
C392   H406    1.083   .     S
C392   C394    1.405   .     A
C393   C395    1.416   .     A
C394   C396    1.418   .     A
C395   C397    1.393   .     A
C395   C431    1.444   .     S
C396   C433    1.445   .     S
C396   C398    1.393   .     A
C397   C399    1.399   .     A
C397   H407    1.085   .     S
C398   C400    1.399   .     A
C398   H408    1.085   .     S
C399   C586    1.464   1_545 S
C400   C585    1.464   .     S
Cu401  N418    2.007   .     S
Cu401  Cu402   2.671   .     S
Cu401  O422    1.963   .     S
Cu401  O419    1.957   .     S
Cu401  O423    1.978   .     S
Cu401  O426    1.979   .     S
Cu402  N417    2.007   .     S
Cu402  O421    1.963   .     S
Cu402  O425    1.979   .     S
Cu402  O420    1.957   .     S
Cu402  O424    1.978   .     S
C427   N428    1.158   .     T
C427   C449    1.455   .     S
C429   N430    1.158   .     T
C429   C512    1.456   1_455 S
C431   N432    1.157   .     T
C433   N434    1.157   .     T
C435   C455    1.466   .     S
C435   O483    1.291   .     A
C435   O481    1.294   .     A
C436   C456    1.470   .     S
C436   O484    1.291   .     A
C436   O482    1.296   .     A
C437   C445    1.410   .     A
C437   H471    1.082   .     S
C437   C439    1.406   .     A
C438   C440    1.406   .     A
C438   C446    1.411   .     A
C438   H472    1.081   .     S
C439   H473    1.081   .     S
C439   N479    1.364   .     A
C440   N480    1.363   .     A
C440   H474    1.081   .     S
C441   N479    1.364   .     A
C441   C443    1.406   .     A
C441   H475    1.080   .     S
C442   H476    1.082   .     S
C442   C444    1.406   .     A
C442   N480    1.363   .     A
C443   C445    1.410   .     A
C443   H477    1.082   .     S
C444   C446    1.411   .     A
C444   H478    1.081   .     S
C446   C73     1.514   1_556 S
C447   O485    1.280   .     A
C447   O487    1.290   .     A
C447   C449    1.438   .     S
C448   O486    1.280   .     A
C448   O488    1.289   .     A
C448   C450    1.437   .     S
C450   C511    1.360   .     S
C450   C553    1.456   .     S
C451   H465    1.083   .     S
C451   C461    1.399   .     A
C451   C453    1.389   .     A
C452   H466    1.083   .     S
C452   C462    1.399   .     A
C452   C454    1.389   .     A
C453   C455    1.403   .     A
C453   H467    1.083   .     S
C454   H468    1.083   .     S
C454   C456    1.405   .     A
C455   C457    1.416   .     A
C456   C458    1.418   .     A
C457   C459    1.393   .     A
C457   C493    1.444   .     S
C458   C495    1.445   .     S
C458   C460    1.393   .     A
C459   C461    1.399   .     A
C459   H469    1.085   .     S
C460   C462    1.399   .     A
C460   H470    1.085   .     S
C461   C648    1.464   1_545 S
C462   C647    1.464   .     S
Cu463  N480    2.007   .     S
Cu463  Cu464   2.671   .     S
Cu463  O484    1.963   .     S
Cu463  O481    1.957   .     S
Cu463  O485    1.978   .     S
Cu463  O488    1.979   .     S
Cu464  N479    2.007   .     S
Cu464  O483    1.963   .     S
Cu464  O487    1.979   .     S
Cu464  O482    1.957   .     S
Cu464  O486    1.978   .     S
C489   N490    1.158   .     T
C489   C511    1.455   .     S
C491   N492    1.158   .     T
C493   N494    1.157   .     T
C495   N496    1.157   .     T
C497   C517    1.466   .     S
C497   O545    1.291   .     A
C497   O543    1.294   .     A
C498   C518    1.470   .     S
C498   O546    1.291   .     A
C498   O544    1.296   .     A
C499   C507    1.410   .     A
C499   H533    1.082   .     S
C499   C501    1.406   .     A
C500   C502    1.406   .     A
C500   C508    1.411   .     A
C500   H534    1.081   .     S
C501   H535    1.081   .     S
C501   N541    1.364   .     A
C502   N542    1.363   .     A
C502   H536    1.081   .     S
C503   N541    1.364   .     A
C503   C505    1.406   .     A
C503   H537    1.080   .     S
C504   H538    1.082   .     S
C504   C506    1.406   .     A
C504   N542    1.363   .     A
C505   C507    1.410   .     A
C505   H539    1.082   .     S
C506   C508    1.411   .     A
C506   H540    1.081   .     S
C508   C135    1.514   1_556 S
C509   O547    1.280   .     A
C509   O549    1.290   .     A
C509   C511    1.438   .     S
C510   O548    1.280   .     A
C510   O550    1.289   .     A
C510   C512    1.437   .     S
C512   C387    1.360   1_655 S
C512   C429    1.456   1_655 S
C513   H527    1.083   .     S
C513   C523    1.399   .     A
C513   C515    1.389   .     A
C514   H528    1.083   .     S
C514   C524    1.399   .     A
C514   C516    1.389   .     A
C515   C517    1.403   .     A
C515   H529    1.083   .     S
C516   H530    1.083   .     S
C516   C518    1.405   .     A
C517   C519    1.416   .     A
C518   C520    1.418   .     A
C519   C521    1.393   .     A
C519   C555    1.444   .     S
C520   C557    1.445   .     S
C520   C522    1.393   .     A
C521   C523    1.399   .     A
C521   H531    1.085   .     S
C522   C524    1.399   .     A
C522   H532    1.085   .     S
C523   C710    1.464   1_545 S
C524   C709    1.464   .     S
Cu525  N542    2.007   .     S
Cu525  Cu526   2.671   .     S
Cu525  O546    1.963   .     S
Cu525  O543    1.957   .     S
Cu525  O547    1.978   .     S
Cu525  O550    1.979   .     S
Cu526  N541    2.007   .     S
Cu526  O545    1.963   .     S
Cu526  O549    1.979   .     S
Cu526  O544    1.957   .     S
Cu526  O548    1.978   .     S
C551   N552    1.158   .     T
C551   C387    1.455   1_655 S
C553   N554    1.158   .     T
C555   N556    1.157   .     T
C557   N558    1.157   .     T
C559   C579    1.466   .     S
C559   O607    1.291   .     A
C559   O605    1.294   .     A
C560   C580    1.470   .     S
C560   O608    1.291   .     A
C560   O606    1.296   .     A
C561   C569    1.410   .     A
C561   H595    1.082   .     S
C561   C563    1.406   .     A
C562   C564    1.406   .     A
C562   C570    1.411   .     A
C562   H596    1.081   .     S
C563   H597    1.081   .     S
C563   N603    1.364   .     A
C564   N604    1.363   .     A
C564   H598    1.081   .     S
C565   N603    1.364   .     A
C565   C567    1.406   .     A
C565   H599    1.080   .     S
C566   H600    1.082   .     S
C566   C568    1.406   .     A
C566   N604    1.363   .     A
C567   C569    1.410   .     A
C567   H601    1.082   .     S
C568   C570    1.411   .     A
C568   H602    1.081   .     S
C570   C197    1.514   1_556 S
C571   O609    1.280   .     A
C571   O611    1.290   .     A
C571   C573    1.438   .     S
C572   O610    1.280   .     A
C572   O612    1.289   .     A
C572   C574    1.437   .     S
C573   C698    1.360   1_455 S
C573   C737    1.455   1_455 S
C574   C635    1.360   .     S
C574   C677    1.456   .     S
C575   H589    1.083   .     S
C575   C585    1.399   .     A
C575   C577    1.389   .     A
C576   H590    1.083   .     S
C576   C586    1.399   .     A
C576   C578    1.389   .     A
C577   C579    1.403   .     A
C577   H591    1.083   .     S
C578   H592    1.083   .     S
C578   C580    1.405   .     A
C579   C581    1.416   .     A
C580   C582    1.418   .     A
C581   C583    1.393   .     A
C581   C617    1.444   .     S
C582   C619    1.445   .     S
C582   C584    1.393   .     A
C583   C585    1.399   .     A
C583   H593    1.085   .     S
C584   C586    1.399   .     A
C584   H594    1.085   .     S
C586   C399    1.464   1_565 S
Cu587  N604    2.007   .     S
Cu587  Cu588   2.671   .     S
Cu587  O608    1.963   .     S
Cu587  O605    1.957   .     S
Cu587  O609    1.978   .     S
Cu587  O612    1.979   .     S
Cu588  N603    2.007   .     S
Cu588  O607    1.963   .     S
Cu588  O611    1.979   .     S
Cu588  O606    1.957   .     S
Cu588  O610    1.978   .     S
C613   N614    1.158   .     T
C613   C635    1.455   .     S
C615   N616    1.158   .     T
C615   C698    1.456   1_455 S
C617   N618    1.157   .     T
C619   N620    1.157   .     T
C621   C641    1.466   .     S
C621   O669    1.291   .     A
C621   O667    1.294   .     A
C622   C642    1.470   .     S
C622   O670    1.291   .     A
C622   O668    1.296   .     A
C623   C631    1.410   .     A
C623   H657    1.082   .     S
C623   C625    1.406   .     A
C624   C626    1.406   .     A
C624   C632    1.411   .     A
C624   H658    1.081   .     S
C625   H659    1.081   .     S
C625   N665    1.364   .     A
C626   N666    1.363   .     A
C626   H660    1.081   .     S
C627   N665    1.364   .     A
C627   C629    1.406   .     A
C627   H661    1.080   .     S
C628   H662    1.082   .     S
C628   C630    1.406   .     A
C628   N666    1.363   .     A
C629   C631    1.410   .     A
C629   H663    1.082   .     S
C630   C632    1.411   .     A
C630   H664    1.081   .     S
C632   C259    1.514   1_556 S
C633   O671    1.280   .     A
C633   O673    1.290   .     A
C633   C635    1.438   .     S
C634   O672    1.280   .     A
C634   O674    1.289   .     A
C634   C636    1.437   .     S
C636   C697    1.360   .     S
C636   C739    1.456   .     S
C637   H651    1.083   .     S
C637   C647    1.399   .     A
C637   C639    1.389   .     A
C638   H652    1.083   .     S
C638   C648    1.399   .     A
C638   C640    1.389   .     A
C639   C641    1.403   .     A
C639   H653    1.083   .     S
C640   H654    1.083   .     S
C640   C642    1.405   .     A
C641   C643    1.416   .     A
C642   C644    1.418   .     A
C643   C645    1.393   .     A
C643   C679    1.444   .     S
C644   C681    1.445   .     S
C644   C646    1.393   .     A
C645   C647    1.399   .     A
C645   H655    1.085   .     S
C646   C648    1.399   .     A
C646   H656    1.085   .     S
C648   C461    1.464   1_565 S
Cu649  N666    2.007   .     S
Cu649  Cu650   2.671   .     S
Cu649  O670    1.963   .     S
Cu649  O667    1.957   .     S
Cu649  O671    1.978   .     S
Cu649  O674    1.979   .     S
Cu650  N665    2.007   .     S
Cu650  O669    1.963   .     S
Cu650  O673    1.979   .     S
Cu650  O668    1.957   .     S
Cu650  O672    1.978   .     S
C675   N676    1.158   .     T
C675   C697    1.455   .     S
C677   N678    1.158   .     T
C679   N680    1.157   .     T
C681   N682    1.157   .     T
C683   C703    1.466   .     S
C683   O731    1.291   .     A
C683   O729    1.294   .     A
C684   C704    1.470   .     S
C684   O732    1.291   .     A
C684   O730    1.296   .     A
C685   C693    1.410   .     A
C685   H719    1.082   .     S
C685   C687    1.406   .     A
C686   C688    1.406   .     A
C686   C694    1.411   .     A
C686   H720    1.081   .     S
C687   H721    1.081   .     S
C687   N727    1.364   .     A
C688   N728    1.363   .     A
C688   H722    1.081   .     S
C689   N727    1.364   .     A
C689   C691    1.406   .     A
C689   H723    1.080   .     S
C690   H724    1.082   .     S
C690   C692    1.406   .     A
C690   N728    1.363   .     A
C691   C693    1.410   .     A
C691   H725    1.082   .     S
C692   C694    1.411   .     A
C692   H726    1.081   .     S
C694   C321    1.514   1_556 S
C695   O733    1.280   .     A
C695   O735    1.290   .     A
C695   C697    1.438   .     S
C696   O734    1.280   .     A
C696   O736    1.289   .     A
C696   C698    1.437   .     S
C698   C573    1.360   1_655 S
C698   C615    1.456   1_655 S
C699   H713    1.083   .     S
C699   C709    1.399   .     A
C699   C701    1.389   .     A
C700   H714    1.083   .     S
C700   C710    1.399   .     A
C700   C702    1.389   .     A
C701   C703    1.403   .     A
C701   H715    1.083   .     S
C702   H716    1.083   .     S
C702   C704    1.405   .     A
C703   C705    1.416   .     A
C704   C706    1.418   .     A
C705   C707    1.393   .     A
C705   C741    1.444   .     S
C706   C743    1.445   .     S
C706   C708    1.393   .     A
C707   C709    1.399   .     A
C707   H717    1.085   .     S
C708   C710    1.399   .     A
C708   H718    1.085   .     S
C710   C523    1.464   1_565 S
Cu711  N728    2.007   .     S
Cu711  Cu712   2.671   .     S
Cu711  O732    1.963   .     S
Cu711  O729    1.957   .     S
Cu711  O733    1.978   .     S
Cu711  O736    1.979   .     S
Cu712  N727    2.007   .     S
Cu712  O731    1.963   .     S
Cu712  O735    1.979   .     S
Cu712  O730    1.957   .     S
Cu712  O734    1.978   .     S
C737   N738    1.158   .     T
C737   C573    1.455   1_655 S
C739   N740    1.158   .     T
C741   N742    1.157   .     T
C743   N744    1.157   .     T
