data_str_m2_o2_o10_pcu_sym.32
_audit_creation_date              2020-01-03
_audit_creation_method            'Materials Studio'
_symmetry_space_group_name_H-M    'P1'
_symmetry_Int_Tables_number       1
_symmetry_cell_setting            triclinic
loop_
_symmetry_equiv_pos_as_xyz
  x,y,z
_cell_length_a                    26.2025
_cell_length_b                    30.2792
_cell_length_c                    27.6439
_cell_angle_alpha                 89.9968
_cell_angle_beta                  97.9551
_cell_angle_gamma                 89.9998
loop_
_atom_site_label
_atom_site_type_symbol
_atom_site_fract_x
_atom_site_fract_y
_atom_site_fract_z
_atom_site_U_iso_or_equiv
_atom_site_adp_type
_atom_site_occupancy
C1     C     0.16667   0.16491   0.25000   0.00000  Uiso   1.00
C2     C     0.20195   0.27510   0.45126   0.00000  Uiso   1.00
C3     C     0.16705   0.24959   0.02727   0.00000  Uiso   1.00
C4     C     0.16628   0.24958   0.47273   0.00000  Uiso   1.00
C5     C     0.06785   0.24996   0.23753   0.00000  Uiso   1.00
C6     C     0.26548   0.24996   0.26247   0.00000  Uiso   1.00
C7     C     0.01261   0.24990   0.23062   0.00000  Uiso   1.00
C8     C     0.32072   0.24990   0.26938   0.00000  Uiso   1.00
C9     C     0.15078   0.04760   0.28919   0.00000  Uiso   1.00
C10    C     0.15100   0.45242   0.20660   0.00000  Uiso   1.00
C11    C     0.15113   0.09351   0.28935   0.00000  Uiso   1.00
C12    C     0.16666   0.33510   0.25000   0.00000  Uiso   1.00
C13    C     0.15134   0.40651   0.20654   0.00000  Uiso   1.00
C14    C     0.16667   0.11669   0.25000   0.00000  Uiso   1.00
C15    C     0.16666   0.38332   0.25000   0.00000  Uiso   1.00
C16    C     0.18222   0.09351   0.21065   0.00000  Uiso   1.00
C17    C     0.18199   0.40651   0.29347   0.00000  Uiso   1.00
C18    C     0.18256   0.04761   0.21081   0.00000  Uiso   1.00
C19    C     0.18233   0.45241   0.29340   0.00000  Uiso   1.00
C20    C     0.16667   0.02428   0.25000   0.00000  Uiso   1.00
C21    C     0.16667   0.47574   0.25000   0.00000  Uiso   1.00
C22    C     0.20297   0.22436   0.05856   0.00000  Uiso   1.00
C23    C     0.13050   0.22421   0.44146   0.00000  Uiso   1.00
C24    C     0.20182   0.22502   0.10943   0.00000  Uiso   1.00
C25    C     0.13164   0.22487   0.39059   0.00000  Uiso   1.00
C26    C     0.13177   0.27484   0.09975   0.00000  Uiso   1.00
C27    C     0.20143   0.27495   0.40023   0.00000  Uiso   1.00
C28    C     0.13124   0.27497   0.04872   0.00000  Uiso   1.00
Cu29   Cu    0.16667   0.24999   0.29821   0.00000  Uiso   1.00
Cu30   Cu    0.16667   0.25000   0.20178   0.00000  Uiso   1.00
H31    H     0.32595   0.24988   0.19342   0.00000  Uiso   1.00
H32    H     0.19545   0.46963   0.32717   0.00000  Uiso   1.00
H33    H     0.22920   0.20532   0.13314   0.00000  Uiso   1.00
H34    H     0.10436   0.20507   0.36690   0.00000  Uiso   1.00
H35    H     0.10407   0.29469   0.11567   0.00000  Uiso   1.00
H36    H     0.22904   0.29490   0.38429   0.00000  Uiso   1.00
H37    H     0.10301   0.29483   0.02606   0.00000  Uiso   1.00
H38    H     0.23008   0.29507   0.47390   0.00000  Uiso   1.00
H39    H     0.00738   0.24989   0.30658   0.00000  Uiso   1.00
H40    H     0.13750   0.03038   0.31944   0.00000  Uiso   1.00
H41    H     0.13789   0.46964   0.17283   0.00000  Uiso   1.00
H42    H     0.13855   0.11083   0.31989   0.00000  Uiso   1.00
H43    H     0.13894   0.38919   0.17265   0.00000  Uiso   1.00
H44    H     0.19479   0.11084   0.18010   0.00000  Uiso   1.00
H45    H     0.19439   0.38918   0.32735   0.00000  Uiso   1.00
H46    H     0.19584   0.03039   0.18056   0.00000  Uiso   1.00
I47    I     0.25875   0.18416   0.03131   0.00000  Uiso   1.00
I48    I     0.07495   0.18379   0.46875   0.00000  Uiso   1.00
N49    N     0.16667   0.25001   0.12934   0.00000  Uiso   1.00
N50    N     0.16667   0.24999   0.37065   0.00000  Uiso   1.00
O51    O     0.16667   0.18572   0.29071   0.00000  Uiso   1.00
O52    O     0.16666   0.31427   0.20928   0.00000  Uiso   1.00
O53    O     0.16667   0.18573   0.20928   0.00000  Uiso   1.00
O54    O     0.16666   0.31427   0.29072   0.00000  Uiso   1.00
O55    O     0.09161   0.25000   0.28132   0.00000  Uiso   1.00
O56    O     0.24172   0.25000   0.21868   0.00000  Uiso   1.00
O57    O     0.09161   0.25000   0.19988   0.00000  Uiso   1.00
O58    O     0.24172   0.25000   0.30011   0.00000  Uiso   1.00
C59    C     0.50000   0.16491   0.25000   0.00000  Uiso   1.00
C60    C     0.53529   0.27510   0.45126   0.00000  Uiso   1.00
C61    C     0.50038   0.24959   0.02727   0.00000  Uiso   1.00
C62    C     0.49961   0.24958   0.47273   0.00000  Uiso   1.00
C63    C     0.40119   0.24996   0.23753   0.00000  Uiso   1.00
C64    C     0.59881   0.24996   0.26247   0.00000  Uiso   1.00
C65    C     0.34594   0.24990   0.23062   0.00000  Uiso   1.00
C66    C     0.65405   0.24990   0.26938   0.00000  Uiso   1.00
C67    C     0.48412   0.04760   0.28919   0.00000  Uiso   1.00
C68    C     0.48433   0.45242   0.20660   0.00000  Uiso   1.00
C69    C     0.48446   0.09351   0.28935   0.00000  Uiso   1.00
C70    C     0.50000   0.33510   0.25000   0.00000  Uiso   1.00
C71    C     0.48467   0.40651   0.20654   0.00000  Uiso   1.00
C72    C     0.50000   0.11669   0.25000   0.00000  Uiso   1.00
C73    C     0.50000   0.38332   0.25000   0.00000  Uiso   1.00
C74    C     0.51555   0.09351   0.21065   0.00000  Uiso   1.00
C75    C     0.51532   0.40651   0.29347   0.00000  Uiso   1.00
C76    C     0.51589   0.04761   0.21081   0.00000  Uiso   1.00
C77    C     0.51567   0.45241   0.29340   0.00000  Uiso   1.00
C78    C     0.50001   0.02428   0.25000   0.00000  Uiso   1.00
C79    C     0.50000   0.47574   0.25000   0.00000  Uiso   1.00
C80    C     0.53630   0.22436   0.05856   0.00000  Uiso   1.00
C81    C     0.46383   0.22421   0.44146   0.00000  Uiso   1.00
C82    C     0.53515   0.22502   0.10943   0.00000  Uiso   1.00
C83    C     0.46497   0.22487   0.39059   0.00000  Uiso   1.00
C84    C     0.46510   0.27484   0.09975   0.00000  Uiso   1.00
C85    C     0.53477   0.27495   0.40023   0.00000  Uiso   1.00
C86    C     0.46458   0.27497   0.04872   0.00000  Uiso   1.00
Cu87   Cu    0.50000   0.24999   0.29821   0.00000  Uiso   1.00
Cu88   Cu    0.50000   0.25000   0.20178   0.00000  Uiso   1.00
H89    H     0.65928   0.24988   0.19342   0.00000  Uiso   1.00
H90    H     0.52878   0.46963   0.32717   0.00000  Uiso   1.00
H91    H     0.56254   0.20532   0.13314   0.00000  Uiso   1.00
H92    H     0.43769   0.20507   0.36690   0.00000  Uiso   1.00
H93    H     0.43740   0.29469   0.11567   0.00000  Uiso   1.00
H94    H     0.56237   0.29490   0.38429   0.00000  Uiso   1.00
H95    H     0.43634   0.29483   0.02606   0.00000  Uiso   1.00
H96    H     0.56341   0.29507   0.47390   0.00000  Uiso   1.00
H97    H     0.34072   0.24989   0.30658   0.00000  Uiso   1.00
H98    H     0.47083   0.03038   0.31944   0.00000  Uiso   1.00
H99    H     0.47122   0.46964   0.17283   0.00000  Uiso   1.00
H100   H     0.47189   0.11083   0.31989   0.00000  Uiso   1.00
H101   H     0.47227   0.38919   0.17265   0.00000  Uiso   1.00
H102   H     0.52812   0.11084   0.18010   0.00000  Uiso   1.00
H103   H     0.52772   0.38918   0.32735   0.00000  Uiso   1.00
H104   H     0.52918   0.03039   0.18056   0.00000  Uiso   1.00
I105   I     0.59208   0.18416   0.03131   0.00000  Uiso   1.00
I106   I     0.40828   0.18379   0.46875   0.00000  Uiso   1.00
N107   N     0.50000   0.25001   0.12934   0.00000  Uiso   1.00
N108   N     0.50000   0.24999   0.37065   0.00000  Uiso   1.00
O109   O     0.50000   0.18572   0.29071   0.00000  Uiso   1.00
O110   O     0.50000   0.31427   0.20928   0.00000  Uiso   1.00
O111   O     0.50000   0.18573   0.20928   0.00000  Uiso   1.00
O112   O     0.50000   0.31427   0.29072   0.00000  Uiso   1.00
O113   O     0.42495   0.25000   0.28132   0.00000  Uiso   1.00
O114   O     0.57505   0.25000   0.21868   0.00000  Uiso   1.00
O115   O     0.42495   0.25000   0.19988   0.00000  Uiso   1.00
O116   O     0.57505   0.25000   0.30011   0.00000  Uiso   1.00
C117   C     0.83334   0.16491   0.25000   0.00000  Uiso   1.00
C118   C     0.86862   0.27510   0.45126   0.00000  Uiso   1.00
C119   C     0.83372   0.24959   0.02727   0.00000  Uiso   1.00
C120   C     0.83295   0.24958   0.47273   0.00000  Uiso   1.00
C121   C     0.73452   0.24996   0.23753   0.00000  Uiso   1.00
C122   C     0.93214   0.24996   0.26247   0.00000  Uiso   1.00
C123   C     0.67928   0.24990   0.23062   0.00000  Uiso   1.00
C124   C     0.98739   0.24990   0.26938   0.00000  Uiso   1.00
C125   C     0.81745   0.04760   0.28919   0.00000  Uiso   1.00
C126   C     0.81767   0.45242   0.20660   0.00000  Uiso   1.00
C127   C     0.81779   0.09351   0.28935   0.00000  Uiso   1.00
C128   C     0.83333   0.33510   0.25000   0.00000  Uiso   1.00
C129   C     0.81800   0.40651   0.20654   0.00000  Uiso   1.00
C130   C     0.83334   0.11669   0.25000   0.00000  Uiso   1.00
C131   C     0.83333   0.38332   0.25000   0.00000  Uiso   1.00
C132   C     0.84888   0.09351   0.21065   0.00000  Uiso   1.00
C133   C     0.84866   0.40651   0.29347   0.00000  Uiso   1.00
C134   C     0.84923   0.04761   0.21081   0.00000  Uiso   1.00
C135   C     0.84900   0.45241   0.29340   0.00000  Uiso   1.00
C136   C     0.83334   0.02428   0.25000   0.00000  Uiso   1.00
C137   C     0.83334   0.47574   0.25000   0.00000  Uiso   1.00
C138   C     0.86963   0.22436   0.05856   0.00000  Uiso   1.00
C139   C     0.79717   0.22421   0.44146   0.00000  Uiso   1.00
C140   C     0.86849   0.22502   0.10943   0.00000  Uiso   1.00
C141   C     0.79831   0.22487   0.39059   0.00000  Uiso   1.00
C142   C     0.79844   0.27484   0.09975   0.00000  Uiso   1.00
C143   C     0.86810   0.27495   0.40023   0.00000  Uiso   1.00
C144   C     0.79791   0.27497   0.04872   0.00000  Uiso   1.00
Cu145  Cu    0.83333   0.24999   0.29821   0.00000  Uiso   1.00
Cu146  Cu    0.83333   0.25000   0.20178   0.00000  Uiso   1.00
H147   H     0.99262   0.24988   0.19342   0.00000  Uiso   1.00
H148   H     0.86211   0.46963   0.32717   0.00000  Uiso   1.00
H149   H     0.89587   0.20532   0.13314   0.00000  Uiso   1.00
H150   H     0.77103   0.20507   0.36690   0.00000  Uiso   1.00
H151   H     0.77073   0.29469   0.11567   0.00000  Uiso   1.00
H152   H     0.89570   0.29490   0.38429   0.00000  Uiso   1.00
H153   H     0.76968   0.29483   0.02606   0.00000  Uiso   1.00
H154   H     0.89674   0.29507   0.47390   0.00000  Uiso   1.00
H155   H     0.67405   0.24989   0.30658   0.00000  Uiso   1.00
H156   H     0.80417   0.03038   0.31944   0.00000  Uiso   1.00
H157   H     0.80456   0.46964   0.17283   0.00000  Uiso   1.00
H158   H     0.80522   0.11083   0.31989   0.00000  Uiso   1.00
H159   H     0.80560   0.38919   0.17265   0.00000  Uiso   1.00
H160   H     0.86145   0.11084   0.18010   0.00000  Uiso   1.00
H161   H     0.86106   0.38918   0.32735   0.00000  Uiso   1.00
H162   H     0.86251   0.03039   0.18056   0.00000  Uiso   1.00
I163   I     0.92542   0.18416   0.03131   0.00000  Uiso   1.00
I164   I     0.74161   0.18379   0.46875   0.00000  Uiso   1.00
N165   N     0.83333   0.25001   0.12934   0.00000  Uiso   1.00
N166   N     0.83333   0.24999   0.37065   0.00000  Uiso   1.00
O167   O     0.83334   0.18572   0.29071   0.00000  Uiso   1.00
O168   O     0.83333   0.31427   0.20928   0.00000  Uiso   1.00
O169   O     0.83334   0.18573   0.20928   0.00000  Uiso   1.00
O170   O     0.83333   0.31427   0.29072   0.00000  Uiso   1.00
O171   O     0.75828   0.25000   0.28132   0.00000  Uiso   1.00
O172   O     0.90839   0.25000   0.21868   0.00000  Uiso   1.00
O173   O     0.75828   0.25000   0.19988   0.00000  Uiso   1.00
O174   O     0.90839   0.25000   0.30011   0.00000  Uiso   1.00
C175   C     0.16667   0.66491   0.25000   0.00000  Uiso   1.00
C176   C     0.20195   0.77510   0.45126   0.00000  Uiso   1.00
C177   C     0.16705   0.74959   0.02727   0.00000  Uiso   1.00
C178   C     0.16628   0.74958   0.47273   0.00000  Uiso   1.00
C179   C     0.06785   0.74996   0.23753   0.00000  Uiso   1.00
C180   C     0.26548   0.74996   0.26247   0.00000  Uiso   1.00
C181   C     0.01261   0.74990   0.23062   0.00000  Uiso   1.00
C182   C     0.32072   0.74990   0.26938   0.00000  Uiso   1.00
C183   C     0.15078   0.54760   0.28919   0.00000  Uiso   1.00
C184   C     0.15100   0.95242   0.20660   0.00000  Uiso   1.00
C185   C     0.15113   0.59351   0.28935   0.00000  Uiso   1.00
C186   C     0.16666   0.83510   0.25000   0.00000  Uiso   1.00
C187   C     0.15134   0.90651   0.20654   0.00000  Uiso   1.00
C188   C     0.16667   0.61669   0.25000   0.00000  Uiso   1.00
C189   C     0.16666   0.88332   0.25000   0.00000  Uiso   1.00
C190   C     0.18222   0.59351   0.21065   0.00000  Uiso   1.00
C191   C     0.18199   0.90651   0.29347   0.00000  Uiso   1.00
C192   C     0.18256   0.54761   0.21081   0.00000  Uiso   1.00
C193   C     0.18233   0.95241   0.29340   0.00000  Uiso   1.00
C194   C     0.16667   0.52428   0.25000   0.00000  Uiso   1.00
C195   C     0.16667   0.97574   0.25000   0.00000  Uiso   1.00
C196   C     0.20297   0.72436   0.05856   0.00000  Uiso   1.00
C197   C     0.13050   0.72421   0.44146   0.00000  Uiso   1.00
C198   C     0.20182   0.72502   0.10943   0.00000  Uiso   1.00
C199   C     0.13164   0.72487   0.39059   0.00000  Uiso   1.00
C200   C     0.13177   0.77484   0.09975   0.00000  Uiso   1.00
C201   C     0.20143   0.77495   0.40023   0.00000  Uiso   1.00
C202   C     0.13124   0.77497   0.04872   0.00000  Uiso   1.00
Cu203  Cu    0.16667   0.74999   0.29821   0.00000  Uiso   1.00
Cu204  Cu    0.16667   0.75000   0.20178   0.00000  Uiso   1.00
H205   H     0.32595   0.74988   0.19342   0.00000  Uiso   1.00
H206   H     0.19545   0.96963   0.32717   0.00000  Uiso   1.00
H207   H     0.22920   0.70532   0.13314   0.00000  Uiso   1.00
H208   H     0.10436   0.70507   0.36690   0.00000  Uiso   1.00
H209   H     0.10407   0.79469   0.11567   0.00000  Uiso   1.00
H210   H     0.22904   0.79490   0.38429   0.00000  Uiso   1.00
H211   H     0.10301   0.79483   0.02606   0.00000  Uiso   1.00
H212   H     0.23008   0.79507   0.47390   0.00000  Uiso   1.00
H213   H     0.00738   0.74989   0.30658   0.00000  Uiso   1.00
H214   H     0.13750   0.53038   0.31944   0.00000  Uiso   1.00
H215   H     0.13789   0.96964   0.17283   0.00000  Uiso   1.00
H216   H     0.13855   0.61083   0.31989   0.00000  Uiso   1.00
H217   H     0.13894   0.88919   0.17265   0.00000  Uiso   1.00
H218   H     0.19479   0.61084   0.18010   0.00000  Uiso   1.00
H219   H     0.19439   0.88918   0.32735   0.00000  Uiso   1.00
H220   H     0.19584   0.53039   0.18056   0.00000  Uiso   1.00
I221   I     0.25875   0.68416   0.03131   0.00000  Uiso   1.00
I222   I     0.07495   0.68379   0.46875   0.00000  Uiso   1.00
N223   N     0.16667   0.75001   0.12934   0.00000  Uiso   1.00
N224   N     0.16667   0.74999   0.37065   0.00000  Uiso   1.00
O225   O     0.16667   0.68572   0.29071   0.00000  Uiso   1.00
O226   O     0.16666   0.81427   0.20928   0.00000  Uiso   1.00
O227   O     0.16667   0.68573   0.20928   0.00000  Uiso   1.00
O228   O     0.16666   0.81427   0.29072   0.00000  Uiso   1.00
O229   O     0.09161   0.75000   0.28132   0.00000  Uiso   1.00
O230   O     0.24172   0.75000   0.21868   0.00000  Uiso   1.00
O231   O     0.09161   0.75000   0.19988   0.00000  Uiso   1.00
O232   O     0.24172   0.75000   0.30011   0.00000  Uiso   1.00
C233   C     0.50000   0.66491   0.25000   0.00000  Uiso   1.00
C234   C     0.53529   0.77510   0.45126   0.00000  Uiso   1.00
C235   C     0.50038   0.74959   0.02727   0.00000  Uiso   1.00
C236   C     0.49961   0.74958   0.47273   0.00000  Uiso   1.00
C237   C     0.40119   0.74996   0.23753   0.00000  Uiso   1.00
C238   C     0.59881   0.74996   0.26247   0.00000  Uiso   1.00
C239   C     0.34594   0.74990   0.23062   0.00000  Uiso   1.00
C240   C     0.65405   0.74990   0.26938   0.00000  Uiso   1.00
C241   C     0.48412   0.54760   0.28919   0.00000  Uiso   1.00
C242   C     0.48433   0.95242   0.20660   0.00000  Uiso   1.00
C243   C     0.48446   0.59351   0.28935   0.00000  Uiso   1.00
C244   C     0.50000   0.83510   0.25000   0.00000  Uiso   1.00
C245   C     0.48467   0.90651   0.20654   0.00000  Uiso   1.00
C246   C     0.50000   0.61669   0.25000   0.00000  Uiso   1.00
C247   C     0.50000   0.88332   0.25000   0.00000  Uiso   1.00
C248   C     0.51555   0.59351   0.21065   0.00000  Uiso   1.00
C249   C     0.51532   0.90651   0.29347   0.00000  Uiso   1.00
C250   C     0.51589   0.54761   0.21081   0.00000  Uiso   1.00
C251   C     0.51567   0.95241   0.29340   0.00000  Uiso   1.00
C252   C     0.50001   0.52428   0.25000   0.00000  Uiso   1.00
C253   C     0.50000   0.97574   0.25000   0.00000  Uiso   1.00
C254   C     0.53630   0.72436   0.05856   0.00000  Uiso   1.00
C255   C     0.46383   0.72421   0.44146   0.00000  Uiso   1.00
C256   C     0.53515   0.72502   0.10943   0.00000  Uiso   1.00
C257   C     0.46497   0.72487   0.39059   0.00000  Uiso   1.00
C258   C     0.46510   0.77484   0.09975   0.00000  Uiso   1.00
C259   C     0.53477   0.77495   0.40023   0.00000  Uiso   1.00
C260   C     0.46458   0.77497   0.04872   0.00000  Uiso   1.00
Cu261  Cu    0.50000   0.74999   0.29821   0.00000  Uiso   1.00
Cu262  Cu    0.50000   0.75000   0.20178   0.00000  Uiso   1.00
H263   H     0.65928   0.74988   0.19342   0.00000  Uiso   1.00
H264   H     0.52878   0.96963   0.32717   0.00000  Uiso   1.00
H265   H     0.56254   0.70532   0.13314   0.00000  Uiso   1.00
H266   H     0.43769   0.70507   0.36690   0.00000  Uiso   1.00
H267   H     0.43740   0.79469   0.11567   0.00000  Uiso   1.00
H268   H     0.56237   0.79490   0.38429   0.00000  Uiso   1.00
H269   H     0.43634   0.79483   0.02606   0.00000  Uiso   1.00
H270   H     0.56341   0.79507   0.47390   0.00000  Uiso   1.00
H271   H     0.34072   0.74989   0.30658   0.00000  Uiso   1.00
H272   H     0.47083   0.53038   0.31944   0.00000  Uiso   1.00
H273   H     0.47122   0.96964   0.17283   0.00000  Uiso   1.00
H274   H     0.47189   0.61083   0.31989   0.00000  Uiso   1.00
H275   H     0.47227   0.88919   0.17265   0.00000  Uiso   1.00
H276   H     0.52812   0.61084   0.18010   0.00000  Uiso   1.00
H277   H     0.52772   0.88918   0.32735   0.00000  Uiso   1.00
H278   H     0.52918   0.53039   0.18056   0.00000  Uiso   1.00
I279   I     0.59208   0.68416   0.03131   0.00000  Uiso   1.00
I280   I     0.40828   0.68379   0.46875   0.00000  Uiso   1.00
N281   N     0.50000   0.75001   0.12934   0.00000  Uiso   1.00
N282   N     0.50000   0.74999   0.37065   0.00000  Uiso   1.00
O283   O     0.50000   0.68572   0.29071   0.00000  Uiso   1.00
O284   O     0.50000   0.81427   0.20928   0.00000  Uiso   1.00
O285   O     0.50000   0.68573   0.20928   0.00000  Uiso   1.00
O286   O     0.50000   0.81427   0.29072   0.00000  Uiso   1.00
O287   O     0.42495   0.75000   0.28132   0.00000  Uiso   1.00
O288   O     0.57505   0.75000   0.21868   0.00000  Uiso   1.00
O289   O     0.42495   0.75000   0.19988   0.00000  Uiso   1.00
O290   O     0.57505   0.75000   0.30011   0.00000  Uiso   1.00
C291   C     0.83334   0.66491   0.25000   0.00000  Uiso   1.00
C292   C     0.86862   0.77510   0.45126   0.00000  Uiso   1.00
C293   C     0.83372   0.74959   0.02727   0.00000  Uiso   1.00
C294   C     0.83295   0.74958   0.47273   0.00000  Uiso   1.00
C295   C     0.73452   0.74996   0.23753   0.00000  Uiso   1.00
C296   C     0.93214   0.74996   0.26247   0.00000  Uiso   1.00
C297   C     0.67928   0.74990   0.23062   0.00000  Uiso   1.00
C298   C     0.98739   0.74990   0.26938   0.00000  Uiso   1.00
C299   C     0.81745   0.54760   0.28919   0.00000  Uiso   1.00
C300   C     0.81767   0.95242   0.20660   0.00000  Uiso   1.00
C301   C     0.81779   0.59351   0.28935   0.00000  Uiso   1.00
C302   C     0.83333   0.83510   0.25000   0.00000  Uiso   1.00
C303   C     0.81800   0.90651   0.20654   0.00000  Uiso   1.00
C304   C     0.83334   0.61669   0.25000   0.00000  Uiso   1.00
C305   C     0.83333   0.88332   0.25000   0.00000  Uiso   1.00
C306   C     0.84888   0.59351   0.21065   0.00000  Uiso   1.00
C307   C     0.84866   0.90651   0.29347   0.00000  Uiso   1.00
C308   C     0.84923   0.54761   0.21081   0.00000  Uiso   1.00
C309   C     0.84900   0.95241   0.29340   0.00000  Uiso   1.00
C310   C     0.83334   0.52428   0.25000   0.00000  Uiso   1.00
C311   C     0.83334   0.97574   0.25000   0.00000  Uiso   1.00
C312   C     0.86963   0.72436   0.05856   0.00000  Uiso   1.00
C313   C     0.79717   0.72421   0.44146   0.00000  Uiso   1.00
C314   C     0.86849   0.72502   0.10943   0.00000  Uiso   1.00
C315   C     0.79831   0.72487   0.39059   0.00000  Uiso   1.00
C316   C     0.79844   0.77484   0.09975   0.00000  Uiso   1.00
C317   C     0.86810   0.77495   0.40023   0.00000  Uiso   1.00
C318   C     0.79791   0.77497   0.04872   0.00000  Uiso   1.00
Cu319  Cu    0.83333   0.74999   0.29821   0.00000  Uiso   1.00
Cu320  Cu    0.83333   0.75000   0.20178   0.00000  Uiso   1.00
H321   H     0.99262   0.74988   0.19342   0.00000  Uiso   1.00
H322   H     0.86211   0.96963   0.32717   0.00000  Uiso   1.00
H323   H     0.89587   0.70532   0.13314   0.00000  Uiso   1.00
H324   H     0.77103   0.70507   0.36690   0.00000  Uiso   1.00
H325   H     0.77073   0.79469   0.11567   0.00000  Uiso   1.00
H326   H     0.89570   0.79490   0.38429   0.00000  Uiso   1.00
H327   H     0.76968   0.79483   0.02606   0.00000  Uiso   1.00
H328   H     0.89674   0.79507   0.47390   0.00000  Uiso   1.00
H329   H     0.67405   0.74989   0.30658   0.00000  Uiso   1.00
H330   H     0.80417   0.53038   0.31944   0.00000  Uiso   1.00
H331   H     0.80456   0.96964   0.17283   0.00000  Uiso   1.00
H332   H     0.80522   0.61083   0.31989   0.00000  Uiso   1.00
H333   H     0.80560   0.88919   0.17265   0.00000  Uiso   1.00
H334   H     0.86145   0.61084   0.18010   0.00000  Uiso   1.00
H335   H     0.86106   0.88918   0.32735   0.00000  Uiso   1.00
H336   H     0.86251   0.53039   0.18056   0.00000  Uiso   1.00
I337   I     0.92542   0.68416   0.03131   0.00000  Uiso   1.00
I338   I     0.74161   0.68379   0.46875   0.00000  Uiso   1.00
N339   N     0.83333   0.75001   0.12934   0.00000  Uiso   1.00
N340   N     0.83333   0.74999   0.37065   0.00000  Uiso   1.00
O341   O     0.83334   0.68572   0.29071   0.00000  Uiso   1.00
O342   O     0.83333   0.81427   0.20928   0.00000  Uiso   1.00
O343   O     0.83334   0.68573   0.20928   0.00000  Uiso   1.00
O344   O     0.83333   0.81427   0.29072   0.00000  Uiso   1.00
O345   O     0.75828   0.75000   0.28132   0.00000  Uiso   1.00
O346   O     0.90839   0.75000   0.21868   0.00000  Uiso   1.00
O347   O     0.75828   0.75000   0.19988   0.00000  Uiso   1.00
O348   O     0.90839   0.75000   0.30011   0.00000  Uiso   1.00
C349   C     0.16667   0.16491   0.75000   0.00000  Uiso   1.00
C350   C     0.20195   0.27510   0.95126   0.00000  Uiso   1.00
C351   C     0.16705   0.24959   0.52727   0.00000  Uiso   1.00
C352   C     0.16628   0.24958   0.97273   0.00000  Uiso   1.00
C353   C     0.06785   0.24996   0.73753   0.00000  Uiso   1.00
C354   C     0.26548   0.24996   0.76247   0.00000  Uiso   1.00
C355   C     0.01261   0.24990   0.73062   0.00000  Uiso   1.00
C356   C     0.32072   0.24990   0.76938   0.00000  Uiso   1.00
C357   C     0.15078   0.04760   0.78919   0.00000  Uiso   1.00
C358   C     0.15100   0.45242   0.70660   0.00000  Uiso   1.00
C359   C     0.15113   0.09351   0.78935   0.00000  Uiso   1.00
C360   C     0.16666   0.33510   0.75000   0.00000  Uiso   1.00
C361   C     0.15134   0.40651   0.70654   0.00000  Uiso   1.00
C362   C     0.16667   0.11669   0.75000   0.00000  Uiso   1.00
C363   C     0.16666   0.38332   0.75000   0.00000  Uiso   1.00
C364   C     0.18222   0.09351   0.71065   0.00000  Uiso   1.00
C365   C     0.18199   0.40651   0.79347   0.00000  Uiso   1.00
C366   C     0.18256   0.04761   0.71081   0.00000  Uiso   1.00
C367   C     0.18233   0.45241   0.79340   0.00000  Uiso   1.00
C368   C     0.16667   0.02428   0.75000   0.00000  Uiso   1.00
C369   C     0.16667   0.47574   0.75000   0.00000  Uiso   1.00
C370   C     0.20297   0.22436   0.55856   0.00000  Uiso   1.00
C371   C     0.13050   0.22421   0.94146   0.00000  Uiso   1.00
C372   C     0.20182   0.22502   0.60943   0.00000  Uiso   1.00
C373   C     0.13164   0.22487   0.89059   0.00000  Uiso   1.00
C374   C     0.13177   0.27484   0.59975   0.00000  Uiso   1.00
C375   C     0.20143   0.27495   0.90023   0.00000  Uiso   1.00
C376   C     0.13124   0.27497   0.54872   0.00000  Uiso   1.00
Cu377  Cu    0.16667   0.24999   0.79821   0.00000  Uiso   1.00
Cu378  Cu    0.16667   0.25000   0.70178   0.00000  Uiso   1.00
H379   H     0.32595   0.24988   0.69342   0.00000  Uiso   1.00
H380   H     0.19545   0.46963   0.82717   0.00000  Uiso   1.00
H381   H     0.22920   0.20532   0.63314   0.00000  Uiso   1.00
H382   H     0.10436   0.20507   0.86690   0.00000  Uiso   1.00
H383   H     0.10407   0.29469   0.61567   0.00000  Uiso   1.00
H384   H     0.22904   0.29490   0.88429   0.00000  Uiso   1.00
H385   H     0.10301   0.29483   0.52606   0.00000  Uiso   1.00
H386   H     0.23008   0.29507   0.97390   0.00000  Uiso   1.00
H387   H     0.00738   0.24989   0.80658   0.00000  Uiso   1.00
H388   H     0.13750   0.03038   0.81944   0.00000  Uiso   1.00
H389   H     0.13789   0.46964   0.67283   0.00000  Uiso   1.00
H390   H     0.13855   0.11083   0.81989   0.00000  Uiso   1.00
H391   H     0.13894   0.38919   0.67265   0.00000  Uiso   1.00
H392   H     0.19479   0.11084   0.68010   0.00000  Uiso   1.00
H393   H     0.19439   0.38918   0.82735   0.00000  Uiso   1.00
H394   H     0.19584   0.03039   0.68056   0.00000  Uiso   1.00
I395   I     0.25875   0.18416   0.53131   0.00000  Uiso   1.00
I396   I     0.07495   0.18379   0.96875   0.00000  Uiso   1.00
N397   N     0.16667   0.25001   0.62934   0.00000  Uiso   1.00
N398   N     0.16667   0.24999   0.87065   0.00000  Uiso   1.00
O399   O     0.16667   0.18572   0.79071   0.00000  Uiso   1.00
O400   O     0.16666   0.31427   0.70928   0.00000  Uiso   1.00
O401   O     0.16667   0.18573   0.70928   0.00000  Uiso   1.00
O402   O     0.16666   0.31427   0.79072   0.00000  Uiso   1.00
O403   O     0.09161   0.25000   0.78132   0.00000  Uiso   1.00
O404   O     0.24172   0.25000   0.71868   0.00000  Uiso   1.00
O405   O     0.09161   0.25000   0.69988   0.00000  Uiso   1.00
O406   O     0.24172   0.25000   0.80011   0.00000  Uiso   1.00
C407   C     0.50000   0.16491   0.75000   0.00000  Uiso   1.00
C408   C     0.53529   0.27510   0.95126   0.00000  Uiso   1.00
C409   C     0.50038   0.24959   0.52727   0.00000  Uiso   1.00
C410   C     0.49961   0.24958   0.97273   0.00000  Uiso   1.00
C411   C     0.40119   0.24996   0.73753   0.00000  Uiso   1.00
C412   C     0.59881   0.24996   0.76247   0.00000  Uiso   1.00
C413   C     0.34594   0.24990   0.73062   0.00000  Uiso   1.00
C414   C     0.65405   0.24990   0.76938   0.00000  Uiso   1.00
C415   C     0.48412   0.04760   0.78919   0.00000  Uiso   1.00
C416   C     0.48433   0.45242   0.70660   0.00000  Uiso   1.00
C417   C     0.48446   0.09351   0.78935   0.00000  Uiso   1.00
C418   C     0.50000   0.33510   0.75000   0.00000  Uiso   1.00
C419   C     0.48467   0.40651   0.70654   0.00000  Uiso   1.00
C420   C     0.50000   0.11669   0.75000   0.00000  Uiso   1.00
C421   C     0.50000   0.38332   0.75000   0.00000  Uiso   1.00
C422   C     0.51555   0.09351   0.71065   0.00000  Uiso   1.00
C423   C     0.51532   0.40651   0.79347   0.00000  Uiso   1.00
C424   C     0.51589   0.04761   0.71081   0.00000  Uiso   1.00
C425   C     0.51567   0.45241   0.79340   0.00000  Uiso   1.00
C426   C     0.50001   0.02428   0.75000   0.00000  Uiso   1.00
C427   C     0.50000   0.47574   0.75000   0.00000  Uiso   1.00
C428   C     0.53630   0.22436   0.55856   0.00000  Uiso   1.00
C429   C     0.46383   0.22421   0.94146   0.00000  Uiso   1.00
C430   C     0.53515   0.22502   0.60943   0.00000  Uiso   1.00
C431   C     0.46497   0.22487   0.89059   0.00000  Uiso   1.00
C432   C     0.46510   0.27484   0.59975   0.00000  Uiso   1.00
C433   C     0.53477   0.27495   0.90023   0.00000  Uiso   1.00
C434   C     0.46458   0.27497   0.54872   0.00000  Uiso   1.00
Cu435  Cu    0.50000   0.24999   0.79821   0.00000  Uiso   1.00
Cu436  Cu    0.50000   0.25000   0.70178   0.00000  Uiso   1.00
H437   H     0.65928   0.24988   0.69342   0.00000  Uiso   1.00
H438   H     0.52878   0.46963   0.82717   0.00000  Uiso   1.00
H439   H     0.56254   0.20532   0.63314   0.00000  Uiso   1.00
H440   H     0.43769   0.20507   0.86690   0.00000  Uiso   1.00
H441   H     0.43740   0.29469   0.61567   0.00000  Uiso   1.00
H442   H     0.56237   0.29490   0.88429   0.00000  Uiso   1.00
H443   H     0.43634   0.29483   0.52606   0.00000  Uiso   1.00
H444   H     0.56341   0.29507   0.97390   0.00000  Uiso   1.00
H445   H     0.34072   0.24989   0.80658   0.00000  Uiso   1.00
H446   H     0.47083   0.03038   0.81944   0.00000  Uiso   1.00
H447   H     0.47122   0.46964   0.67283   0.00000  Uiso   1.00
H448   H     0.47189   0.11083   0.81989   0.00000  Uiso   1.00
H449   H     0.47227   0.38919   0.67265   0.00000  Uiso   1.00
H450   H     0.52812   0.11084   0.68010   0.00000  Uiso   1.00
H451   H     0.52772   0.38918   0.82735   0.00000  Uiso   1.00
H452   H     0.52918   0.03039   0.68056   0.00000  Uiso   1.00
I453   I     0.59208   0.18416   0.53131   0.00000  Uiso   1.00
I454   I     0.40828   0.18379   0.96875   0.00000  Uiso   1.00
N455   N     0.50000   0.25001   0.62934   0.00000  Uiso   1.00
N456   N     0.50000   0.24999   0.87065   0.00000  Uiso   1.00
O457   O     0.50000   0.18572   0.79071   0.00000  Uiso   1.00
O458   O     0.50000   0.31427   0.70928   0.00000  Uiso   1.00
O459   O     0.50000   0.18573   0.70928   0.00000  Uiso   1.00
O460   O     0.50000   0.31427   0.79072   0.00000  Uiso   1.00
O461   O     0.42495   0.25000   0.78132   0.00000  Uiso   1.00
O462   O     0.57505   0.25000   0.71868   0.00000  Uiso   1.00
O463   O     0.42495   0.25000   0.69988   0.00000  Uiso   1.00
O464   O     0.57505   0.25000   0.80011   0.00000  Uiso   1.00
C465   C     0.83334   0.16491   0.75000   0.00000  Uiso   1.00
C466   C     0.86862   0.27510   0.95126   0.00000  Uiso   1.00
C467   C     0.83372   0.24959   0.52727   0.00000  Uiso   1.00
C468   C     0.83295   0.24958   0.97273   0.00000  Uiso   1.00
C469   C     0.73452   0.24996   0.73753   0.00000  Uiso   1.00
C470   C     0.93214   0.24996   0.76247   0.00000  Uiso   1.00
C471   C     0.67928   0.24990   0.73062   0.00000  Uiso   1.00
C472   C     0.98739   0.24990   0.76938   0.00000  Uiso   1.00
C473   C     0.81745   0.04760   0.78919   0.00000  Uiso   1.00
C474   C     0.81767   0.45242   0.70660   0.00000  Uiso   1.00
C475   C     0.81779   0.09351   0.78935   0.00000  Uiso   1.00
C476   C     0.83333   0.33510   0.75000   0.00000  Uiso   1.00
C477   C     0.81800   0.40651   0.70654   0.00000  Uiso   1.00
C478   C     0.83334   0.11669   0.75000   0.00000  Uiso   1.00
C479   C     0.83333   0.38332   0.75000   0.00000  Uiso   1.00
C480   C     0.84888   0.09351   0.71065   0.00000  Uiso   1.00
C481   C     0.84866   0.40651   0.79347   0.00000  Uiso   1.00
C482   C     0.84923   0.04761   0.71081   0.00000  Uiso   1.00
C483   C     0.84900   0.45241   0.79340   0.00000  Uiso   1.00
C484   C     0.83334   0.02428   0.75000   0.00000  Uiso   1.00
C485   C     0.83334   0.47574   0.75000   0.00000  Uiso   1.00
C486   C     0.86963   0.22436   0.55856   0.00000  Uiso   1.00
C487   C     0.79717   0.22421   0.94146   0.00000  Uiso   1.00
C488   C     0.86849   0.22502   0.60943   0.00000  Uiso   1.00
C489   C     0.79831   0.22487   0.89059   0.00000  Uiso   1.00
C490   C     0.79844   0.27484   0.59975   0.00000  Uiso   1.00
C491   C     0.86810   0.27495   0.90023   0.00000  Uiso   1.00
C492   C     0.79791   0.27497   0.54872   0.00000  Uiso   1.00
Cu493  Cu    0.83333   0.24999   0.79821   0.00000  Uiso   1.00
Cu494  Cu    0.83333   0.25000   0.70178   0.00000  Uiso   1.00
H495   H     0.99262   0.24988   0.69342   0.00000  Uiso   1.00
H496   H     0.86211   0.46963   0.82717   0.00000  Uiso   1.00
H497   H     0.89587   0.20532   0.63314   0.00000  Uiso   1.00
H498   H     0.77103   0.20507   0.86690   0.00000  Uiso   1.00
H499   H     0.77073   0.29469   0.61567   0.00000  Uiso   1.00
H500   H     0.89570   0.29490   0.88429   0.00000  Uiso   1.00
H501   H     0.76968   0.29483   0.52606   0.00000  Uiso   1.00
H502   H     0.89674   0.29507   0.97390   0.00000  Uiso   1.00
H503   H     0.67405   0.24989   0.80658   0.00000  Uiso   1.00
H504   H     0.80417   0.03038   0.81944   0.00000  Uiso   1.00
H505   H     0.80456   0.46964   0.67283   0.00000  Uiso   1.00
H506   H     0.80522   0.11083   0.81989   0.00000  Uiso   1.00
H507   H     0.80560   0.38919   0.67265   0.00000  Uiso   1.00
H508   H     0.86145   0.11084   0.68010   0.00000  Uiso   1.00
H509   H     0.86106   0.38918   0.82735   0.00000  Uiso   1.00
H510   H     0.86251   0.03039   0.68056   0.00000  Uiso   1.00
I511   I     0.92542   0.18416   0.53131   0.00000  Uiso   1.00
I512   I     0.74161   0.18379   0.96875   0.00000  Uiso   1.00
N513   N     0.83333   0.25001   0.62934   0.00000  Uiso   1.00
N514   N     0.83333   0.24999   0.87065   0.00000  Uiso   1.00
O515   O     0.83334   0.18572   0.79071   0.00000  Uiso   1.00
O516   O     0.83333   0.31427   0.70928   0.00000  Uiso   1.00
O517   O     0.83334   0.18573   0.70928   0.00000  Uiso   1.00
O518   O     0.83333   0.31427   0.79072   0.00000  Uiso   1.00
O519   O     0.75828   0.25000   0.78132   0.00000  Uiso   1.00
O520   O     0.90839   0.25000   0.71868   0.00000  Uiso   1.00
O521   O     0.75828   0.25000   0.69988   0.00000  Uiso   1.00
O522   O     0.90839   0.25000   0.80011   0.00000  Uiso   1.00
C523   C     0.16667   0.66491   0.75000   0.00000  Uiso   1.00
C524   C     0.20195   0.77510   0.95126   0.00000  Uiso   1.00
C525   C     0.16705   0.74959   0.52727   0.00000  Uiso   1.00
C526   C     0.16628   0.74958   0.97273   0.00000  Uiso   1.00
C527   C     0.06785   0.74996   0.73753   0.00000  Uiso   1.00
C528   C     0.26548   0.74996   0.76247   0.00000  Uiso   1.00
C529   C     0.01261   0.74990   0.73062   0.00000  Uiso   1.00
C530   C     0.32072   0.74990   0.76938   0.00000  Uiso   1.00
C531   C     0.15078   0.54760   0.78919   0.00000  Uiso   1.00
C532   C     0.15100   0.95242   0.70660   0.00000  Uiso   1.00
C533   C     0.15113   0.59351   0.78935   0.00000  Uiso   1.00
C534   C     0.16666   0.83510   0.75000   0.00000  Uiso   1.00
C535   C     0.15134   0.90651   0.70654   0.00000  Uiso   1.00
C536   C     0.16667   0.61669   0.75000   0.00000  Uiso   1.00
C537   C     0.16666   0.88332   0.75000   0.00000  Uiso   1.00
C538   C     0.18222   0.59351   0.71065   0.00000  Uiso   1.00
C539   C     0.18199   0.90651   0.79347   0.00000  Uiso   1.00
C540   C     0.18256   0.54761   0.71081   0.00000  Uiso   1.00
C541   C     0.18233   0.95241   0.79340   0.00000  Uiso   1.00
C542   C     0.16667   0.52428   0.75000   0.00000  Uiso   1.00
C543   C     0.16667   0.97574   0.75000   0.00000  Uiso   1.00
C544   C     0.20297   0.72436   0.55856   0.00000  Uiso   1.00
C545   C     0.13050   0.72421   0.94146   0.00000  Uiso   1.00
C546   C     0.20182   0.72502   0.60943   0.00000  Uiso   1.00
C547   C     0.13164   0.72487   0.89059   0.00000  Uiso   1.00
C548   C     0.13177   0.77484   0.59975   0.00000  Uiso   1.00
C549   C     0.20143   0.77495   0.90023   0.00000  Uiso   1.00
C550   C     0.13124   0.77497   0.54872   0.00000  Uiso   1.00
Cu551  Cu    0.16667   0.74999   0.79821   0.00000  Uiso   1.00
Cu552  Cu    0.16667   0.75000   0.70178   0.00000  Uiso   1.00
H553   H     0.32595   0.74988   0.69342   0.00000  Uiso   1.00
H554   H     0.19545   0.96963   0.82717   0.00000  Uiso   1.00
H555   H     0.22920   0.70532   0.63314   0.00000  Uiso   1.00
H556   H     0.10436   0.70507   0.86690   0.00000  Uiso   1.00
H557   H     0.10407   0.79469   0.61567   0.00000  Uiso   1.00
H558   H     0.22904   0.79490   0.88429   0.00000  Uiso   1.00
H559   H     0.10301   0.79483   0.52606   0.00000  Uiso   1.00
H560   H     0.23008   0.79507   0.97390   0.00000  Uiso   1.00
H561   H     0.00738   0.74989   0.80658   0.00000  Uiso   1.00
H562   H     0.13750   0.53038   0.81944   0.00000  Uiso   1.00
H563   H     0.13789   0.96964   0.67283   0.00000  Uiso   1.00
H564   H     0.13855   0.61083   0.81989   0.00000  Uiso   1.00
H565   H     0.13894   0.88919   0.67265   0.00000  Uiso   1.00
H566   H     0.19479   0.61084   0.68010   0.00000  Uiso   1.00
H567   H     0.19439   0.88918   0.82735   0.00000  Uiso   1.00
H568   H     0.19584   0.53039   0.68056   0.00000  Uiso   1.00
I569   I     0.25875   0.68416   0.53131   0.00000  Uiso   1.00
I570   I     0.07495   0.68379   0.96875   0.00000  Uiso   1.00
N571   N     0.16667   0.75001   0.62934   0.00000  Uiso   1.00
N572   N     0.16667   0.74999   0.87065   0.00000  Uiso   1.00
O573   O     0.16667   0.68572   0.79071   0.00000  Uiso   1.00
O574   O     0.16666   0.81427   0.70928   0.00000  Uiso   1.00
O575   O     0.16667   0.68573   0.70928   0.00000  Uiso   1.00
O576   O     0.16666   0.81427   0.79072   0.00000  Uiso   1.00
O577   O     0.09161   0.75000   0.78132   0.00000  Uiso   1.00
O578   O     0.24172   0.75000   0.71868   0.00000  Uiso   1.00
O579   O     0.09161   0.75000   0.69988   0.00000  Uiso   1.00
O580   O     0.24172   0.75000   0.80011   0.00000  Uiso   1.00
C581   C     0.50000   0.66491   0.75000   0.00000  Uiso   1.00
C582   C     0.53529   0.77510   0.95126   0.00000  Uiso   1.00
C583   C     0.50038   0.74959   0.52727   0.00000  Uiso   1.00
C584   C     0.49961   0.74958   0.97273   0.00000  Uiso   1.00
C585   C     0.40119   0.74996   0.73753   0.00000  Uiso   1.00
C586   C     0.59881   0.74996   0.76247   0.00000  Uiso   1.00
C587   C     0.34594   0.74990   0.73062   0.00000  Uiso   1.00
C588   C     0.65405   0.74990   0.76938   0.00000  Uiso   1.00
C589   C     0.48412   0.54760   0.78919   0.00000  Uiso   1.00
C590   C     0.48433   0.95242   0.70660   0.00000  Uiso   1.00
C591   C     0.48446   0.59351   0.78935   0.00000  Uiso   1.00
C592   C     0.50000   0.83510   0.75000   0.00000  Uiso   1.00
C593   C     0.48467   0.90651   0.70654   0.00000  Uiso   1.00
C594   C     0.50000   0.61669   0.75000   0.00000  Uiso   1.00
C595   C     0.50000   0.88332   0.75000   0.00000  Uiso   1.00
C596   C     0.51555   0.59351   0.71065   0.00000  Uiso   1.00
C597   C     0.51532   0.90651   0.79347   0.00000  Uiso   1.00
C598   C     0.51589   0.54761   0.71081   0.00000  Uiso   1.00
C599   C     0.51567   0.95241   0.79340   0.00000  Uiso   1.00
C600   C     0.50001   0.52428   0.75000   0.00000  Uiso   1.00
C601   C     0.50000   0.97574   0.75000   0.00000  Uiso   1.00
C602   C     0.53630   0.72436   0.55856   0.00000  Uiso   1.00
C603   C     0.46383   0.72421   0.94146   0.00000  Uiso   1.00
C604   C     0.53515   0.72502   0.60943   0.00000  Uiso   1.00
C605   C     0.46497   0.72487   0.89059   0.00000  Uiso   1.00
C606   C     0.46510   0.77484   0.59975   0.00000  Uiso   1.00
C607   C     0.53477   0.77495   0.90023   0.00000  Uiso   1.00
C608   C     0.46458   0.77497   0.54872   0.00000  Uiso   1.00
Cu609  Cu    0.50000   0.74999   0.79821   0.00000  Uiso   1.00
Cu610  Cu    0.50000   0.75000   0.70178   0.00000  Uiso   1.00
H611   H     0.65928   0.74988   0.69342   0.00000  Uiso   1.00
H612   H     0.52878   0.96963   0.82717   0.00000  Uiso   1.00
H613   H     0.56254   0.70532   0.63314   0.00000  Uiso   1.00
H614   H     0.43769   0.70507   0.86690   0.00000  Uiso   1.00
H615   H     0.43740   0.79469   0.61567   0.00000  Uiso   1.00
H616   H     0.56237   0.79490   0.88429   0.00000  Uiso   1.00
H617   H     0.43634   0.79483   0.52606   0.00000  Uiso   1.00
H618   H     0.56341   0.79507   0.97390   0.00000  Uiso   1.00
H619   H     0.34072   0.74989   0.80658   0.00000  Uiso   1.00
H620   H     0.47083   0.53038   0.81944   0.00000  Uiso   1.00
H621   H     0.47122   0.96964   0.67283   0.00000  Uiso   1.00
H622   H     0.47189   0.61083   0.81989   0.00000  Uiso   1.00
H623   H     0.47227   0.88919   0.67265   0.00000  Uiso   1.00
H624   H     0.52812   0.61084   0.68010   0.00000  Uiso   1.00
H625   H     0.52772   0.88918   0.82735   0.00000  Uiso   1.00
H626   H     0.52918   0.53039   0.68056   0.00000  Uiso   1.00
I627   I     0.59208   0.68416   0.53131   0.00000  Uiso   1.00
I628   I     0.40828   0.68379   0.96875   0.00000  Uiso   1.00
N629   N     0.50000   0.75001   0.62934   0.00000  Uiso   1.00
N630   N     0.50000   0.74999   0.87065   0.00000  Uiso   1.00
O631   O     0.50000   0.68572   0.79071   0.00000  Uiso   1.00
O632   O     0.50000   0.81427   0.70928   0.00000  Uiso   1.00
O633   O     0.50000   0.68573   0.70928   0.00000  Uiso   1.00
O634   O     0.50000   0.81427   0.79072   0.00000  Uiso   1.00
O635   O     0.42495   0.75000   0.78132   0.00000  Uiso   1.00
O636   O     0.57505   0.75000   0.71868   0.00000  Uiso   1.00
O637   O     0.42495   0.75000   0.69988   0.00000  Uiso   1.00
O638   O     0.57505   0.75000   0.80011   0.00000  Uiso   1.00
C639   C     0.83334   0.66491   0.75000   0.00000  Uiso   1.00
C640   C     0.86862   0.77510   0.95126   0.00000  Uiso   1.00
C641   C     0.83372   0.74959   0.52727   0.00000  Uiso   1.00
C642   C     0.83295   0.74958   0.97273   0.00000  Uiso   1.00
C643   C     0.73452   0.74996   0.73753   0.00000  Uiso   1.00
C644   C     0.93214   0.74996   0.76247   0.00000  Uiso   1.00
C645   C     0.67928   0.74990   0.73062   0.00000  Uiso   1.00
C646   C     0.98739   0.74990   0.76938   0.00000  Uiso   1.00
C647   C     0.81745   0.54760   0.78919   0.00000  Uiso   1.00
C648   C     0.81767   0.95242   0.70660   0.00000  Uiso   1.00
C649   C     0.81779   0.59351   0.78935   0.00000  Uiso   1.00
C650   C     0.83333   0.83510   0.75000   0.00000  Uiso   1.00
C651   C     0.81800   0.90651   0.70654   0.00000  Uiso   1.00
C652   C     0.83334   0.61669   0.75000   0.00000  Uiso   1.00
C653   C     0.83333   0.88332   0.75000   0.00000  Uiso   1.00
C654   C     0.84888   0.59351   0.71065   0.00000  Uiso   1.00
C655   C     0.84866   0.90651   0.79347   0.00000  Uiso   1.00
C656   C     0.84923   0.54761   0.71081   0.00000  Uiso   1.00
C657   C     0.84900   0.95241   0.79340   0.00000  Uiso   1.00
C658   C     0.83334   0.52428   0.75000   0.00000  Uiso   1.00
C659   C     0.83334   0.97574   0.75000   0.00000  Uiso   1.00
C660   C     0.86963   0.72436   0.55856   0.00000  Uiso   1.00
C661   C     0.79717   0.72421   0.94146   0.00000  Uiso   1.00
C662   C     0.86849   0.72502   0.60943   0.00000  Uiso   1.00
C663   C     0.79831   0.72487   0.89059   0.00000  Uiso   1.00
C664   C     0.79844   0.77484   0.59975   0.00000  Uiso   1.00
C665   C     0.86810   0.77495   0.90023   0.00000  Uiso   1.00
C666   C     0.79791   0.77497   0.54872   0.00000  Uiso   1.00
Cu667  Cu    0.83333   0.74999   0.79821   0.00000  Uiso   1.00
Cu668  Cu    0.83333   0.75000   0.70178   0.00000  Uiso   1.00
H669   H     0.99262   0.74988   0.69342   0.00000  Uiso   1.00
H670   H     0.86211   0.96963   0.82717   0.00000  Uiso   1.00
H671   H     0.89587   0.70532   0.63314   0.00000  Uiso   1.00
H672   H     0.77103   0.70507   0.86690   0.00000  Uiso   1.00
H673   H     0.77073   0.79469   0.61567   0.00000  Uiso   1.00
H674   H     0.89570   0.79490   0.88429   0.00000  Uiso   1.00
H675   H     0.76968   0.79483   0.52606   0.00000  Uiso   1.00
H676   H     0.89674   0.79507   0.97390   0.00000  Uiso   1.00
H677   H     0.67405   0.74989   0.80658   0.00000  Uiso   1.00
H678   H     0.80417   0.53038   0.81944   0.00000  Uiso   1.00
H679   H     0.80456   0.96964   0.67283   0.00000  Uiso   1.00
H680   H     0.80522   0.61083   0.81989   0.00000  Uiso   1.00
H681   H     0.80560   0.88919   0.67265   0.00000  Uiso   1.00
H682   H     0.86145   0.61084   0.68010   0.00000  Uiso   1.00
H683   H     0.86106   0.88918   0.82735   0.00000  Uiso   1.00
H684   H     0.86251   0.53039   0.68056   0.00000  Uiso   1.00
I685   I     0.92542   0.68416   0.53131   0.00000  Uiso   1.00
I686   I     0.74161   0.68379   0.96875   0.00000  Uiso   1.00
N687   N     0.83333   0.75001   0.62934   0.00000  Uiso   1.00
N688   N     0.83333   0.74999   0.87065   0.00000  Uiso   1.00
O689   O     0.83334   0.68572   0.79071   0.00000  Uiso   1.00
O690   O     0.83333   0.81427   0.70928   0.00000  Uiso   1.00
O691   O     0.83334   0.68573   0.70928   0.00000  Uiso   1.00
O692   O     0.83333   0.81427   0.79072   0.00000  Uiso   1.00
O693   O     0.75828   0.75000   0.78132   0.00000  Uiso   1.00
O694   O     0.90839   0.75000   0.71868   0.00000  Uiso   1.00
O695   O     0.75828   0.75000   0.69988   0.00000  Uiso   1.00
O696   O     0.90839   0.75000   0.80011   0.00000  Uiso   1.00
loop_
_geom_bond_atom_site_label_1
_geom_bond_atom_site_label_2
_geom_bond_distance
_geom_bond_site_symmetry_2
_ccdc_geom_bond_type
C1     O51     1.290   .     A
C1     O53     1.290   .     A
C1     C14     1.460   .     S
C2     C4      1.406   .     A
C2     C27     1.409   .     A
C2     H38     1.083   .     S
C3     C28     1.406   .     A
C3     C22     1.411   .     A
C3     C352    1.505   1_554 S
C4     C23     1.411   .     A
C4     C351    1.505   .     S
C5     O57     1.284   .     A
C5     O55     1.282   .     A
C5     C7      1.434   .     S
C6     C8      1.434   .     S
C6     O56     1.282   .     A
C6     O58     1.284   .     A
C7     C124    1.335   1_455 S
C7     H147    1.087   1_455 S
C8     C65     1.335   .     S
C8     H97     1.087   .     S
C9     C11     1.390   .     A
C9     C20     1.404   .     A
C9     H40     1.083   .     S
C10    H41     1.083   .     S
C10    C21     1.404   .     A
C10    C13     1.390   .     A
C11    H42     1.083   .     S
C11    C14     1.402   .     A
C12    C15     1.460   .     S
C12    O52     1.290   .     A
C12    O54     1.290   .     A
C13    C15     1.402   .     A
C13    H43     1.083   .     S
C14    C16     1.402   .     A
C15    C17     1.402   .     A
C16    C18     1.390   .     A
C16    H44     1.083   .     S
C17    H45     1.083   .     S
C17    C19     1.390   .     A
C18    H46     1.083   .     S
C18    C20     1.404   .     A
C19    H32     1.083   .     S
C19    C21     1.404   .     A
C20    C195    1.470   1_545 S
C21    C194    1.470   .     S
C22    I47     2.119   .     S
C22    C24     1.411   .     A
C23    I48     2.119   .     S
C23    C25     1.411   .     A
C24    N49     1.365   .     A
C24    H33     1.082   .     S
C25    H34     1.082   .     S
C25    N50     1.365   .     A
C26    C28     1.409   .     A
C26    H35     1.082   .     S
C26    N49     1.365   .     A
C27    H36     1.082   .     S
C27    N50     1.365   .     A
C28    H37     1.083   .     S
Cu29   O58     1.960   .     S
Cu29   Cu30    2.666   .     S
Cu29   N50     2.003   .     S
Cu29   O54     1.957   .     S
Cu29   O51     1.957   .     S
Cu29   O55     1.957   .     S
Cu30   N49     2.003   .     S
Cu30   O53     1.957   .     S
Cu30   O57     1.960   .     S
Cu30   O52     1.957   .     S
Cu30   O56     1.957   .     S
H31    C65     1.087   .     S
H39    C124    1.087   1_455 S
C59    O109    1.290   .     A
C59    O111    1.290   .     A
C59    C72     1.460   .     S
C60    C62     1.406   .     A
C60    C85     1.409   .     A
C60    H96     1.083   .     S
C61    C86     1.406   .     A
C61    C80     1.411   .     A
C61    C410    1.505   1_554 S
C62    C81     1.411   .     A
C62    C409    1.505   .     S
C63    O115    1.284   .     A
C63    O113    1.282   .     A
C63    C65     1.434   .     S
C64    C66     1.434   .     S
C64    O114    1.282   .     A
C64    O116    1.284   .     A
C66    C123    1.335   .     S
C66    H155    1.087   .     S
C67    C69     1.390   .     A
C67    C78     1.404   .     A
C67    H98     1.083   .     S
C68    H99     1.083   .     S
C68    C79     1.404   .     A
C68    C71     1.390   .     A
C69    H100    1.083   .     S
C69    C72     1.402   .     A
C70    C73     1.460   .     S
C70    O110    1.290   .     A
C70    O112    1.290   .     A
C71    C73     1.402   .     A
C71    H101    1.083   .     S
C72    C74     1.402   .     A
C73    C75     1.402   .     A
C74    C76     1.390   .     A
C74    H102    1.083   .     S
C75    H103    1.083   .     S
C75    C77     1.390   .     A
C76    H104    1.083   .     S
C76    C78     1.404   .     A
C77    H90     1.083   .     S
C77    C79     1.404   .     A
C78    C253    1.470   1_545 S
C79    C252    1.470   .     S
C80    I105    2.119   .     S
C80    C82     1.411   .     A
C81    I106    2.119   .     S
C81    C83     1.411   .     A
C82    N107    1.365   .     A
C82    H91     1.082   .     S
C83    H92     1.082   .     S
C83    N108    1.365   .     A
C84    C86     1.409   .     A
C84    H93     1.082   .     S
C84    N107    1.365   .     A
C85    H94     1.082   .     S
C85    N108    1.365   .     A
C86    H95     1.083   .     S
Cu87   O116    1.960   .     S
Cu87   Cu88    2.666   .     S
Cu87   N108    2.003   .     S
Cu87   O112    1.957   .     S
Cu87   O109    1.957   .     S
Cu87   O113    1.957   .     S
Cu88   N107    2.003   .     S
Cu88   O111    1.957   .     S
Cu88   O115    1.960   .     S
Cu88   O110    1.957   .     S
Cu88   O114    1.957   .     S
H89    C123    1.087   .     S
C117   O167    1.290   .     A
C117   O169    1.290   .     A
C117   C130    1.460   .     S
C118   C120    1.406   .     A
C118   C143    1.409   .     A
C118   H154    1.083   .     S
C119   C144    1.406   .     A
C119   C138    1.411   .     A
C119   C468    1.505   1_554 S
C120   C139    1.411   .     A
C120   C467    1.505   .     S
C121   O173    1.284   .     A
C121   O171    1.282   .     A
C121   C123    1.434   .     S
C122   C124    1.434   .     S
C122   O172    1.282   .     A
C122   O174    1.284   .     A
C124   C7      1.335   1_655 S
C124   H39     1.087   1_655 S
C125   C127    1.390   .     A
C125   C136    1.404   .     A
C125   H156    1.083   .     S
C126   H157    1.083   .     S
C126   C137    1.404   .     A
C126   C129    1.390   .     A
C127   H158    1.083   .     S
C127   C130    1.402   .     A
C128   C131    1.460   .     S
C128   O168    1.290   .     A
C128   O170    1.290   .     A
C129   C131    1.402   .     A
C129   H159    1.083   .     S
C130   C132    1.402   .     A
C131   C133    1.402   .     A
C132   C134    1.390   .     A
C132   H160    1.083   .     S
C133   H161    1.083   .     S
C133   C135    1.390   .     A
C134   H162    1.083   .     S
C134   C136    1.404   .     A
C135   H148    1.083   .     S
C135   C137    1.404   .     A
C136   C311    1.470   1_545 S
C137   C310    1.470   .     S
C138   I163    2.119   .     S
C138   C140    1.411   .     A
C139   I164    2.119   .     S
C139   C141    1.411   .     A
C140   N165    1.365   .     A
C140   H149    1.082   .     S
C141   H150    1.082   .     S
C141   N166    1.365   .     A
C142   C144    1.409   .     A
C142   H151    1.082   .     S
C142   N165    1.365   .     A
C143   H152    1.082   .     S
C143   N166    1.365   .     A
C144   H153    1.083   .     S
Cu145  O174    1.960   .     S
Cu145  Cu146   2.666   .     S
Cu145  N166    2.003   .     S
Cu145  O170    1.957   .     S
Cu145  O167    1.957   .     S
Cu145  O171    1.957   .     S
Cu146  N165    2.003   .     S
Cu146  O169    1.957   .     S
Cu146  O173    1.960   .     S
Cu146  O168    1.957   .     S
Cu146  O172    1.957   .     S
H147   C7      1.087   1_655 S
C175   O225    1.290   .     A
C175   O227    1.290   .     A
C175   C188    1.460   .     S
C176   C178    1.406   .     A
C176   C201    1.409   .     A
C176   H212    1.083   .     S
C177   C202    1.406   .     A
C177   C196    1.411   .     A
C177   C526    1.505   1_554 S
C178   C197    1.411   .     A
C178   C525    1.505   .     S
C179   O231    1.284   .     A
C179   O229    1.282   .     A
C179   C181    1.434   .     S
C180   C182    1.434   .     S
C180   O230    1.282   .     A
C180   O232    1.284   .     A
C181   C298    1.335   1_455 S
C181   H321    1.087   1_455 S
C182   C239    1.335   .     S
C182   H271    1.087   .     S
C183   C185    1.390   .     A
C183   C194    1.404   .     A
C183   H214    1.083   .     S
C184   H215    1.083   .     S
C184   C195    1.404   .     A
C184   C187    1.390   .     A
C185   H216    1.083   .     S
C185   C188    1.402   .     A
C186   C189    1.460   .     S
C186   O226    1.290   .     A
C186   O228    1.290   .     A
C187   C189    1.402   .     A
C187   H217    1.083   .     S
C188   C190    1.402   .     A
C189   C191    1.402   .     A
C190   C192    1.390   .     A
C190   H218    1.083   .     S
C191   H219    1.083   .     S
C191   C193    1.390   .     A
C192   H220    1.083   .     S
C192   C194    1.404   .     A
C193   H206    1.083   .     S
C193   C195    1.404   .     A
C195   C20     1.470   1_565 S
C196   I221    2.119   .     S
C196   C198    1.411   .     A
C197   I222    2.119   .     S
C197   C199    1.411   .     A
C198   N223    1.365   .     A
C198   H207    1.082   .     S
C199   H208    1.082   .     S
C199   N224    1.365   .     A
C200   C202    1.409   .     A
C200   H209    1.082   .     S
C200   N223    1.365   .     A
C201   H210    1.082   .     S
C201   N224    1.365   .     A
C202   H211    1.083   .     S
Cu203  O232    1.960   .     S
Cu203  Cu204   2.666   .     S
Cu203  N224    2.003   .     S
Cu203  O228    1.957   .     S
Cu203  O225    1.957   .     S
Cu203  O229    1.957   .     S
Cu204  N223    2.003   .     S
Cu204  O227    1.957   .     S
Cu204  O231    1.960   .     S
Cu204  O226    1.957   .     S
Cu204  O230    1.957   .     S
H205   C239    1.087   .     S
H213   C298    1.087   1_455 S
C233   O283    1.290   .     A
C233   O285    1.290   .     A
C233   C246    1.460   .     S
C234   C236    1.406   .     A
C234   C259    1.409   .     A
C234   H270    1.083   .     S
C235   C260    1.406   .     A
C235   C254    1.411   .     A
C235   C584    1.505   1_554 S
C236   C255    1.411   .     A
C236   C583    1.505   .     S
C237   O289    1.284   .     A
C237   O287    1.282   .     A
C237   C239    1.434   .     S
C238   C240    1.434   .     S
C238   O288    1.282   .     A
C238   O290    1.284   .     A
C240   C297    1.335   .     S
C240   H329    1.087   .     S
C241   C243    1.390   .     A
C241   C252    1.404   .     A
C241   H272    1.083   .     S
C242   H273    1.083   .     S
C242   C253    1.404   .     A
C242   C245    1.390   .     A
C243   H274    1.083   .     S
C243   C246    1.402   .     A
C244   C247    1.460   .     S
C244   O284    1.290   .     A
C244   O286    1.290   .     A
C245   C247    1.402   .     A
C245   H275    1.083   .     S
C246   C248    1.402   .     A
C247   C249    1.402   .     A
C248   C250    1.390   .     A
C248   H276    1.083   .     S
C249   H277    1.083   .     S
C249   C251    1.390   .     A
C250   H278    1.083   .     S
C250   C252    1.404   .     A
C251   H264    1.083   .     S
C251   C253    1.404   .     A
C253   C78     1.470   1_565 S
C254   I279    2.119   .     S
C254   C256    1.411   .     A
C255   I280    2.119   .     S
C255   C257    1.411   .     A
C256   N281    1.365   .     A
C256   H265    1.082   .     S
C257   H266    1.082   .     S
C257   N282    1.365   .     A
C258   C260    1.409   .     A
C258   H267    1.082   .     S
C258   N281    1.365   .     A
C259   H268    1.082   .     S
C259   N282    1.365   .     A
C260   H269    1.083   .     S
Cu261  O290    1.960   .     S
Cu261  Cu262   2.666   .     S
Cu261  N282    2.003   .     S
Cu261  O286    1.957   .     S
Cu261  O283    1.957   .     S
Cu261  O287    1.957   .     S
Cu262  N281    2.003   .     S
Cu262  O285    1.957   .     S
Cu262  O289    1.960   .     S
Cu262  O284    1.957   .     S
Cu262  O288    1.957   .     S
H263   C297    1.087   .     S
C291   O341    1.290   .     A
C291   O343    1.290   .     A
C291   C304    1.460   .     S
C292   C294    1.406   .     A
C292   C317    1.409   .     A
C292   H328    1.083   .     S
C293   C318    1.406   .     A
C293   C312    1.411   .     A
C293   C642    1.505   1_554 S
C294   C313    1.411   .     A
C294   C641    1.505   .     S
C295   O347    1.284   .     A
C295   O345    1.282   .     A
C295   C297    1.434   .     S
C296   C298    1.434   .     S
C296   O346    1.282   .     A
C296   O348    1.284   .     A
C298   C181    1.335   1_655 S
C298   H213    1.087   1_655 S
C299   C301    1.390   .     A
C299   C310    1.404   .     A
C299   H330    1.083   .     S
C300   H331    1.083   .     S
C300   C311    1.404   .     A
C300   C303    1.390   .     A
C301   H332    1.083   .     S
C301   C304    1.402   .     A
C302   C305    1.460   .     S
C302   O342    1.290   .     A
C302   O344    1.290   .     A
C303   C305    1.402   .     A
C303   H333    1.083   .     S
C304   C306    1.402   .     A
C305   C307    1.402   .     A
C306   C308    1.390   .     A
C306   H334    1.083   .     S
C307   H335    1.083   .     S
C307   C309    1.390   .     A
C308   H336    1.083   .     S
C308   C310    1.404   .     A
C309   H322    1.083   .     S
C309   C311    1.404   .     A
C311   C136    1.470   1_565 S
C312   I337    2.119   .     S
C312   C314    1.411   .     A
C313   I338    2.119   .     S
C313   C315    1.411   .     A
C314   N339    1.365   .     A
C314   H323    1.082   .     S
C315   H324    1.082   .     S
C315   N340    1.365   .     A
C316   C318    1.409   .     A
C316   H325    1.082   .     S
C316   N339    1.365   .     A
C317   H326    1.082   .     S
C317   N340    1.365   .     A
C318   H327    1.083   .     S
Cu319  O348    1.960   .     S
Cu319  Cu320   2.666   .     S
Cu319  N340    2.003   .     S
Cu319  O344    1.957   .     S
Cu319  O341    1.957   .     S
Cu319  O345    1.957   .     S
Cu320  N339    2.003   .     S
Cu320  O343    1.957   .     S
Cu320  O347    1.960   .     S
Cu320  O342    1.957   .     S
Cu320  O346    1.957   .     S
H321   C181    1.087   1_655 S
C349   O399    1.290   .     A
C349   O401    1.290   .     A
C349   C362    1.460   .     S
C350   C352    1.406   .     A
C350   C375    1.409   .     A
C350   H386    1.083   .     S
C351   C376    1.406   .     A
C351   C370    1.411   .     A
C352   C371    1.411   .     A
C352   C3      1.505   1_556 S
C353   O405    1.284   .     A
C353   O403    1.282   .     A
C353   C355    1.434   .     S
C354   C356    1.434   .     S
C354   O404    1.282   .     A
C354   O406    1.284   .     A
C355   C472    1.335   1_455 S
C355   H495    1.087   1_455 S
C356   C413    1.335   .     S
C356   H445    1.087   .     S
C357   C359    1.390   .     A
C357   C368    1.404   .     A
C357   H388    1.083   .     S
C358   H389    1.083   .     S
C358   C369    1.404   .     A
C358   C361    1.390   .     A
C359   H390    1.083   .     S
C359   C362    1.402   .     A
C360   C363    1.460   .     S
C360   O400    1.290   .     A
C360   O402    1.290   .     A
C361   C363    1.402   .     A
C361   H391    1.083   .     S
C362   C364    1.402   .     A
C363   C365    1.402   .     A
C364   C366    1.390   .     A
C364   H392    1.083   .     S
C365   H393    1.083   .     S
C365   C367    1.390   .     A
C366   H394    1.083   .     S
C366   C368    1.404   .     A
C367   H380    1.083   .     S
C367   C369    1.404   .     A
C368   C543    1.470   1_545 S
C369   C542    1.470   .     S
C370   I395    2.119   .     S
C370   C372    1.411   .     A
C371   I396    2.119   .     S
C371   C373    1.411   .     A
C372   N397    1.365   .     A
C372   H381    1.082   .     S
C373   H382    1.082   .     S
C373   N398    1.365   .     A
C374   C376    1.409   .     A
C374   H383    1.082   .     S
C374   N397    1.365   .     A
C375   H384    1.082   .     S
C375   N398    1.365   .     A
C376   H385    1.083   .     S
Cu377  O406    1.960   .     S
Cu377  Cu378   2.666   .     S
Cu377  N398    2.003   .     S
Cu377  O402    1.957   .     S
Cu377  O399    1.957   .     S
Cu377  O403    1.957   .     S
Cu378  N397    2.003   .     S
Cu378  O401    1.957   .     S
Cu378  O405    1.960   .     S
Cu378  O400    1.957   .     S
Cu378  O404    1.957   .     S
H379   C413    1.087   .     S
H387   C472    1.087   1_455 S
C407   O457    1.290   .     A
C407   O459    1.290   .     A
C407   C420    1.460   .     S
C408   C410    1.406   .     A
C408   C433    1.409   .     A
C408   H444    1.083   .     S
C409   C434    1.406   .     A
C409   C428    1.411   .     A
C410   C429    1.411   .     A
C410   C61     1.505   1_556 S
C411   O463    1.284   .     A
C411   O461    1.282   .     A
C411   C413    1.434   .     S
C412   C414    1.434   .     S
C412   O462    1.282   .     A
C412   O464    1.284   .     A
C414   C471    1.335   .     S
C414   H503    1.087   .     S
C415   C417    1.390   .     A
C415   C426    1.404   .     A
C415   H446    1.083   .     S
C416   H447    1.083   .     S
C416   C427    1.404   .     A
C416   C419    1.390   .     A
C417   H448    1.083   .     S
C417   C420    1.402   .     A
C418   C421    1.460   .     S
C418   O458    1.290   .     A
C418   O460    1.290   .     A
C419   C421    1.402   .     A
C419   H449    1.083   .     S
C420   C422    1.402   .     A
C421   C423    1.402   .     A
C422   C424    1.390   .     A
C422   H450    1.083   .     S
C423   H451    1.083   .     S
C423   C425    1.390   .     A
C424   H452    1.083   .     S
C424   C426    1.404   .     A
C425   H438    1.083   .     S
C425   C427    1.404   .     A
C426   C601    1.470   1_545 S
C427   C600    1.470   .     S
C428   I453    2.119   .     S
C428   C430    1.411   .     A
C429   I454    2.119   .     S
C429   C431    1.411   .     A
C430   N455    1.365   .     A
C430   H439    1.082   .     S
C431   H440    1.082   .     S
C431   N456    1.365   .     A
C432   C434    1.409   .     A
C432   H441    1.082   .     S
C432   N455    1.365   .     A
C433   H442    1.082   .     S
C433   N456    1.365   .     A
C434   H443    1.083   .     S
Cu435  O464    1.960   .     S
Cu435  Cu436   2.666   .     S
Cu435  N456    2.003   .     S
Cu435  O460    1.957   .     S
Cu435  O457    1.957   .     S
Cu435  O461    1.957   .     S
Cu436  N455    2.003   .     S
Cu436  O459    1.957   .     S
Cu436  O463    1.960   .     S
Cu436  O458    1.957   .     S
Cu436  O462    1.957   .     S
H437   C471    1.087   .     S
C465   O515    1.290   .     A
C465   O517    1.290   .     A
C465   C478    1.460   .     S
C466   C468    1.406   .     A
C466   C491    1.409   .     A
C466   H502    1.083   .     S
C467   C492    1.406   .     A
C467   C486    1.411   .     A
C468   C487    1.411   .     A
C468   C119    1.505   1_556 S
C469   O521    1.284   .     A
C469   O519    1.282   .     A
C469   C471    1.434   .     S
C470   C472    1.434   .     S
C470   O520    1.282   .     A
C470   O522    1.284   .     A
C472   C355    1.335   1_655 S
C472   H387    1.087   1_655 S
C473   C475    1.390   .     A
C473   C484    1.404   .     A
C473   H504    1.083   .     S
C474   H505    1.083   .     S
C474   C485    1.404   .     A
C474   C477    1.390   .     A
C475   H506    1.083   .     S
C475   C478    1.402   .     A
C476   C479    1.460   .     S
C476   O516    1.290   .     A
C476   O518    1.290   .     A
C477   C479    1.402   .     A
C477   H507    1.083   .     S
C478   C480    1.402   .     A
C479   C481    1.402   .     A
C480   C482    1.390   .     A
C480   H508    1.083   .     S
C481   H509    1.083   .     S
C481   C483    1.390   .     A
C482   H510    1.083   .     S
C482   C484    1.404   .     A
C483   H496    1.083   .     S
C483   C485    1.404   .     A
C484   C659    1.470   1_545 S
C485   C658    1.470   .     S
C486   I511    2.119   .     S
C486   C488    1.411   .     A
C487   I512    2.119   .     S
C487   C489    1.411   .     A
C488   N513    1.365   .     A
C488   H497    1.082   .     S
C489   H498    1.082   .     S
C489   N514    1.365   .     A
C490   C492    1.409   .     A
C490   H499    1.082   .     S
C490   N513    1.365   .     A
C491   H500    1.082   .     S
C491   N514    1.365   .     A
C492   H501    1.083   .     S
Cu493  O522    1.960   .     S
Cu493  Cu494   2.666   .     S
Cu493  N514    2.003   .     S
Cu493  O518    1.957   .     S
Cu493  O515    1.957   .     S
Cu493  O519    1.957   .     S
Cu494  N513    2.003   .     S
Cu494  O517    1.957   .     S
Cu494  O521    1.960   .     S
Cu494  O516    1.957   .     S
Cu494  O520    1.957   .     S
H495   C355    1.087   1_655 S
C523   O573    1.290   .     A
C523   O575    1.290   .     A
C523   C536    1.460   .     S
C524   C526    1.406   .     A
C524   C549    1.409   .     A
C524   H560    1.083   .     S
C525   C550    1.406   .     A
C525   C544    1.411   .     A
C526   C545    1.411   .     A
C526   C177    1.505   1_556 S
C527   O579    1.284   .     A
C527   O577    1.282   .     A
C527   C529    1.434   .     S
C528   C530    1.434   .     S
C528   O578    1.282   .     A
C528   O580    1.284   .     A
C529   C646    1.335   1_455 S
C529   H669    1.087   1_455 S
C530   C587    1.335   .     S
C530   H619    1.087   .     S
C531   C533    1.390   .     A
C531   C542    1.404   .     A
C531   H562    1.083   .     S
C532   H563    1.083   .     S
C532   C543    1.404   .     A
C532   C535    1.390   .     A
C533   H564    1.083   .     S
C533   C536    1.402   .     A
C534   C537    1.460   .     S
C534   O574    1.290   .     A
C534   O576    1.290   .     A
C535   C537    1.402   .     A
C535   H565    1.083   .     S
C536   C538    1.402   .     A
C537   C539    1.402   .     A
C538   C540    1.390   .     A
C538   H566    1.083   .     S
C539   H567    1.083   .     S
C539   C541    1.390   .     A
C540   H568    1.083   .     S
C540   C542    1.404   .     A
C541   H554    1.083   .     S
C541   C543    1.404   .     A
C543   C368    1.470   1_565 S
C544   I569    2.119   .     S
C544   C546    1.411   .     A
C545   I570    2.119   .     S
C545   C547    1.411   .     A
C546   N571    1.365   .     A
C546   H555    1.082   .     S
C547   H556    1.082   .     S
C547   N572    1.365   .     A
C548   C550    1.409   .     A
C548   H557    1.082   .     S
C548   N571    1.365   .     A
C549   H558    1.082   .     S
C549   N572    1.365   .     A
C550   H559    1.083   .     S
Cu551  O580    1.960   .     S
Cu551  Cu552   2.666   .     S
Cu551  N572    2.003   .     S
Cu551  O576    1.957   .     S
Cu551  O573    1.957   .     S
Cu551  O577    1.957   .     S
Cu552  N571    2.003   .     S
Cu552  O575    1.957   .     S
Cu552  O579    1.960   .     S
Cu552  O574    1.957   .     S
Cu552  O578    1.957   .     S
H553   C587    1.087   .     S
H561   C646    1.087   1_455 S
C581   O631    1.290   .     A
C581   O633    1.290   .     A
C581   C594    1.460   .     S
C582   C584    1.406   .     A
C582   C607    1.409   .     A
C582   H618    1.083   .     S
C583   C608    1.406   .     A
C583   C602    1.411   .     A
C584   C603    1.411   .     A
C584   C235    1.505   1_556 S
C585   O637    1.284   .     A
C585   O635    1.282   .     A
C585   C587    1.434   .     S
C586   C588    1.434   .     S
C586   O636    1.282   .     A
C586   O638    1.284   .     A
C588   C645    1.335   .     S
C588   H677    1.087   .     S
C589   C591    1.390   .     A
C589   C600    1.404   .     A
C589   H620    1.083   .     S
C590   H621    1.083   .     S
C590   C601    1.404   .     A
C590   C593    1.390   .     A
C591   H622    1.083   .     S
C591   C594    1.402   .     A
C592   C595    1.460   .     S
C592   O632    1.290   .     A
C592   O634    1.290   .     A
C593   C595    1.402   .     A
C593   H623    1.083   .     S
C594   C596    1.402   .     A
C595   C597    1.402   .     A
C596   C598    1.390   .     A
C596   H624    1.083   .     S
C597   H625    1.083   .     S
C597   C599    1.390   .     A
C598   H626    1.083   .     S
C598   C600    1.404   .     A
C599   H612    1.083   .     S
C599   C601    1.404   .     A
C601   C426    1.470   1_565 S
C602   I627    2.119   .     S
C602   C604    1.411   .     A
C603   I628    2.119   .     S
C603   C605    1.411   .     A
C604   N629    1.365   .     A
C604   H613    1.082   .     S
C605   H614    1.082   .     S
C605   N630    1.365   .     A
C606   C608    1.409   .     A
C606   H615    1.082   .     S
C606   N629    1.365   .     A
C607   H616    1.082   .     S
C607   N630    1.365   .     A
C608   H617    1.083   .     S
Cu609  O638    1.960   .     S
Cu609  Cu610   2.666   .     S
Cu609  N630    2.003   .     S
Cu609  O634    1.957   .     S
Cu609  O631    1.957   .     S
Cu609  O635    1.957   .     S
Cu610  N629    2.003   .     S
Cu610  O633    1.957   .     S
Cu610  O637    1.960   .     S
Cu610  O632    1.957   .     S
Cu610  O636    1.957   .     S
H611   C645    1.087   .     S
C639   O689    1.290   .     A
C639   O691    1.290   .     A
C639   C652    1.460   .     S
C640   C642    1.406   .     A
C640   C665    1.409   .     A
C640   H676    1.083   .     S
C641   C666    1.406   .     A
C641   C660    1.411   .     A
C642   C661    1.411   .     A
C642   C293    1.505   1_556 S
C643   O695    1.284   .     A
C643   O693    1.282   .     A
C643   C645    1.434   .     S
C644   C646    1.434   .     S
C644   O694    1.282   .     A
C644   O696    1.284   .     A
C646   C529    1.335   1_655 S
C646   H561    1.087   1_655 S
C647   C649    1.390   .     A
C647   C658    1.404   .     A
C647   H678    1.083   .     S
C648   H679    1.083   .     S
C648   C659    1.404   .     A
C648   C651    1.390   .     A
C649   H680    1.083   .     S
C649   C652    1.402   .     A
C650   C653    1.460   .     S
C650   O690    1.290   .     A
C650   O692    1.290   .     A
C651   C653    1.402   .     A
C651   H681    1.083   .     S
C652   C654    1.402   .     A
C653   C655    1.402   .     A
C654   C656    1.390   .     A
C654   H682    1.083   .     S
C655   H683    1.083   .     S
C655   C657    1.390   .     A
C656   H684    1.083   .     S
C656   C658    1.404   .     A
C657   H670    1.083   .     S
C657   C659    1.404   .     A
C659   C484    1.470   1_565 S
C660   I685    2.119   .     S
C660   C662    1.411   .     A
C661   I686    2.119   .     S
C661   C663    1.411   .     A
C662   N687    1.365   .     A
C662   H671    1.082   .     S
C663   H672    1.082   .     S
C663   N688    1.365   .     A
C664   C666    1.409   .     A
C664   H673    1.082   .     S
C664   N687    1.365   .     A
C665   H674    1.082   .     S
C665   N688    1.365   .     A
C666   H675    1.083   .     S
Cu667  O696    1.960   .     S
Cu667  Cu668   2.666   .     S
Cu667  N688    2.003   .     S
Cu667  O692    1.957   .     S
Cu667  O689    1.957   .     S
Cu667  O693    1.957   .     S
Cu668  N687    2.003   .     S
Cu668  O691    1.957   .     S
Cu668  O695    1.960   .     S
Cu668  O690    1.957   .     S
Cu668  O694    1.957   .     S
H669   C529    1.087   1_655 S
