data_str_m2_o10_o18_pcu_sym.41
_audit_creation_date              2020-01-03
_audit_creation_method            'Materials Studio'
_symmetry_space_group_name_H-M    'P1'
_symmetry_Int_Tables_number       1
_symmetry_cell_setting            triclinic
loop_
_symmetry_equiv_pos_as_xyz
  x,y,z
_cell_length_a                    22.5427
_cell_length_b                    26.0834
_cell_length_c                    31.6228
_cell_angle_alpha                 95.6419
_cell_angle_beta                  75.3043
_cell_angle_gamma                 103.5414
loop_
_atom_site_label
_atom_site_type_symbol
_atom_site_fract_x
_atom_site_fract_y
_atom_site_fract_z
_atom_site_U_iso_or_equiv
_atom_site_adp_type
_atom_site_occupancy
Br1    Br    0.00526   0.22686   0.30750   0.00000  Uiso   1.00
Br2    Br    0.32809   0.10651   0.19248   0.00000  Uiso   1.00
C3     C     0.18175   0.26669   0.25137   0.00000  Uiso   1.00
C4     C     0.20500   0.17070   0.16706   0.00000  Uiso   1.00
C5     C     0.10541   0.15891   0.38058   0.00000  Uiso   1.00
C6     C     0.22799   0.17808   0.11989   0.00000  Uiso   1.00
C7     C     0.02392   0.12793   0.44426   0.00000  Uiso   1.00
C8     C     0.30609   0.21951   0.05848   0.00000  Uiso   1.00
C9     C     0.04245   0.13722   0.39972   0.00000  Uiso   1.00
C10    C     0.28904   0.20574   0.10204   0.00000  Uiso   1.00
C11    C     0.14877   0.17382   0.40672   0.00000  Uiso   1.00
C12    C     0.18521   0.16230   0.09344   0.00000  Uiso   1.00
C13    C     0.13115   0.16586   0.45190   0.00000  Uiso   1.00
C14    C     0.15158   0.06664   0.24862   0.00000  Uiso   1.00
C15    C     0.20029   0.17739   0.04987   0.00000  Uiso   1.00
C16    C     0.06789   0.14106   0.47022   0.00000  Uiso   1.00
C17    C     0.26219   0.20607   0.03247   0.00000  Uiso   1.00
C18    C     0.17496   0.18008   0.47894   0.00000  Uiso   1.00
C19    C     0.15558   0.16553   0.02345   0.00000  Uiso   1.00
C20    C     0.09189   0.14067   0.04024   0.00000  Uiso   1.00
C21    C     0.23714   0.20904   0.46316   0.00000  Uiso   1.00
C22    C     0.04913   0.12897   0.01410   0.00000  Uiso   1.00
C23    C     0.27959   0.22177   0.48951   0.00000  Uiso   1.00
C24    C     0.18995   0.32283   0.25217   0.00000  Uiso   1.00
C25    C     0.14339   0.01050   0.24781   0.00000  Uiso   1.00
C26    C     0.12837   0.16305   0.33299   0.00000  Uiso   1.00
Cu27   Cu    0.10737   0.16108   0.24517   0.00000  Uiso   1.00
Cu28   Cu    0.22596   0.17225   0.25484   0.00000  Uiso   1.00
H29    H     0.00082   0.11010   0.02845   0.00000  Uiso   1.00
H30    H     0.25454   0.22393   0.43076   0.00000  Uiso   1.00
H31    H     0.23459   0.01362   0.25641   0.00000  Uiso   1.00
H32    H     0.09875   0.31971   0.24357   0.00000  Uiso   1.00
H33    H     0.32664   0.24412   0.47603   0.00000  Uiso   1.00
H34    H     0.14000   0.13875   0.10819   0.00000  Uiso   1.00
H35    H     0.19673   0.18975   0.39052   0.00000  Uiso   1.00
H36    H     0.32278   0.21827   0.12206   0.00000  Uiso   1.00
H37    H     0.00816   0.12561   0.38005   0.00000  Uiso   1.00
H38    H     0.30865   0.10967   0.45834   0.00000  Uiso   1.00
H39    H     0.02006   0.24149   0.04526   0.00000  Uiso   1.00
H40    H     0.07258   0.13053   0.07387   0.00000  Uiso   1.00
N41    N     0.31506   0.18068   0.26212   0.00000  Uiso   1.00
N42    N     0.01827   0.15265   0.23788   0.00000  Uiso   1.00
O43    O     0.12815   0.23809   0.24686   0.00000  Uiso   1.00
O44    O     0.20518   0.09524   0.25314   0.00000  Uiso   1.00
O45    O     0.22829   0.24753   0.25503   0.00000  Uiso   1.00
O46    O     0.10504   0.08580   0.24498   0.00000  Uiso   1.00
O47    O     0.08851   0.15930   0.30855   0.00000  Uiso   1.00
O48    O     0.24482   0.17403   0.19146   0.00000  Uiso   1.00
O49    O     0.18866   0.16874   0.31671   0.00000  Uiso   1.00
O50    O     0.14468   0.16460   0.18329   0.00000  Uiso   1.00
Br51   Br    0.33859   0.22686   0.30750   0.00000  Uiso   1.00
Br52   Br    0.66143   0.10651   0.19248   0.00000  Uiso   1.00
C53    C     0.51509   0.26669   0.25137   0.00000  Uiso   1.00
C54    C     0.53833   0.17070   0.16706   0.00000  Uiso   1.00
C55    C     0.43874   0.15891   0.38058   0.00000  Uiso   1.00
C56    C     0.56132   0.17808   0.11989   0.00000  Uiso   1.00
C57    C     0.35725   0.12793   0.44426   0.00000  Uiso   1.00
C58    C     0.63943   0.21951   0.05848   0.00000  Uiso   1.00
C59    C     0.37579   0.13722   0.39972   0.00000  Uiso   1.00
C60    C     0.62237   0.20574   0.10204   0.00000  Uiso   1.00
C61    C     0.48210   0.17382   0.40672   0.00000  Uiso   1.00
C62    C     0.51855   0.16230   0.09344   0.00000  Uiso   1.00
C63    C     0.46448   0.16586   0.45190   0.00000  Uiso   1.00
C64    C     0.48492   0.06664   0.24862   0.00000  Uiso   1.00
C65    C     0.53362   0.17739   0.04987   0.00000  Uiso   1.00
C66    C     0.40122   0.14106   0.47022   0.00000  Uiso   1.00
C67    C     0.59552   0.20607   0.03247   0.00000  Uiso   1.00
C68    C     0.50829   0.18008   0.47894   0.00000  Uiso   1.00
C69    C     0.48891   0.16553   0.02345   0.00000  Uiso   1.00
C70    C     0.42522   0.14067   0.04024   0.00000  Uiso   1.00
C71    C     0.57048   0.20904   0.46316   0.00000  Uiso   1.00
C72    C     0.38247   0.12897   0.01410   0.00000  Uiso   1.00
C73    C     0.61292   0.22177   0.48951   0.00000  Uiso   1.00
C74    C     0.52329   0.32283   0.25217   0.00000  Uiso   1.00
C75    C     0.47673   0.01050   0.24781   0.00000  Uiso   1.00
C76    C     0.46170   0.16305   0.33299   0.00000  Uiso   1.00
Cu77   Cu    0.44071   0.16108   0.24517   0.00000  Uiso   1.00
Cu78   Cu    0.55929   0.17225   0.25484   0.00000  Uiso   1.00
H79    H     0.33415   0.11010   0.02845   0.00000  Uiso   1.00
H80    H     0.58788   0.22393   0.43076   0.00000  Uiso   1.00
H81    H     0.56793   0.01362   0.25641   0.00000  Uiso   1.00
H82    H     0.43209   0.31971   0.24357   0.00000  Uiso   1.00
H83    H     0.65997   0.24412   0.47603   0.00000  Uiso   1.00
H84    H     0.47334   0.13875   0.10819   0.00000  Uiso   1.00
H85    H     0.53007   0.18975   0.39052   0.00000  Uiso   1.00
H86    H     0.65611   0.21827   0.12206   0.00000  Uiso   1.00
H87    H     0.34150   0.12561   0.38005   0.00000  Uiso   1.00
H88    H     0.64198   0.10967   0.45834   0.00000  Uiso   1.00
H89    H     0.35340   0.24149   0.04526   0.00000  Uiso   1.00
H90    H     0.40592   0.13053   0.07387   0.00000  Uiso   1.00
N91    N     0.64839   0.18068   0.26212   0.00000  Uiso   1.00
N92    N     0.35161   0.15265   0.23788   0.00000  Uiso   1.00
O93    O     0.46148   0.23809   0.24686   0.00000  Uiso   1.00
O94    O     0.53852   0.09524   0.25314   0.00000  Uiso   1.00
O95    O     0.56163   0.24753   0.25503   0.00000  Uiso   1.00
O96    O     0.43837   0.08580   0.24498   0.00000  Uiso   1.00
O97    O     0.42185   0.15930   0.30855   0.00000  Uiso   1.00
O98    O     0.57815   0.17403   0.19146   0.00000  Uiso   1.00
O99    O     0.52199   0.16874   0.31671   0.00000  Uiso   1.00
O100   O     0.47801   0.16460   0.18329   0.00000  Uiso   1.00
Br101  Br    0.67192   0.22686   0.30750   0.00000  Uiso   1.00
Br102  Br    0.99476   0.10651   0.19248   0.00000  Uiso   1.00
C103   C     0.84842   0.26669   0.25137   0.00000  Uiso   1.00
C104   C     0.87166   0.17070   0.16706   0.00000  Uiso   1.00
C105   C     0.77207   0.15891   0.38058   0.00000  Uiso   1.00
C106   C     0.89466   0.17808   0.11989   0.00000  Uiso   1.00
C107   C     0.69058   0.12793   0.44426   0.00000  Uiso   1.00
C108   C     0.97276   0.21951   0.05848   0.00000  Uiso   1.00
C109   C     0.70912   0.13722   0.39972   0.00000  Uiso   1.00
C110   C     0.95571   0.20574   0.10204   0.00000  Uiso   1.00
C111   C     0.81544   0.17382   0.40672   0.00000  Uiso   1.00
C112   C     0.85188   0.16230   0.09344   0.00000  Uiso   1.00
C113   C     0.79782   0.16586   0.45190   0.00000  Uiso   1.00
C114   C     0.81825   0.06664   0.24862   0.00000  Uiso   1.00
C115   C     0.86695   0.17739   0.04987   0.00000  Uiso   1.00
C116   C     0.73456   0.14106   0.47022   0.00000  Uiso   1.00
C117   C     0.92885   0.20607   0.03247   0.00000  Uiso   1.00
C118   C     0.84162   0.18008   0.47894   0.00000  Uiso   1.00
C119   C     0.82225   0.16553   0.02345   0.00000  Uiso   1.00
C120   C     0.75855   0.14067   0.04024   0.00000  Uiso   1.00
C121   C     0.90381   0.20904   0.46316   0.00000  Uiso   1.00
C122   C     0.71580   0.12897   0.01410   0.00000  Uiso   1.00
C123   C     0.94626   0.22177   0.48951   0.00000  Uiso   1.00
C124   C     0.85662   0.32283   0.25217   0.00000  Uiso   1.00
C125   C     0.81006   0.01050   0.24781   0.00000  Uiso   1.00
C126   C     0.79504   0.16305   0.33299   0.00000  Uiso   1.00
Cu127  Cu    0.77404   0.16108   0.24517   0.00000  Uiso   1.00
Cu128  Cu    0.89263   0.17225   0.25484   0.00000  Uiso   1.00
H129   H     0.66749   0.11010   0.02845   0.00000  Uiso   1.00
H130   H     0.92121   0.22393   0.43076   0.00000  Uiso   1.00
H131   H     0.90126   0.01362   0.25641   0.00000  Uiso   1.00
H132   H     0.76542   0.31971   0.24357   0.00000  Uiso   1.00
H133   H     0.99330   0.24412   0.47603   0.00000  Uiso   1.00
H134   H     0.80667   0.13875   0.10819   0.00000  Uiso   1.00
H135   H     0.86340   0.18975   0.39052   0.00000  Uiso   1.00
H136   H     0.98944   0.21827   0.12206   0.00000  Uiso   1.00
H137   H     0.67483   0.12561   0.38005   0.00000  Uiso   1.00
H138   H     0.97532   0.10967   0.45834   0.00000  Uiso   1.00
H139   H     0.68673   0.24149   0.04526   0.00000  Uiso   1.00
H140   H     0.73925   0.13053   0.07387   0.00000  Uiso   1.00
N141   N     0.98173   0.18068   0.26212   0.00000  Uiso   1.00
N142   N     0.68494   0.15265   0.23788   0.00000  Uiso   1.00
O143   O     0.79482   0.23809   0.24686   0.00000  Uiso   1.00
O144   O     0.87185   0.09524   0.25314   0.00000  Uiso   1.00
O145   O     0.89496   0.24753   0.25503   0.00000  Uiso   1.00
O146   O     0.77171   0.08580   0.24498   0.00000  Uiso   1.00
O147   O     0.75518   0.15930   0.30855   0.00000  Uiso   1.00
O148   O     0.91149   0.17403   0.19146   0.00000  Uiso   1.00
O149   O     0.85532   0.16874   0.31671   0.00000  Uiso   1.00
O150   O     0.81134   0.16460   0.18329   0.00000  Uiso   1.00
Br151  Br    0.00526   0.56020   0.30750   0.00000  Uiso   1.00
Br152  Br    0.32809   0.43984   0.19248   0.00000  Uiso   1.00
C153   C     0.18175   0.60002   0.25137   0.00000  Uiso   1.00
C154   C     0.20500   0.50403   0.16706   0.00000  Uiso   1.00
C155   C     0.10541   0.49224   0.38058   0.00000  Uiso   1.00
C156   C     0.22799   0.51142   0.11989   0.00000  Uiso   1.00
C157   C     0.02392   0.46126   0.44426   0.00000  Uiso   1.00
C158   C     0.30609   0.55284   0.05848   0.00000  Uiso   1.00
C159   C     0.04245   0.47055   0.39972   0.00000  Uiso   1.00
C160   C     0.28904   0.53907   0.10204   0.00000  Uiso   1.00
C161   C     0.14877   0.50715   0.40672   0.00000  Uiso   1.00
C162   C     0.18521   0.49563   0.09344   0.00000  Uiso   1.00
C163   C     0.13115   0.49919   0.45190   0.00000  Uiso   1.00
C164   C     0.15158   0.39998   0.24862   0.00000  Uiso   1.00
C165   C     0.20029   0.51072   0.04987   0.00000  Uiso   1.00
C166   C     0.06789   0.47439   0.47022   0.00000  Uiso   1.00
C167   C     0.26219   0.53940   0.03247   0.00000  Uiso   1.00
C168   C     0.17496   0.51341   0.47894   0.00000  Uiso   1.00
C169   C     0.15558   0.49887   0.02345   0.00000  Uiso   1.00
C170   C     0.09189   0.47400   0.04024   0.00000  Uiso   1.00
C171   C     0.23714   0.54237   0.46316   0.00000  Uiso   1.00
C172   C     0.04913   0.46230   0.01410   0.00000  Uiso   1.00
C173   C     0.27959   0.55510   0.48951   0.00000  Uiso   1.00
C174   C     0.18995   0.65616   0.25217   0.00000  Uiso   1.00
C175   C     0.14339   0.34384   0.24781   0.00000  Uiso   1.00
C176   C     0.12837   0.49638   0.33299   0.00000  Uiso   1.00
Cu177  Cu    0.10737   0.49441   0.24517   0.00000  Uiso   1.00
Cu178  Cu    0.22596   0.50559   0.25484   0.00000  Uiso   1.00
H179   H     0.00082   0.44343   0.02845   0.00000  Uiso   1.00
H180   H     0.25454   0.55727   0.43076   0.00000  Uiso   1.00
H181   H     0.23459   0.34696   0.25641   0.00000  Uiso   1.00
H182   H     0.09875   0.65304   0.24357   0.00000  Uiso   1.00
H183   H     0.32664   0.57745   0.47603   0.00000  Uiso   1.00
H184   H     0.14000   0.47209   0.10819   0.00000  Uiso   1.00
H185   H     0.19673   0.52308   0.39052   0.00000  Uiso   1.00
H186   H     0.32278   0.55160   0.12206   0.00000  Uiso   1.00
H187   H     0.00816   0.45894   0.38005   0.00000  Uiso   1.00
H188   H     0.30865   0.44300   0.45834   0.00000  Uiso   1.00
H189   H     0.02006   0.57482   0.04526   0.00000  Uiso   1.00
H190   H     0.07258   0.46387   0.07387   0.00000  Uiso   1.00
N191   N     0.31506   0.51401   0.26212   0.00000  Uiso   1.00
N192   N     0.01827   0.48599   0.23788   0.00000  Uiso   1.00
O193   O     0.12815   0.57142   0.24686   0.00000  Uiso   1.00
O194   O     0.20518   0.42858   0.25314   0.00000  Uiso   1.00
O195   O     0.22829   0.58086   0.25503   0.00000  Uiso   1.00
O196   O     0.10504   0.41914   0.24498   0.00000  Uiso   1.00
O197   O     0.08851   0.49263   0.30855   0.00000  Uiso   1.00
O198   O     0.24482   0.50737   0.19146   0.00000  Uiso   1.00
O199   O     0.18866   0.50207   0.31671   0.00000  Uiso   1.00
O200   O     0.14468   0.49793   0.18329   0.00000  Uiso   1.00
Br201  Br    0.33859   0.56020   0.30750   0.00000  Uiso   1.00
Br202  Br    0.66143   0.43984   0.19248   0.00000  Uiso   1.00
C203   C     0.51509   0.60002   0.25137   0.00000  Uiso   1.00
C204   C     0.53833   0.50403   0.16706   0.00000  Uiso   1.00
C205   C     0.43874   0.49224   0.38058   0.00000  Uiso   1.00
C206   C     0.56132   0.51142   0.11989   0.00000  Uiso   1.00
C207   C     0.35725   0.46126   0.44426   0.00000  Uiso   1.00
C208   C     0.63943   0.55284   0.05848   0.00000  Uiso   1.00
C209   C     0.37579   0.47055   0.39972   0.00000  Uiso   1.00
C210   C     0.62237   0.53907   0.10204   0.00000  Uiso   1.00
C211   C     0.48210   0.50715   0.40672   0.00000  Uiso   1.00
C212   C     0.51855   0.49563   0.09344   0.00000  Uiso   1.00
C213   C     0.46448   0.49919   0.45190   0.00000  Uiso   1.00
C214   C     0.48492   0.39998   0.24862   0.00000  Uiso   1.00
C215   C     0.53362   0.51072   0.04987   0.00000  Uiso   1.00
C216   C     0.40122   0.47439   0.47022   0.00000  Uiso   1.00
C217   C     0.59552   0.53940   0.03247   0.00000  Uiso   1.00
C218   C     0.50829   0.51341   0.47894   0.00000  Uiso   1.00
C219   C     0.48891   0.49887   0.02345   0.00000  Uiso   1.00
C220   C     0.42522   0.47400   0.04024   0.00000  Uiso   1.00
C221   C     0.57048   0.54237   0.46316   0.00000  Uiso   1.00
C222   C     0.38247   0.46230   0.01410   0.00000  Uiso   1.00
C223   C     0.61292   0.55510   0.48951   0.00000  Uiso   1.00
C224   C     0.52329   0.65616   0.25217   0.00000  Uiso   1.00
C225   C     0.47673   0.34384   0.24781   0.00000  Uiso   1.00
C226   C     0.46170   0.49638   0.33299   0.00000  Uiso   1.00
Cu227  Cu    0.44071   0.49441   0.24517   0.00000  Uiso   1.00
Cu228  Cu    0.55929   0.50559   0.25484   0.00000  Uiso   1.00
H229   H     0.33415   0.44343   0.02845   0.00000  Uiso   1.00
H230   H     0.58788   0.55727   0.43076   0.00000  Uiso   1.00
H231   H     0.56793   0.34696   0.25641   0.00000  Uiso   1.00
H232   H     0.43209   0.65304   0.24357   0.00000  Uiso   1.00
H233   H     0.65997   0.57745   0.47603   0.00000  Uiso   1.00
H234   H     0.47334   0.47209   0.10819   0.00000  Uiso   1.00
H235   H     0.53007   0.52308   0.39052   0.00000  Uiso   1.00
H236   H     0.65611   0.55160   0.12206   0.00000  Uiso   1.00
H237   H     0.34150   0.45894   0.38005   0.00000  Uiso   1.00
H238   H     0.64198   0.44300   0.45834   0.00000  Uiso   1.00
H239   H     0.35340   0.57482   0.04526   0.00000  Uiso   1.00
H240   H     0.40592   0.46387   0.07387   0.00000  Uiso   1.00
N241   N     0.64839   0.51401   0.26212   0.00000  Uiso   1.00
N242   N     0.35161   0.48599   0.23788   0.00000  Uiso   1.00
O243   O     0.46148   0.57142   0.24686   0.00000  Uiso   1.00
O244   O     0.53852   0.42858   0.25314   0.00000  Uiso   1.00
O245   O     0.56163   0.58086   0.25503   0.00000  Uiso   1.00
O246   O     0.43837   0.41914   0.24498   0.00000  Uiso   1.00
O247   O     0.42185   0.49263   0.30855   0.00000  Uiso   1.00
O248   O     0.57815   0.50737   0.19146   0.00000  Uiso   1.00
O249   O     0.52199   0.50207   0.31671   0.00000  Uiso   1.00
O250   O     0.47801   0.49793   0.18329   0.00000  Uiso   1.00
Br251  Br    0.67192   0.56020   0.30750   0.00000  Uiso   1.00
Br252  Br    0.99476   0.43984   0.19248   0.00000  Uiso   1.00
C253   C     0.84842   0.60002   0.25137   0.00000  Uiso   1.00
C254   C     0.87166   0.50403   0.16706   0.00000  Uiso   1.00
C255   C     0.77207   0.49224   0.38058   0.00000  Uiso   1.00
C256   C     0.89466   0.51142   0.11989   0.00000  Uiso   1.00
C257   C     0.69058   0.46126   0.44426   0.00000  Uiso   1.00
C258   C     0.97276   0.55284   0.05848   0.00000  Uiso   1.00
C259   C     0.70912   0.47055   0.39972   0.00000  Uiso   1.00
C260   C     0.95571   0.53907   0.10204   0.00000  Uiso   1.00
C261   C     0.81544   0.50715   0.40672   0.00000  Uiso   1.00
C262   C     0.85188   0.49563   0.09344   0.00000  Uiso   1.00
C263   C     0.79782   0.49919   0.45190   0.00000  Uiso   1.00
C264   C     0.81825   0.39998   0.24862   0.00000  Uiso   1.00
C265   C     0.86695   0.51072   0.04987   0.00000  Uiso   1.00
C266   C     0.73456   0.47439   0.47022   0.00000  Uiso   1.00
C267   C     0.92885   0.53940   0.03247   0.00000  Uiso   1.00
C268   C     0.84162   0.51341   0.47894   0.00000  Uiso   1.00
C269   C     0.82225   0.49887   0.02345   0.00000  Uiso   1.00
C270   C     0.75855   0.47400   0.04024   0.00000  Uiso   1.00
C271   C     0.90381   0.54237   0.46316   0.00000  Uiso   1.00
C272   C     0.71580   0.46230   0.01410   0.00000  Uiso   1.00
C273   C     0.94626   0.55510   0.48951   0.00000  Uiso   1.00
C274   C     0.85662   0.65616   0.25217   0.00000  Uiso   1.00
C275   C     0.81006   0.34384   0.24781   0.00000  Uiso   1.00
C276   C     0.79504   0.49638   0.33299   0.00000  Uiso   1.00
Cu277  Cu    0.77404   0.49441   0.24517   0.00000  Uiso   1.00
Cu278  Cu    0.89263   0.50559   0.25484   0.00000  Uiso   1.00
H279   H     0.66749   0.44343   0.02845   0.00000  Uiso   1.00
H280   H     0.92121   0.55727   0.43076   0.00000  Uiso   1.00
H281   H     0.90126   0.34696   0.25641   0.00000  Uiso   1.00
H282   H     0.76542   0.65304   0.24357   0.00000  Uiso   1.00
H283   H     0.99330   0.57745   0.47603   0.00000  Uiso   1.00
H284   H     0.80667   0.47209   0.10819   0.00000  Uiso   1.00
H285   H     0.86340   0.52308   0.39052   0.00000  Uiso   1.00
H286   H     0.98944   0.55160   0.12206   0.00000  Uiso   1.00
H287   H     0.67483   0.45894   0.38005   0.00000  Uiso   1.00
H288   H     0.97532   0.44300   0.45834   0.00000  Uiso   1.00
H289   H     0.68673   0.57482   0.04526   0.00000  Uiso   1.00
H290   H     0.73925   0.46387   0.07387   0.00000  Uiso   1.00
N291   N     0.98173   0.51401   0.26212   0.00000  Uiso   1.00
N292   N     0.68494   0.48599   0.23788   0.00000  Uiso   1.00
O293   O     0.79482   0.57142   0.24686   0.00000  Uiso   1.00
O294   O     0.87185   0.42858   0.25314   0.00000  Uiso   1.00
O295   O     0.89496   0.58086   0.25503   0.00000  Uiso   1.00
O296   O     0.77171   0.41914   0.24498   0.00000  Uiso   1.00
O297   O     0.75518   0.49263   0.30855   0.00000  Uiso   1.00
O298   O     0.91149   0.50737   0.19146   0.00000  Uiso   1.00
O299   O     0.85532   0.50207   0.31671   0.00000  Uiso   1.00
O300   O     0.81134   0.49793   0.18329   0.00000  Uiso   1.00
Br301  Br    0.00526   0.89353   0.30750   0.00000  Uiso   1.00
Br302  Br    0.32809   0.77317   0.19248   0.00000  Uiso   1.00
C303   C     0.18175   0.93336   0.25137   0.00000  Uiso   1.00
C304   C     0.20500   0.83736   0.16706   0.00000  Uiso   1.00
C305   C     0.10541   0.82557   0.38058   0.00000  Uiso   1.00
C306   C     0.22799   0.84475   0.11989   0.00000  Uiso   1.00
C307   C     0.02392   0.79460   0.44426   0.00000  Uiso   1.00
C308   C     0.30609   0.88617   0.05848   0.00000  Uiso   1.00
C309   C     0.04245   0.80389   0.39972   0.00000  Uiso   1.00
C310   C     0.28904   0.87240   0.10204   0.00000  Uiso   1.00
C311   C     0.14877   0.84048   0.40672   0.00000  Uiso   1.00
C312   C     0.18521   0.82897   0.09344   0.00000  Uiso   1.00
C313   C     0.13115   0.83252   0.45190   0.00000  Uiso   1.00
C314   C     0.15158   0.73331   0.24862   0.00000  Uiso   1.00
C315   C     0.20029   0.84406   0.04987   0.00000  Uiso   1.00
C316   C     0.06789   0.80772   0.47022   0.00000  Uiso   1.00
C317   C     0.26219   0.87273   0.03247   0.00000  Uiso   1.00
C318   C     0.17496   0.84675   0.47894   0.00000  Uiso   1.00
C319   C     0.15558   0.83220   0.02345   0.00000  Uiso   1.00
C320   C     0.09189   0.80734   0.04024   0.00000  Uiso   1.00
C321   C     0.23714   0.87570   0.46316   0.00000  Uiso   1.00
C322   C     0.04913   0.79564   0.01410   0.00000  Uiso   1.00
C323   C     0.27959   0.88844   0.48951   0.00000  Uiso   1.00
C324   C     0.18995   0.98950   0.25217   0.00000  Uiso   1.00
C325   C     0.14339   0.67717   0.24781   0.00000  Uiso   1.00
C326   C     0.12837   0.82971   0.33299   0.00000  Uiso   1.00
Cu327  Cu    0.10737   0.82775   0.24517   0.00000  Uiso   1.00
Cu328  Cu    0.22596   0.83892   0.25484   0.00000  Uiso   1.00
H329   H     0.00082   0.77677   0.02845   0.00000  Uiso   1.00
H330   H     0.25454   0.89060   0.43076   0.00000  Uiso   1.00
H331   H     0.23459   0.68029   0.25641   0.00000  Uiso   1.00
H332   H     0.09875   0.98637   0.24357   0.00000  Uiso   1.00
H333   H     0.32664   0.91078   0.47603   0.00000  Uiso   1.00
H334   H     0.14000   0.80542   0.10819   0.00000  Uiso   1.00
H335   H     0.19673   0.85641   0.39052   0.00000  Uiso   1.00
H336   H     0.32278   0.88493   0.12206   0.00000  Uiso   1.00
H337   H     0.00816   0.79228   0.38005   0.00000  Uiso   1.00
H338   H     0.30865   0.77634   0.45834   0.00000  Uiso   1.00
H339   H     0.02006   0.90816   0.04526   0.00000  Uiso   1.00
H340   H     0.07258   0.79720   0.07387   0.00000  Uiso   1.00
N341   N     0.31506   0.84735   0.26212   0.00000  Uiso   1.00
N342   N     0.01827   0.81932   0.23788   0.00000  Uiso   1.00
O343   O     0.12815   0.90476   0.24686   0.00000  Uiso   1.00
O344   O     0.20518   0.76191   0.25314   0.00000  Uiso   1.00
O345   O     0.22829   0.91420   0.25503   0.00000  Uiso   1.00
O346   O     0.10504   0.75247   0.24498   0.00000  Uiso   1.00
O347   O     0.08851   0.82597   0.30855   0.00000  Uiso   1.00
O348   O     0.24482   0.84070   0.19146   0.00000  Uiso   1.00
O349   O     0.18866   0.83540   0.31671   0.00000  Uiso   1.00
O350   O     0.14468   0.83126   0.18329   0.00000  Uiso   1.00
Br351  Br    0.33859   0.89353   0.30750   0.00000  Uiso   1.00
Br352  Br    0.66143   0.77317   0.19248   0.00000  Uiso   1.00
C353   C     0.51509   0.93336   0.25137   0.00000  Uiso   1.00
C354   C     0.53833   0.83736   0.16706   0.00000  Uiso   1.00
C355   C     0.43874   0.82557   0.38058   0.00000  Uiso   1.00
C356   C     0.56132   0.84475   0.11989   0.00000  Uiso   1.00
C357   C     0.35725   0.79460   0.44426   0.00000  Uiso   1.00
C358   C     0.63943   0.88617   0.05848   0.00000  Uiso   1.00
C359   C     0.37579   0.80389   0.39972   0.00000  Uiso   1.00
C360   C     0.62237   0.87240   0.10204   0.00000  Uiso   1.00
C361   C     0.48210   0.84048   0.40672   0.00000  Uiso   1.00
C362   C     0.51855   0.82897   0.09344   0.00000  Uiso   1.00
C363   C     0.46448   0.83252   0.45190   0.00000  Uiso   1.00
C364   C     0.48492   0.73331   0.24862   0.00000  Uiso   1.00
C365   C     0.53362   0.84406   0.04987   0.00000  Uiso   1.00
C366   C     0.40122   0.80772   0.47022   0.00000  Uiso   1.00
C367   C     0.59552   0.87273   0.03247   0.00000  Uiso   1.00
C368   C     0.50829   0.84675   0.47894   0.00000  Uiso   1.00
C369   C     0.48891   0.83220   0.02345   0.00000  Uiso   1.00
C370   C     0.42522   0.80734   0.04024   0.00000  Uiso   1.00
C371   C     0.57048   0.87570   0.46316   0.00000  Uiso   1.00
C372   C     0.38247   0.79564   0.01410   0.00000  Uiso   1.00
C373   C     0.61292   0.88844   0.48951   0.00000  Uiso   1.00
C374   C     0.52329   0.98950   0.25217   0.00000  Uiso   1.00
C375   C     0.47673   0.67717   0.24781   0.00000  Uiso   1.00
C376   C     0.46170   0.82971   0.33299   0.00000  Uiso   1.00
Cu377  Cu    0.44071   0.82775   0.24517   0.00000  Uiso   1.00
Cu378  Cu    0.55929   0.83892   0.25484   0.00000  Uiso   1.00
H379   H     0.33415   0.77677   0.02845   0.00000  Uiso   1.00
H380   H     0.58788   0.89060   0.43076   0.00000  Uiso   1.00
H381   H     0.56793   0.68029   0.25641   0.00000  Uiso   1.00
H382   H     0.43209   0.98637   0.24357   0.00000  Uiso   1.00
H383   H     0.65997   0.91078   0.47603   0.00000  Uiso   1.00
H384   H     0.47334   0.80542   0.10819   0.00000  Uiso   1.00
H385   H     0.53007   0.85641   0.39052   0.00000  Uiso   1.00
H386   H     0.65611   0.88493   0.12206   0.00000  Uiso   1.00
H387   H     0.34150   0.79228   0.38005   0.00000  Uiso   1.00
H388   H     0.64198   0.77634   0.45834   0.00000  Uiso   1.00
H389   H     0.35340   0.90816   0.04526   0.00000  Uiso   1.00
H390   H     0.40592   0.79720   0.07387   0.00000  Uiso   1.00
N391   N     0.64839   0.84735   0.26212   0.00000  Uiso   1.00
N392   N     0.35161   0.81932   0.23788   0.00000  Uiso   1.00
O393   O     0.46148   0.90476   0.24686   0.00000  Uiso   1.00
O394   O     0.53852   0.76191   0.25314   0.00000  Uiso   1.00
O395   O     0.56163   0.91420   0.25503   0.00000  Uiso   1.00
O396   O     0.43837   0.75247   0.24498   0.00000  Uiso   1.00
O397   O     0.42185   0.82597   0.30855   0.00000  Uiso   1.00
O398   O     0.57815   0.84070   0.19146   0.00000  Uiso   1.00
O399   O     0.52199   0.83540   0.31671   0.00000  Uiso   1.00
O400   O     0.47801   0.83126   0.18329   0.00000  Uiso   1.00
Br401  Br    0.67192   0.89353   0.30750   0.00000  Uiso   1.00
Br402  Br    0.99476   0.77317   0.19248   0.00000  Uiso   1.00
C403   C     0.84842   0.93336   0.25137   0.00000  Uiso   1.00
C404   C     0.87166   0.83736   0.16706   0.00000  Uiso   1.00
C405   C     0.77207   0.82557   0.38058   0.00000  Uiso   1.00
C406   C     0.89466   0.84475   0.11989   0.00000  Uiso   1.00
C407   C     0.69058   0.79460   0.44426   0.00000  Uiso   1.00
C408   C     0.97276   0.88617   0.05848   0.00000  Uiso   1.00
C409   C     0.70912   0.80389   0.39972   0.00000  Uiso   1.00
C410   C     0.95571   0.87240   0.10204   0.00000  Uiso   1.00
C411   C     0.81544   0.84048   0.40672   0.00000  Uiso   1.00
C412   C     0.85188   0.82897   0.09344   0.00000  Uiso   1.00
C413   C     0.79782   0.83252   0.45190   0.00000  Uiso   1.00
C414   C     0.81825   0.73331   0.24862   0.00000  Uiso   1.00
C415   C     0.86695   0.84406   0.04987   0.00000  Uiso   1.00
C416   C     0.73456   0.80772   0.47022   0.00000  Uiso   1.00
C417   C     0.92885   0.87273   0.03247   0.00000  Uiso   1.00
C418   C     0.84162   0.84675   0.47894   0.00000  Uiso   1.00
C419   C     0.82225   0.83220   0.02345   0.00000  Uiso   1.00
C420   C     0.75855   0.80734   0.04024   0.00000  Uiso   1.00
C421   C     0.90381   0.87570   0.46316   0.00000  Uiso   1.00
C422   C     0.71580   0.79564   0.01410   0.00000  Uiso   1.00
C423   C     0.94626   0.88844   0.48951   0.00000  Uiso   1.00
C424   C     0.85662   0.98950   0.25217   0.00000  Uiso   1.00
C425   C     0.81006   0.67717   0.24781   0.00000  Uiso   1.00
C426   C     0.79504   0.82971   0.33299   0.00000  Uiso   1.00
Cu427  Cu    0.77404   0.82775   0.24517   0.00000  Uiso   1.00
Cu428  Cu    0.89263   0.83892   0.25484   0.00000  Uiso   1.00
H429   H     0.66749   0.77677   0.02845   0.00000  Uiso   1.00
H430   H     0.92121   0.89060   0.43076   0.00000  Uiso   1.00
H431   H     0.90126   0.68029   0.25641   0.00000  Uiso   1.00
H432   H     0.76542   0.98637   0.24357   0.00000  Uiso   1.00
H433   H     0.99330   0.91078   0.47603   0.00000  Uiso   1.00
H434   H     0.80667   0.80542   0.10819   0.00000  Uiso   1.00
H435   H     0.86340   0.85641   0.39052   0.00000  Uiso   1.00
H436   H     0.98944   0.88493   0.12206   0.00000  Uiso   1.00
H437   H     0.67483   0.79228   0.38005   0.00000  Uiso   1.00
H438   H     0.97532   0.77634   0.45834   0.00000  Uiso   1.00
H439   H     0.68673   0.90816   0.04526   0.00000  Uiso   1.00
H440   H     0.73925   0.79720   0.07387   0.00000  Uiso   1.00
N441   N     0.98173   0.84735   0.26212   0.00000  Uiso   1.00
N442   N     0.68494   0.81932   0.23788   0.00000  Uiso   1.00
O443   O     0.79482   0.90476   0.24686   0.00000  Uiso   1.00
O444   O     0.87185   0.76191   0.25314   0.00000  Uiso   1.00
O445   O     0.89496   0.91420   0.25503   0.00000  Uiso   1.00
O446   O     0.77171   0.75247   0.24498   0.00000  Uiso   1.00
O447   O     0.75518   0.82597   0.30855   0.00000  Uiso   1.00
O448   O     0.91149   0.84070   0.19146   0.00000  Uiso   1.00
O449   O     0.85532   0.83540   0.31671   0.00000  Uiso   1.00
O450   O     0.81134   0.83126   0.18329   0.00000  Uiso   1.00
Br451  Br    0.00526   0.22686   0.80750   0.00000  Uiso   1.00
Br452  Br    0.32809   0.10651   0.69248   0.00000  Uiso   1.00
C453   C     0.18175   0.26669   0.75137   0.00000  Uiso   1.00
C454   C     0.20500   0.17070   0.66706   0.00000  Uiso   1.00
C455   C     0.10541   0.15891   0.88058   0.00000  Uiso   1.00
C456   C     0.22799   0.17808   0.61989   0.00000  Uiso   1.00
C457   C     0.02392   0.12793   0.94426   0.00000  Uiso   1.00
C458   C     0.30609   0.21951   0.55848   0.00000  Uiso   1.00
C459   C     0.04245   0.13722   0.89972   0.00000  Uiso   1.00
C460   C     0.28904   0.20574   0.60204   0.00000  Uiso   1.00
C461   C     0.14877   0.17382   0.90672   0.00000  Uiso   1.00
C462   C     0.18521   0.16230   0.59344   0.00000  Uiso   1.00
C463   C     0.13115   0.16586   0.95190   0.00000  Uiso   1.00
C464   C     0.15158   0.06664   0.74862   0.00000  Uiso   1.00
C465   C     0.20029   0.17739   0.54987   0.00000  Uiso   1.00
C466   C     0.06789   0.14106   0.97022   0.00000  Uiso   1.00
C467   C     0.26219   0.20607   0.53247   0.00000  Uiso   1.00
C468   C     0.17496   0.18008   0.97894   0.00000  Uiso   1.00
C469   C     0.15558   0.16553   0.52345   0.00000  Uiso   1.00
C470   C     0.09189   0.14067   0.54024   0.00000  Uiso   1.00
C471   C     0.23714   0.20904   0.96316   0.00000  Uiso   1.00
C472   C     0.04913   0.12897   0.51410   0.00000  Uiso   1.00
C473   C     0.27959   0.22177   0.98951   0.00000  Uiso   1.00
C474   C     0.18995   0.32283   0.75217   0.00000  Uiso   1.00
C475   C     0.14339   0.01050   0.74781   0.00000  Uiso   1.00
C476   C     0.12837   0.16305   0.83299   0.00000  Uiso   1.00
Cu477  Cu    0.10737   0.16108   0.74517   0.00000  Uiso   1.00
Cu478  Cu    0.22596   0.17225   0.75484   0.00000  Uiso   1.00
H479   H     0.00082   0.11010   0.52845   0.00000  Uiso   1.00
H480   H     0.25454   0.22393   0.93076   0.00000  Uiso   1.00
H481   H     0.23459   0.01362   0.75641   0.00000  Uiso   1.00
H482   H     0.09875   0.31971   0.74357   0.00000  Uiso   1.00
H483   H     0.32664   0.24412   0.97603   0.00000  Uiso   1.00
H484   H     0.14000   0.13875   0.60819   0.00000  Uiso   1.00
H485   H     0.19673   0.18975   0.89052   0.00000  Uiso   1.00
H486   H     0.32278   0.21827   0.62206   0.00000  Uiso   1.00
H487   H     0.00816   0.12561   0.88005   0.00000  Uiso   1.00
H488   H     0.30865   0.10967   0.95834   0.00000  Uiso   1.00
H489   H     0.02006   0.24149   0.54526   0.00000  Uiso   1.00
H490   H     0.07258   0.13053   0.57387   0.00000  Uiso   1.00
N491   N     0.31506   0.18068   0.76212   0.00000  Uiso   1.00
N492   N     0.01827   0.15265   0.73788   0.00000  Uiso   1.00
O493   O     0.12815   0.23809   0.74686   0.00000  Uiso   1.00
O494   O     0.20518   0.09524   0.75314   0.00000  Uiso   1.00
O495   O     0.22829   0.24753   0.75503   0.00000  Uiso   1.00
O496   O     0.10504   0.08580   0.74498   0.00000  Uiso   1.00
O497   O     0.08851   0.15930   0.80855   0.00000  Uiso   1.00
O498   O     0.24482   0.17403   0.69146   0.00000  Uiso   1.00
O499   O     0.18866   0.16874   0.81671   0.00000  Uiso   1.00
O500   O     0.14468   0.16460   0.68329   0.00000  Uiso   1.00
Br501  Br    0.33859   0.22686   0.80750   0.00000  Uiso   1.00
Br502  Br    0.66143   0.10651   0.69248   0.00000  Uiso   1.00
C503   C     0.51509   0.26669   0.75137   0.00000  Uiso   1.00
C504   C     0.53833   0.17070   0.66706   0.00000  Uiso   1.00
C505   C     0.43874   0.15891   0.88058   0.00000  Uiso   1.00
C506   C     0.56132   0.17808   0.61989   0.00000  Uiso   1.00
C507   C     0.35725   0.12793   0.94426   0.00000  Uiso   1.00
C508   C     0.63943   0.21951   0.55848   0.00000  Uiso   1.00
C509   C     0.37579   0.13722   0.89972   0.00000  Uiso   1.00
C510   C     0.62237   0.20574   0.60204   0.00000  Uiso   1.00
C511   C     0.48210   0.17382   0.90672   0.00000  Uiso   1.00
C512   C     0.51855   0.16230   0.59344   0.00000  Uiso   1.00
C513   C     0.46448   0.16586   0.95190   0.00000  Uiso   1.00
C514   C     0.48492   0.06664   0.74862   0.00000  Uiso   1.00
C515   C     0.53362   0.17739   0.54987   0.00000  Uiso   1.00
C516   C     0.40122   0.14106   0.97022   0.00000  Uiso   1.00
C517   C     0.59552   0.20607   0.53247   0.00000  Uiso   1.00
C518   C     0.50829   0.18008   0.97894   0.00000  Uiso   1.00
C519   C     0.48891   0.16553   0.52345   0.00000  Uiso   1.00
C520   C     0.42522   0.14067   0.54024   0.00000  Uiso   1.00
C521   C     0.57048   0.20904   0.96316   0.00000  Uiso   1.00
C522   C     0.38247   0.12897   0.51410   0.00000  Uiso   1.00
C523   C     0.61292   0.22177   0.98951   0.00000  Uiso   1.00
C524   C     0.52329   0.32283   0.75217   0.00000  Uiso   1.00
C525   C     0.47673   0.01050   0.74781   0.00000  Uiso   1.00
C526   C     0.46170   0.16305   0.83299   0.00000  Uiso   1.00
Cu527  Cu    0.44071   0.16108   0.74517   0.00000  Uiso   1.00
Cu528  Cu    0.55929   0.17225   0.75484   0.00000  Uiso   1.00
H529   H     0.33415   0.11010   0.52845   0.00000  Uiso   1.00
H530   H     0.58788   0.22393   0.93076   0.00000  Uiso   1.00
H531   H     0.56793   0.01362   0.75641   0.00000  Uiso   1.00
H532   H     0.43209   0.31971   0.74357   0.00000  Uiso   1.00
H533   H     0.65997   0.24412   0.97603   0.00000  Uiso   1.00
H534   H     0.47334   0.13875   0.60819   0.00000  Uiso   1.00
H535   H     0.53007   0.18975   0.89052   0.00000  Uiso   1.00
H536   H     0.65611   0.21827   0.62206   0.00000  Uiso   1.00
H537   H     0.34150   0.12561   0.88005   0.00000  Uiso   1.00
H538   H     0.64198   0.10967   0.95834   0.00000  Uiso   1.00
H539   H     0.35340   0.24149   0.54526   0.00000  Uiso   1.00
H540   H     0.40592   0.13053   0.57387   0.00000  Uiso   1.00
N541   N     0.64839   0.18068   0.76212   0.00000  Uiso   1.00
N542   N     0.35161   0.15265   0.73788   0.00000  Uiso   1.00
O543   O     0.46148   0.23809   0.74686   0.00000  Uiso   1.00
O544   O     0.53852   0.09524   0.75314   0.00000  Uiso   1.00
O545   O     0.56163   0.24753   0.75503   0.00000  Uiso   1.00
O546   O     0.43837   0.08580   0.74498   0.00000  Uiso   1.00
O547   O     0.42185   0.15930   0.80855   0.00000  Uiso   1.00
O548   O     0.57815   0.17403   0.69146   0.00000  Uiso   1.00
O549   O     0.52199   0.16874   0.81671   0.00000  Uiso   1.00
O550   O     0.47801   0.16460   0.68329   0.00000  Uiso   1.00
Br551  Br    0.67192   0.22686   0.80750   0.00000  Uiso   1.00
Br552  Br    0.99476   0.10651   0.69248   0.00000  Uiso   1.00
C553   C     0.84842   0.26669   0.75137   0.00000  Uiso   1.00
C554   C     0.87166   0.17070   0.66706   0.00000  Uiso   1.00
C555   C     0.77207   0.15891   0.88058   0.00000  Uiso   1.00
C556   C     0.89466   0.17808   0.61989   0.00000  Uiso   1.00
C557   C     0.69058   0.12793   0.94426   0.00000  Uiso   1.00
C558   C     0.97276   0.21951   0.55848   0.00000  Uiso   1.00
C559   C     0.70912   0.13722   0.89972   0.00000  Uiso   1.00
C560   C     0.95571   0.20574   0.60204   0.00000  Uiso   1.00
C561   C     0.81544   0.17382   0.90672   0.00000  Uiso   1.00
C562   C     0.85188   0.16230   0.59344   0.00000  Uiso   1.00
C563   C     0.79782   0.16586   0.95190   0.00000  Uiso   1.00
C564   C     0.81825   0.06664   0.74862   0.00000  Uiso   1.00
C565   C     0.86695   0.17739   0.54987   0.00000  Uiso   1.00
C566   C     0.73456   0.14106   0.97022   0.00000  Uiso   1.00
C567   C     0.92885   0.20607   0.53247   0.00000  Uiso   1.00
C568   C     0.84162   0.18008   0.97894   0.00000  Uiso   1.00
C569   C     0.82225   0.16553   0.52345   0.00000  Uiso   1.00
C570   C     0.75855   0.14067   0.54024   0.00000  Uiso   1.00
C571   C     0.90381   0.20904   0.96316   0.00000  Uiso   1.00
C572   C     0.71580   0.12897   0.51410   0.00000  Uiso   1.00
C573   C     0.94626   0.22177   0.98951   0.00000  Uiso   1.00
C574   C     0.85662   0.32283   0.75217   0.00000  Uiso   1.00
C575   C     0.81006   0.01050   0.74781   0.00000  Uiso   1.00
C576   C     0.79504   0.16305   0.83299   0.00000  Uiso   1.00
Cu577  Cu    0.77404   0.16108   0.74517   0.00000  Uiso   1.00
Cu578  Cu    0.89263   0.17225   0.75484   0.00000  Uiso   1.00
H579   H     0.66749   0.11010   0.52845   0.00000  Uiso   1.00
H580   H     0.92121   0.22393   0.93076   0.00000  Uiso   1.00
H581   H     0.90126   0.01362   0.75641   0.00000  Uiso   1.00
H582   H     0.76542   0.31971   0.74357   0.00000  Uiso   1.00
H583   H     0.99330   0.24412   0.97603   0.00000  Uiso   1.00
H584   H     0.80667   0.13875   0.60819   0.00000  Uiso   1.00
H585   H     0.86340   0.18975   0.89052   0.00000  Uiso   1.00
H586   H     0.98944   0.21827   0.62206   0.00000  Uiso   1.00
H587   H     0.67483   0.12561   0.88005   0.00000  Uiso   1.00
H588   H     0.97532   0.10967   0.95834   0.00000  Uiso   1.00
H589   H     0.68673   0.24149   0.54526   0.00000  Uiso   1.00
H590   H     0.73925   0.13053   0.57387   0.00000  Uiso   1.00
N591   N     0.98173   0.18068   0.76212   0.00000  Uiso   1.00
N592   N     0.68494   0.15265   0.73788   0.00000  Uiso   1.00
O593   O     0.79482   0.23809   0.74686   0.00000  Uiso   1.00
O594   O     0.87185   0.09524   0.75314   0.00000  Uiso   1.00
O595   O     0.89496   0.24753   0.75503   0.00000  Uiso   1.00
O596   O     0.77171   0.08580   0.74498   0.00000  Uiso   1.00
O597   O     0.75518   0.15930   0.80855   0.00000  Uiso   1.00
O598   O     0.91149   0.17403   0.69146   0.00000  Uiso   1.00
O599   O     0.85532   0.16874   0.81671   0.00000  Uiso   1.00
O600   O     0.81134   0.16460   0.68329   0.00000  Uiso   1.00
Br601  Br    0.00526   0.56020   0.80750   0.00000  Uiso   1.00
Br602  Br    0.32809   0.43984   0.69248   0.00000  Uiso   1.00
C603   C     0.18175   0.60002   0.75137   0.00000  Uiso   1.00
C604   C     0.20500   0.50403   0.66706   0.00000  Uiso   1.00
C605   C     0.10541   0.49224   0.88058   0.00000  Uiso   1.00
C606   C     0.22799   0.51142   0.61989   0.00000  Uiso   1.00
C607   C     0.02392   0.46126   0.94426   0.00000  Uiso   1.00
C608   C     0.30609   0.55284   0.55848   0.00000  Uiso   1.00
C609   C     0.04245   0.47055   0.89972   0.00000  Uiso   1.00
C610   C     0.28904   0.53907   0.60204   0.00000  Uiso   1.00
C611   C     0.14877   0.50715   0.90672   0.00000  Uiso   1.00
C612   C     0.18521   0.49563   0.59344   0.00000  Uiso   1.00
C613   C     0.13115   0.49919   0.95190   0.00000  Uiso   1.00
C614   C     0.15158   0.39998   0.74862   0.00000  Uiso   1.00
C615   C     0.20029   0.51072   0.54987   0.00000  Uiso   1.00
C616   C     0.06789   0.47439   0.97022   0.00000  Uiso   1.00
C617   C     0.26219   0.53940   0.53247   0.00000  Uiso   1.00
C618   C     0.17496   0.51341   0.97894   0.00000  Uiso   1.00
C619   C     0.15558   0.49887   0.52345   0.00000  Uiso   1.00
C620   C     0.09189   0.47400   0.54024   0.00000  Uiso   1.00
C621   C     0.23714   0.54237   0.96316   0.00000  Uiso   1.00
C622   C     0.04913   0.46230   0.51410   0.00000  Uiso   1.00
C623   C     0.27959   0.55510   0.98951   0.00000  Uiso   1.00
C624   C     0.18995   0.65616   0.75217   0.00000  Uiso   1.00
C625   C     0.14339   0.34384   0.74781   0.00000  Uiso   1.00
C626   C     0.12837   0.49638   0.83299   0.00000  Uiso   1.00
Cu627  Cu    0.10737   0.49441   0.74517   0.00000  Uiso   1.00
Cu628  Cu    0.22596   0.50559   0.75484   0.00000  Uiso   1.00
H629   H     0.00082   0.44343   0.52845   0.00000  Uiso   1.00
H630   H     0.25454   0.55727   0.93076   0.00000  Uiso   1.00
H631   H     0.23459   0.34696   0.75641   0.00000  Uiso   1.00
H632   H     0.09875   0.65304   0.74357   0.00000  Uiso   1.00
H633   H     0.32664   0.57745   0.97603   0.00000  Uiso   1.00
H634   H     0.14000   0.47209   0.60819   0.00000  Uiso   1.00
H635   H     0.19673   0.52308   0.89052   0.00000  Uiso   1.00
H636   H     0.32278   0.55160   0.62206   0.00000  Uiso   1.00
H637   H     0.00816   0.45894   0.88005   0.00000  Uiso   1.00
H638   H     0.30865   0.44300   0.95834   0.00000  Uiso   1.00
H639   H     0.02006   0.57482   0.54526   0.00000  Uiso   1.00
H640   H     0.07258   0.46387   0.57387   0.00000  Uiso   1.00
N641   N     0.31506   0.51401   0.76212   0.00000  Uiso   1.00
N642   N     0.01827   0.48599   0.73788   0.00000  Uiso   1.00
O643   O     0.12815   0.57142   0.74686   0.00000  Uiso   1.00
O644   O     0.20518   0.42858   0.75314   0.00000  Uiso   1.00
O645   O     0.22829   0.58086   0.75503   0.00000  Uiso   1.00
O646   O     0.10504   0.41914   0.74498   0.00000  Uiso   1.00
O647   O     0.08851   0.49263   0.80855   0.00000  Uiso   1.00
O648   O     0.24482   0.50737   0.69146   0.00000  Uiso   1.00
O649   O     0.18866   0.50207   0.81671   0.00000  Uiso   1.00
O650   O     0.14468   0.49793   0.68329   0.00000  Uiso   1.00
Br651  Br    0.33859   0.56020   0.80750   0.00000  Uiso   1.00
Br652  Br    0.66143   0.43984   0.69248   0.00000  Uiso   1.00
C653   C     0.51509   0.60002   0.75137   0.00000  Uiso   1.00
C654   C     0.53833   0.50403   0.66706   0.00000  Uiso   1.00
C655   C     0.43874   0.49224   0.88058   0.00000  Uiso   1.00
C656   C     0.56132   0.51142   0.61989   0.00000  Uiso   1.00
C657   C     0.35725   0.46126   0.94426   0.00000  Uiso   1.00
C658   C     0.63943   0.55284   0.55848   0.00000  Uiso   1.00
C659   C     0.37579   0.47055   0.89972   0.00000  Uiso   1.00
C660   C     0.62237   0.53907   0.60204   0.00000  Uiso   1.00
C661   C     0.48210   0.50715   0.90672   0.00000  Uiso   1.00
C662   C     0.51855   0.49563   0.59344   0.00000  Uiso   1.00
C663   C     0.46448   0.49919   0.95190   0.00000  Uiso   1.00
C664   C     0.48492   0.39998   0.74862   0.00000  Uiso   1.00
C665   C     0.53362   0.51072   0.54987   0.00000  Uiso   1.00
C666   C     0.40122   0.47439   0.97022   0.00000  Uiso   1.00
C667   C     0.59552   0.53940   0.53247   0.00000  Uiso   1.00
C668   C     0.50829   0.51341   0.97894   0.00000  Uiso   1.00
C669   C     0.48891   0.49887   0.52345   0.00000  Uiso   1.00
C670   C     0.42522   0.47400   0.54024   0.00000  Uiso   1.00
C671   C     0.57048   0.54237   0.96316   0.00000  Uiso   1.00
C672   C     0.38247   0.46230   0.51410   0.00000  Uiso   1.00
C673   C     0.61292   0.55510   0.98951   0.00000  Uiso   1.00
C674   C     0.52329   0.65616   0.75217   0.00000  Uiso   1.00
C675   C     0.47673   0.34384   0.74781   0.00000  Uiso   1.00
C676   C     0.46170   0.49638   0.83299   0.00000  Uiso   1.00
Cu677  Cu    0.44071   0.49441   0.74517   0.00000  Uiso   1.00
Cu678  Cu    0.55929   0.50559   0.75484   0.00000  Uiso   1.00
H679   H     0.33415   0.44343   0.52845   0.00000  Uiso   1.00
H680   H     0.58788   0.55727   0.93076   0.00000  Uiso   1.00
H681   H     0.56793   0.34696   0.75641   0.00000  Uiso   1.00
H682   H     0.43209   0.65304   0.74357   0.00000  Uiso   1.00
H683   H     0.65997   0.57745   0.97603   0.00000  Uiso   1.00
H684   H     0.47334   0.47209   0.60819   0.00000  Uiso   1.00
H685   H     0.53007   0.52308   0.89052   0.00000  Uiso   1.00
H686   H     0.65611   0.55160   0.62206   0.00000  Uiso   1.00
H687   H     0.34150   0.45894   0.88005   0.00000  Uiso   1.00
H688   H     0.64198   0.44300   0.95834   0.00000  Uiso   1.00
H689   H     0.35340   0.57482   0.54526   0.00000  Uiso   1.00
H690   H     0.40592   0.46387   0.57387   0.00000  Uiso   1.00
N691   N     0.64839   0.51401   0.76212   0.00000  Uiso   1.00
N692   N     0.35161   0.48599   0.73788   0.00000  Uiso   1.00
O693   O     0.46148   0.57142   0.74686   0.00000  Uiso   1.00
O694   O     0.53852   0.42858   0.75314   0.00000  Uiso   1.00
O695   O     0.56163   0.58086   0.75503   0.00000  Uiso   1.00
O696   O     0.43837   0.41914   0.74498   0.00000  Uiso   1.00
O697   O     0.42185   0.49263   0.80855   0.00000  Uiso   1.00
O698   O     0.57815   0.50737   0.69146   0.00000  Uiso   1.00
O699   O     0.52199   0.50207   0.81671   0.00000  Uiso   1.00
O700   O     0.47801   0.49793   0.68329   0.00000  Uiso   1.00
Br701  Br    0.67192   0.56020   0.80750   0.00000  Uiso   1.00
Br702  Br    0.99476   0.43984   0.69248   0.00000  Uiso   1.00
C703   C     0.84842   0.60002   0.75137   0.00000  Uiso   1.00
C704   C     0.87166   0.50403   0.66706   0.00000  Uiso   1.00
C705   C     0.77207   0.49224   0.88058   0.00000  Uiso   1.00
C706   C     0.89466   0.51142   0.61989   0.00000  Uiso   1.00
C707   C     0.69058   0.46126   0.94426   0.00000  Uiso   1.00
C708   C     0.97276   0.55284   0.55848   0.00000  Uiso   1.00
C709   C     0.70912   0.47055   0.89972   0.00000  Uiso   1.00
C710   C     0.95571   0.53907   0.60204   0.00000  Uiso   1.00
C711   C     0.81544   0.50715   0.90672   0.00000  Uiso   1.00
C712   C     0.85188   0.49563   0.59344   0.00000  Uiso   1.00
C713   C     0.79782   0.49919   0.95190   0.00000  Uiso   1.00
C714   C     0.81825   0.39998   0.74862   0.00000  Uiso   1.00
C715   C     0.86695   0.51072   0.54987   0.00000  Uiso   1.00
C716   C     0.73456   0.47439   0.97022   0.00000  Uiso   1.00
C717   C     0.92885   0.53940   0.53247   0.00000  Uiso   1.00
C718   C     0.84162   0.51341   0.97894   0.00000  Uiso   1.00
C719   C     0.82225   0.49887   0.52345   0.00000  Uiso   1.00
C720   C     0.75855   0.47400   0.54024   0.00000  Uiso   1.00
C721   C     0.90381   0.54237   0.96316   0.00000  Uiso   1.00
C722   C     0.71580   0.46230   0.51410   0.00000  Uiso   1.00
C723   C     0.94626   0.55510   0.98951   0.00000  Uiso   1.00
C724   C     0.85662   0.65616   0.75217   0.00000  Uiso   1.00
C725   C     0.81006   0.34384   0.74781   0.00000  Uiso   1.00
C726   C     0.79504   0.49638   0.83299   0.00000  Uiso   1.00
Cu727  Cu    0.77404   0.49441   0.74517   0.00000  Uiso   1.00
Cu728  Cu    0.89263   0.50559   0.75484   0.00000  Uiso   1.00
H729   H     0.66749   0.44343   0.52845   0.00000  Uiso   1.00
H730   H     0.92121   0.55727   0.93076   0.00000  Uiso   1.00
H731   H     0.90126   0.34696   0.75641   0.00000  Uiso   1.00
H732   H     0.76542   0.65304   0.74357   0.00000  Uiso   1.00
H733   H     0.99330   0.57745   0.97603   0.00000  Uiso   1.00
H734   H     0.80667   0.47209   0.60819   0.00000  Uiso   1.00
H735   H     0.86340   0.52308   0.89052   0.00000  Uiso   1.00
H736   H     0.98944   0.55160   0.62206   0.00000  Uiso   1.00
H737   H     0.67483   0.45894   0.88005   0.00000  Uiso   1.00
H738   H     0.97532   0.44300   0.95834   0.00000  Uiso   1.00
H739   H     0.68673   0.57482   0.54526   0.00000  Uiso   1.00
H740   H     0.73925   0.46387   0.57387   0.00000  Uiso   1.00
N741   N     0.98173   0.51401   0.76212   0.00000  Uiso   1.00
N742   N     0.68494   0.48599   0.73788   0.00000  Uiso   1.00
O743   O     0.79482   0.57142   0.74686   0.00000  Uiso   1.00
O744   O     0.87185   0.42858   0.75314   0.00000  Uiso   1.00
O745   O     0.89496   0.58086   0.75503   0.00000  Uiso   1.00
O746   O     0.77171   0.41914   0.74498   0.00000  Uiso   1.00
O747   O     0.75518   0.49263   0.80855   0.00000  Uiso   1.00
O748   O     0.91149   0.50737   0.69146   0.00000  Uiso   1.00
O749   O     0.85532   0.50207   0.81671   0.00000  Uiso   1.00
O750   O     0.81134   0.49793   0.68329   0.00000  Uiso   1.00
Br751  Br    0.00526   0.89353   0.80750   0.00000  Uiso   1.00
Br752  Br    0.32809   0.77317   0.69248   0.00000  Uiso   1.00
C753   C     0.18175   0.93336   0.75137   0.00000  Uiso   1.00
C754   C     0.20500   0.83736   0.66706   0.00000  Uiso   1.00
C755   C     0.10541   0.82557   0.88058   0.00000  Uiso   1.00
C756   C     0.22799   0.84475   0.61989   0.00000  Uiso   1.00
C757   C     0.02392   0.79460   0.94426   0.00000  Uiso   1.00
C758   C     0.30609   0.88617   0.55848   0.00000  Uiso   1.00
C759   C     0.04245   0.80389   0.89972   0.00000  Uiso   1.00
C760   C     0.28904   0.87240   0.60204   0.00000  Uiso   1.00
C761   C     0.14877   0.84048   0.90672   0.00000  Uiso   1.00
C762   C     0.18521   0.82897   0.59344   0.00000  Uiso   1.00
C763   C     0.13115   0.83252   0.95190   0.00000  Uiso   1.00
C764   C     0.15158   0.73331   0.74862   0.00000  Uiso   1.00
C765   C     0.20029   0.84406   0.54987   0.00000  Uiso   1.00
C766   C     0.06789   0.80772   0.97022   0.00000  Uiso   1.00
C767   C     0.26219   0.87273   0.53247   0.00000  Uiso   1.00
C768   C     0.17496   0.84675   0.97894   0.00000  Uiso   1.00
C769   C     0.15558   0.83220   0.52345   0.00000  Uiso   1.00
C770   C     0.09189   0.80734   0.54024   0.00000  Uiso   1.00
C771   C     0.23714   0.87570   0.96316   0.00000  Uiso   1.00
C772   C     0.04913   0.79564   0.51410   0.00000  Uiso   1.00
C773   C     0.27959   0.88844   0.98951   0.00000  Uiso   1.00
C774   C     0.18995   0.98950   0.75217   0.00000  Uiso   1.00
C775   C     0.14339   0.67717   0.74781   0.00000  Uiso   1.00
C776   C     0.12837   0.82971   0.83299   0.00000  Uiso   1.00
Cu777  Cu    0.10737   0.82775   0.74517   0.00000  Uiso   1.00
Cu778  Cu    0.22596   0.83892   0.75484   0.00000  Uiso   1.00
H779   H     0.00082   0.77677   0.52845   0.00000  Uiso   1.00
H780   H     0.25454   0.89060   0.93076   0.00000  Uiso   1.00
H781   H     0.23459   0.68029   0.75641   0.00000  Uiso   1.00
H782   H     0.09875   0.98637   0.74357   0.00000  Uiso   1.00
H783   H     0.32664   0.91078   0.97603   0.00000  Uiso   1.00
H784   H     0.14000   0.80542   0.60819   0.00000  Uiso   1.00
H785   H     0.19673   0.85641   0.89052   0.00000  Uiso   1.00
H786   H     0.32278   0.88493   0.62206   0.00000  Uiso   1.00
H787   H     0.00816   0.79228   0.88005   0.00000  Uiso   1.00
H788   H     0.30865   0.77634   0.95834   0.00000  Uiso   1.00
H789   H     0.02006   0.90816   0.54526   0.00000  Uiso   1.00
H790   H     0.07258   0.79720   0.57387   0.00000  Uiso   1.00
N791   N     0.31506   0.84735   0.76212   0.00000  Uiso   1.00
N792   N     0.01827   0.81932   0.73788   0.00000  Uiso   1.00
O793   O     0.12815   0.90476   0.74686   0.00000  Uiso   1.00
O794   O     0.20518   0.76191   0.75314   0.00000  Uiso   1.00
O795   O     0.22829   0.91420   0.75503   0.00000  Uiso   1.00
O796   O     0.10504   0.75247   0.74498   0.00000  Uiso   1.00
O797   O     0.08851   0.82597   0.80855   0.00000  Uiso   1.00
O798   O     0.24482   0.84070   0.69146   0.00000  Uiso   1.00
O799   O     0.18866   0.83540   0.81671   0.00000  Uiso   1.00
O800   O     0.14468   0.83126   0.68329   0.00000  Uiso   1.00
Br801  Br    0.33859   0.89353   0.80750   0.00000  Uiso   1.00
Br802  Br    0.66143   0.77317   0.69248   0.00000  Uiso   1.00
C803   C     0.51509   0.93336   0.75137   0.00000  Uiso   1.00
C804   C     0.53833   0.83736   0.66706   0.00000  Uiso   1.00
C805   C     0.43874   0.82557   0.88058   0.00000  Uiso   1.00
C806   C     0.56132   0.84475   0.61989   0.00000  Uiso   1.00
C807   C     0.35725   0.79460   0.94426   0.00000  Uiso   1.00
C808   C     0.63943   0.88617   0.55848   0.00000  Uiso   1.00
C809   C     0.37579   0.80389   0.89972   0.00000  Uiso   1.00
C810   C     0.62237   0.87240   0.60204   0.00000  Uiso   1.00
C811   C     0.48210   0.84048   0.90672   0.00000  Uiso   1.00
C812   C     0.51855   0.82897   0.59344   0.00000  Uiso   1.00
C813   C     0.46448   0.83252   0.95190   0.00000  Uiso   1.00
C814   C     0.48492   0.73331   0.74862   0.00000  Uiso   1.00
C815   C     0.53362   0.84406   0.54987   0.00000  Uiso   1.00
C816   C     0.40122   0.80772   0.97022   0.00000  Uiso   1.00
C817   C     0.59552   0.87273   0.53247   0.00000  Uiso   1.00
C818   C     0.50829   0.84675   0.97894   0.00000  Uiso   1.00
C819   C     0.48891   0.83220   0.52345   0.00000  Uiso   1.00
C820   C     0.42522   0.80734   0.54024   0.00000  Uiso   1.00
C821   C     0.57048   0.87570   0.96316   0.00000  Uiso   1.00
C822   C     0.38247   0.79564   0.51410   0.00000  Uiso   1.00
C823   C     0.61292   0.88844   0.98951   0.00000  Uiso   1.00
C824   C     0.52329   0.98950   0.75217   0.00000  Uiso   1.00
C825   C     0.47673   0.67717   0.74781   0.00000  Uiso   1.00
C826   C     0.46170   0.82971   0.83299   0.00000  Uiso   1.00
Cu827  Cu    0.44071   0.82775   0.74517   0.00000  Uiso   1.00
Cu828  Cu    0.55929   0.83892   0.75484   0.00000  Uiso   1.00
H829   H     0.33415   0.77677   0.52845   0.00000  Uiso   1.00
H830   H     0.58788   0.89060   0.93076   0.00000  Uiso   1.00
H831   H     0.56793   0.68029   0.75641   0.00000  Uiso   1.00
H832   H     0.43209   0.98637   0.74357   0.00000  Uiso   1.00
H833   H     0.65997   0.91078   0.97603   0.00000  Uiso   1.00
H834   H     0.47334   0.80542   0.60819   0.00000  Uiso   1.00
H835   H     0.53007   0.85641   0.89052   0.00000  Uiso   1.00
H836   H     0.65611   0.88493   0.62206   0.00000  Uiso   1.00
H837   H     0.34150   0.79228   0.88005   0.00000  Uiso   1.00
H838   H     0.64198   0.77634   0.95834   0.00000  Uiso   1.00
H839   H     0.35340   0.90816   0.54526   0.00000  Uiso   1.00
H840   H     0.40592   0.79720   0.57387   0.00000  Uiso   1.00
N841   N     0.64839   0.84735   0.76212   0.00000  Uiso   1.00
N842   N     0.35161   0.81932   0.73788   0.00000  Uiso   1.00
O843   O     0.46148   0.90476   0.74686   0.00000  Uiso   1.00
O844   O     0.53852   0.76191   0.75314   0.00000  Uiso   1.00
O845   O     0.56163   0.91420   0.75503   0.00000  Uiso   1.00
O846   O     0.43837   0.75247   0.74498   0.00000  Uiso   1.00
O847   O     0.42185   0.82597   0.80855   0.00000  Uiso   1.00
O848   O     0.57815   0.84070   0.69146   0.00000  Uiso   1.00
O849   O     0.52199   0.83540   0.81671   0.00000  Uiso   1.00
O850   O     0.47801   0.83126   0.68329   0.00000  Uiso   1.00
Br851  Br    0.67192   0.89353   0.80750   0.00000  Uiso   1.00
Br852  Br    0.99476   0.77317   0.69248   0.00000  Uiso   1.00
C853   C     0.84842   0.93336   0.75137   0.00000  Uiso   1.00
C854   C     0.87166   0.83736   0.66706   0.00000  Uiso   1.00
C855   C     0.77207   0.82557   0.88058   0.00000  Uiso   1.00
C856   C     0.89466   0.84475   0.61989   0.00000  Uiso   1.00
C857   C     0.69058   0.79460   0.94426   0.00000  Uiso   1.00
C858   C     0.97276   0.88617   0.55848   0.00000  Uiso   1.00
C859   C     0.70912   0.80389   0.89972   0.00000  Uiso   1.00
C860   C     0.95571   0.87240   0.60204   0.00000  Uiso   1.00
C861   C     0.81544   0.84048   0.90672   0.00000  Uiso   1.00
C862   C     0.85188   0.82897   0.59344   0.00000  Uiso   1.00
C863   C     0.79782   0.83252   0.95190   0.00000  Uiso   1.00
C864   C     0.81825   0.73331   0.74862   0.00000  Uiso   1.00
C865   C     0.86695   0.84406   0.54987   0.00000  Uiso   1.00
C866   C     0.73456   0.80772   0.97022   0.00000  Uiso   1.00
C867   C     0.92885   0.87273   0.53247   0.00000  Uiso   1.00
C868   C     0.84162   0.84675   0.97894   0.00000  Uiso   1.00
C869   C     0.82225   0.83220   0.52345   0.00000  Uiso   1.00
C870   C     0.75855   0.80734   0.54024   0.00000  Uiso   1.00
C871   C     0.90381   0.87570   0.96316   0.00000  Uiso   1.00
C872   C     0.71580   0.79564   0.51410   0.00000  Uiso   1.00
C873   C     0.94626   0.88844   0.98951   0.00000  Uiso   1.00
C874   C     0.85662   0.98950   0.75217   0.00000  Uiso   1.00
C875   C     0.81006   0.67717   0.74781   0.00000  Uiso   1.00
C876   C     0.79504   0.82971   0.83299   0.00000  Uiso   1.00
Cu877  Cu    0.77404   0.82775   0.74517   0.00000  Uiso   1.00
Cu878  Cu    0.89263   0.83892   0.75484   0.00000  Uiso   1.00
H879   H     0.66749   0.77677   0.52845   0.00000  Uiso   1.00
H880   H     0.92121   0.89060   0.93076   0.00000  Uiso   1.00
H881   H     0.90126   0.68029   0.75641   0.00000  Uiso   1.00
H882   H     0.76542   0.98637   0.74357   0.00000  Uiso   1.00
H883   H     0.99330   0.91078   0.97603   0.00000  Uiso   1.00
H884   H     0.80667   0.80542   0.60819   0.00000  Uiso   1.00
H885   H     0.86340   0.85641   0.89052   0.00000  Uiso   1.00
H886   H     0.98944   0.88493   0.62206   0.00000  Uiso   1.00
H887   H     0.67483   0.79228   0.88005   0.00000  Uiso   1.00
H888   H     0.97532   0.77634   0.95834   0.00000  Uiso   1.00
H889   H     0.68673   0.90816   0.54526   0.00000  Uiso   1.00
H890   H     0.73925   0.79720   0.57387   0.00000  Uiso   1.00
N891   N     0.98173   0.84735   0.76212   0.00000  Uiso   1.00
N892   N     0.68494   0.81932   0.73788   0.00000  Uiso   1.00
O893   O     0.79482   0.90476   0.74686   0.00000  Uiso   1.00
O894   O     0.87185   0.76191   0.75314   0.00000  Uiso   1.00
O895   O     0.89496   0.91420   0.75503   0.00000  Uiso   1.00
O896   O     0.77171   0.75247   0.74498   0.00000  Uiso   1.00
O897   O     0.75518   0.82597   0.80855   0.00000  Uiso   1.00
O898   O     0.91149   0.84070   0.69146   0.00000  Uiso   1.00
O899   O     0.85532   0.83540   0.81671   0.00000  Uiso   1.00
O900   O     0.81134   0.83126   0.68329   0.00000  Uiso   1.00
loop_
_geom_bond_atom_site_label_1
_geom_bond_atom_site_label_2
_geom_bond_distance
_geom_bond_site_symmetry_2
_ccdc_geom_bond_type
Br1    N141    1.881   1_455 S
Br2    N92     1.881   .     S
C3     O45     1.297   .     A
C3     O43     1.297   .     A
C3     C24     1.431   .     S
C4     C6      1.466   .     S
C4     O48     1.308   .     A
C4     O50     1.303   .     A
C5     C9      1.399   .     A
C5     C11     1.400   .     A
C5     C26     1.468   .     S
C6     C10     1.398   .     A
C6     C12     1.398   .     A
C7     C16     1.404   .     A
C7     C9      1.392   .     A
C7     H138    1.084   1_455 S
C8     C10     1.392   .     A
C8     C17     1.405   .     A
C8     H89     1.084   .     S
C9     H37     1.083   .     S
C10    H36     1.083   .     S
C11    C13     1.405   .     A
C11    H35     1.075   .     S
C12    C15     1.405   .     A
C12    H34     1.075   .     S
C13    C18     1.428   .     A
C13    C16     1.418   .     A
C14    O46     1.297   .     A
C14    C25     1.431   .     S
C14    O44     1.297   .     A
C15    C19     1.428   .     A
C15    C17     1.418   .     A
C16    C472    1.389   .     S
C17    C473    1.389   1_554 S
C18    C21     1.417   .     A
C18    C469    1.425   .     S
C19    C20     1.417   .     A
C19    C468    1.425   1_554 S
C20    C22     1.386   .     A
C20    H40     1.076   .     S
C21    C23     1.386   .     A
C21    H30     1.076   .     S
C22    H29     1.085   .     S
C22    C466    1.389   1_554 S
C23    H33     1.085   .     S
C23    C467    1.389   .     S
C24    C175    1.333   .     S
C24    H181    1.087   .     S
C25    C324    1.333   1_545 S
C25    H332    1.087   1_545 S
C26    O47     1.308   .     A
C26    O49     1.304   .     A
Cu27   O50     1.926   .     S
Cu27   N42     2.038   .     S
Cu27   O46     1.951   .     S
Cu27   O43     1.951   .     S
Cu27   O47     1.943   .     S
Cu27   Cu28    2.712   .     S
Cu28   O45     1.951   .     S
Cu28   N41     2.038   .     S
Cu28   O48     1.943   .     S
Cu28   O44     1.951   .     S
Cu28   O49     1.926   .     S
H31    C324    1.087   1_545 S
H32    C175    1.087   .     S
H38    C57     1.084   .     S
H39    C108    1.084   1_455 S
N41    Br51    1.881   .     S
N41    N92     1.285   .     S
N42    Br102   1.881   1_455 S
N42    N141    1.285   1_455 S
Br52   N142    1.881   .     S
C53    O95     1.297   .     A
C53    O93     1.297   .     A
C53    C74     1.431   .     S
C54    C56     1.466   .     S
C54    O98     1.308   .     A
C54    O100    1.303   .     A
C55    C59     1.399   .     A
C55    C61     1.400   .     A
C55    C76     1.468   .     S
C56    C60     1.398   .     A
C56    C62     1.398   .     A
C57    C66     1.404   .     A
C57    C59     1.392   .     A
C58    C60     1.392   .     A
C58    C67     1.405   .     A
C58    H139    1.084   .     S
C59    H87     1.083   .     S
C60    H86     1.083   .     S
C61    C63     1.405   .     A
C61    H85     1.075   .     S
C62    C65     1.405   .     A
C62    H84     1.075   .     S
C63    C68     1.428   .     A
C63    C66     1.418   .     A
C64    O96     1.297   .     A
C64    C75     1.431   .     S
C64    O94     1.297   .     A
C65    C69     1.428   .     A
C65    C67     1.418   .     A
C66    C522    1.389   .     S
C67    C523    1.389   1_554 S
C68    C71     1.417   .     A
C68    C519    1.425   .     S
C69    C70     1.417   .     A
C69    C518    1.425   1_554 S
C70    C72     1.386   .     A
C70    H90     1.076   .     S
C71    C73     1.386   .     A
C71    H80     1.076   .     S
C72    H79     1.085   .     S
C72    C516    1.389   1_554 S
C73    H83     1.085   .     S
C73    C517    1.389   .     S
C74    C225    1.333   .     S
C74    H231    1.087   .     S
C75    C374    1.333   1_545 S
C75    H382    1.087   1_545 S
C76    O97     1.308   .     A
C76    O99     1.304   .     A
Cu77   O100    1.926   .     S
Cu77   N92     2.038   .     S
Cu77   O96     1.951   .     S
Cu77   O93     1.951   .     S
Cu77   O97     1.943   .     S
Cu77   Cu78    2.712   .     S
Cu78   O95     1.951   .     S
Cu78   N91     2.038   .     S
Cu78   O98     1.943   .     S
Cu78   O94     1.951   .     S
Cu78   O99     1.926   .     S
H81    C374    1.087   1_545 S
H82    C225    1.087   .     S
H88    C107    1.084   .     S
N91    Br101   1.881   .     S
N91    N142    1.285   .     S
Br102  N42     1.881   1_655 S
C103   O145    1.297   .     A
C103   O143    1.297   .     A
C103   C124    1.431   .     S
C104   C106    1.466   .     S
C104   O148    1.308   .     A
C104   O150    1.303   .     A
C105   C109    1.399   .     A
C105   C111    1.400   .     A
C105   C126    1.468   .     S
C106   C110    1.398   .     A
C106   C112    1.398   .     A
C107   C116    1.404   .     A
C107   C109    1.392   .     A
C108   C110    1.392   .     A
C108   C117    1.405   .     A
C108   H39     1.084   1_655 S
C109   H137    1.083   .     S
C110   H136    1.083   .     S
C111   C113    1.405   .     A
C111   H135    1.075   .     S
C112   C115    1.405   .     A
C112   H134    1.075   .     S
C113   C118    1.428   .     A
C113   C116    1.418   .     A
C114   O146    1.297   .     A
C114   C125    1.431   .     S
C114   O144    1.297   .     A
C115   C119    1.428   .     A
C115   C117    1.418   .     A
C116   C572    1.389   .     S
C117   C573    1.389   1_554 S
C118   C121    1.417   .     A
C118   C569    1.425   .     S
C119   C120    1.417   .     A
C119   C568    1.425   1_554 S
C120   C122    1.386   .     A
C120   H140    1.076   .     S
C121   C123    1.386   .     A
C121   H130    1.076   .     S
C122   H129    1.085   .     S
C122   C566    1.389   1_554 S
C123   H133    1.085   .     S
C123   C567    1.389   .     S
C124   C275    1.333   .     S
C124   H281    1.087   .     S
C125   C424    1.333   1_545 S
C125   H432    1.087   1_545 S
C126   O147    1.308   .     A
C126   O149    1.304   .     A
Cu127  O150    1.926   .     S
Cu127  N142    2.038   .     S
Cu127  O146    1.951   .     S
Cu127  O143    1.951   .     S
Cu127  O147    1.943   .     S
Cu127  Cu128   2.712   .     S
Cu128  O145    1.951   .     S
Cu128  N141    2.038   .     S
Cu128  O148    1.943   .     S
Cu128  O144    1.951   .     S
Cu128  O149    1.926   .     S
H131   C424    1.087   1_545 S
H132   C275    1.087   .     S
H138   C7      1.084   1_655 S
N141   Br1     1.881   1_655 S
N141   N42     1.285   1_655 S
Br151  N291    1.881   1_455 S
Br152  N242    1.881   .     S
C153   O195    1.297   .     A
C153   O193    1.297   .     A
C153   C174    1.431   .     S
C154   C156    1.466   .     S
C154   O198    1.308   .     A
C154   O200    1.303   .     A
C155   C159    1.399   .     A
C155   C161    1.400   .     A
C155   C176    1.468   .     S
C156   C160    1.398   .     A
C156   C162    1.398   .     A
C157   C166    1.404   .     A
C157   C159    1.392   .     A
C157   H288    1.084   1_455 S
C158   C160    1.392   .     A
C158   C167    1.405   .     A
C158   H239    1.084   .     S
C159   H187    1.083   .     S
C160   H186    1.083   .     S
C161   C163    1.405   .     A
C161   H185    1.075   .     S
C162   C165    1.405   .     A
C162   H184    1.075   .     S
C163   C168    1.428   .     A
C163   C166    1.418   .     A
C164   O196    1.297   .     A
C164   C175    1.431   .     S
C164   O194    1.297   .     A
C165   C169    1.428   .     A
C165   C167    1.418   .     A
C166   C622    1.389   .     S
C167   C623    1.389   1_554 S
C168   C171    1.417   .     A
C168   C619    1.425   .     S
C169   C170    1.417   .     A
C169   C618    1.425   1_554 S
C170   C172    1.386   .     A
C170   H190    1.076   .     S
C171   C173    1.386   .     A
C171   H180    1.076   .     S
C172   H179    1.085   .     S
C172   C616    1.389   1_554 S
C173   H183    1.085   .     S
C173   C617    1.389   .     S
C174   C325    1.333   .     S
C174   H331    1.087   .     S
C176   O197    1.308   .     A
C176   O199    1.304   .     A
Cu177  O200    1.926   .     S
Cu177  N192    2.038   .     S
Cu177  O196    1.951   .     S
Cu177  O193    1.951   .     S
Cu177  O197    1.943   .     S
Cu177  Cu178   2.712   .     S
Cu178  O195    1.951   .     S
Cu178  N191    2.038   .     S
Cu178  O198    1.943   .     S
Cu178  O194    1.951   .     S
Cu178  O199    1.926   .     S
H182   C325    1.087   .     S
H188   C207    1.084   .     S
H189   C258    1.084   1_455 S
N191   Br201   1.881   .     S
N191   N242    1.285   .     S
N192   Br252   1.881   1_455 S
N192   N291    1.285   1_455 S
Br202  N292    1.881   .     S
C203   O245    1.297   .     A
C203   O243    1.297   .     A
C203   C224    1.431   .     S
C204   C206    1.466   .     S
C204   O248    1.308   .     A
C204   O250    1.303   .     A
C205   C209    1.399   .     A
C205   C211    1.400   .     A
C205   C226    1.468   .     S
C206   C210    1.398   .     A
C206   C212    1.398   .     A
C207   C216    1.404   .     A
C207   C209    1.392   .     A
C208   C210    1.392   .     A
C208   C217    1.405   .     A
C208   H289    1.084   .     S
C209   H237    1.083   .     S
C210   H236    1.083   .     S
C211   C213    1.405   .     A
C211   H235    1.075   .     S
C212   C215    1.405   .     A
C212   H234    1.075   .     S
C213   C218    1.428   .     A
C213   C216    1.418   .     A
C214   O246    1.297   .     A
C214   C225    1.431   .     S
C214   O244    1.297   .     A
C215   C219    1.428   .     A
C215   C217    1.418   .     A
C216   C672    1.389   .     S
C217   C673    1.389   1_554 S
C218   C221    1.417   .     A
C218   C669    1.425   .     S
C219   C220    1.417   .     A
C219   C668    1.425   1_554 S
C220   C222    1.386   .     A
C220   H240    1.076   .     S
C221   C223    1.386   .     A
C221   H230    1.076   .     S
C222   H229    1.085   .     S
C222   C666    1.389   1_554 S
C223   H233    1.085   .     S
C223   C667    1.389   .     S
C224   C375    1.333   .     S
C224   H381    1.087   .     S
C226   O247    1.308   .     A
C226   O249    1.304   .     A
Cu227  O250    1.926   .     S
Cu227  N242    2.038   .     S
Cu227  O246    1.951   .     S
Cu227  O243    1.951   .     S
Cu227  O247    1.943   .     S
Cu227  Cu228   2.712   .     S
Cu228  O245    1.951   .     S
Cu228  N241    2.038   .     S
Cu228  O248    1.943   .     S
Cu228  O244    1.951   .     S
Cu228  O249    1.926   .     S
H232   C375    1.087   .     S
H238   C257    1.084   .     S
N241   Br251   1.881   .     S
N241   N292    1.285   .     S
Br252  N192    1.881   1_655 S
C253   O295    1.297   .     A
C253   O293    1.297   .     A
C253   C274    1.431   .     S
C254   C256    1.466   .     S
C254   O298    1.308   .     A
C254   O300    1.303   .     A
C255   C259    1.399   .     A
C255   C261    1.400   .     A
C255   C276    1.468   .     S
C256   C260    1.398   .     A
C256   C262    1.398   .     A
C257   C266    1.404   .     A
C257   C259    1.392   .     A
C258   C260    1.392   .     A
C258   C267    1.405   .     A
C258   H189    1.084   1_655 S
C259   H287    1.083   .     S
C260   H286    1.083   .     S
C261   C263    1.405   .     A
C261   H285    1.075   .     S
C262   C265    1.405   .     A
C262   H284    1.075   .     S
C263   C268    1.428   .     A
C263   C266    1.418   .     A
C264   O296    1.297   .     A
C264   C275    1.431   .     S
C264   O294    1.297   .     A
C265   C269    1.428   .     A
C265   C267    1.418   .     A
C266   C722    1.389   .     S
C267   C723    1.389   1_554 S
C268   C271    1.417   .     A
C268   C719    1.425   .     S
C269   C270    1.417   .     A
C269   C718    1.425   1_554 S
C270   C272    1.386   .     A
C270   H290    1.076   .     S
C271   C273    1.386   .     A
C271   H280    1.076   .     S
C272   H279    1.085   .     S
C272   C716    1.389   1_554 S
C273   H283    1.085   .     S
C273   C717    1.389   .     S
C274   C425    1.333   .     S
C274   H431    1.087   .     S
C276   O297    1.308   .     A
C276   O299    1.304   .     A
Cu277  O300    1.926   .     S
Cu277  N292    2.038   .     S
Cu277  O296    1.951   .     S
Cu277  O293    1.951   .     S
Cu277  O297    1.943   .     S
Cu277  Cu278   2.712   .     S
Cu278  O295    1.951   .     S
Cu278  N291    2.038   .     S
Cu278  O298    1.943   .     S
Cu278  O294    1.951   .     S
Cu278  O299    1.926   .     S
H282   C425    1.087   .     S
H288   C157    1.084   1_655 S
N291   Br151   1.881   1_655 S
N291   N192    1.285   1_655 S
Br301  N441    1.881   1_455 S
Br302  N392    1.881   .     S
C303   O345    1.297   .     A
C303   O343    1.297   .     A
C303   C324    1.431   .     S
C304   C306    1.466   .     S
C304   O348    1.308   .     A
C304   O350    1.303   .     A
C305   C309    1.399   .     A
C305   C311    1.400   .     A
C305   C326    1.468   .     S
C306   C310    1.398   .     A
C306   C312    1.398   .     A
C307   C316    1.404   .     A
C307   C309    1.392   .     A
C307   H438    1.084   1_455 S
C308   C310    1.392   .     A
C308   C317    1.405   .     A
C308   H389    1.084   .     S
C309   H337    1.083   .     S
C310   H336    1.083   .     S
C311   C313    1.405   .     A
C311   H335    1.075   .     S
C312   C315    1.405   .     A
C312   H334    1.075   .     S
C313   C318    1.428   .     A
C313   C316    1.418   .     A
C314   O346    1.297   .     A
C314   C325    1.431   .     S
C314   O344    1.297   .     A
C315   C319    1.428   .     A
C315   C317    1.418   .     A
C316   C772    1.389   .     S
C317   C773    1.389   1_554 S
C318   C321    1.417   .     A
C318   C769    1.425   .     S
C319   C320    1.417   .     A
C319   C768    1.425   1_554 S
C320   C322    1.386   .     A
C320   H340    1.076   .     S
C321   C323    1.386   .     A
C321   H330    1.076   .     S
C322   H329    1.085   .     S
C322   C766    1.389   1_554 S
C323   H333    1.085   .     S
C323   C767    1.389   .     S
C324   C25     1.333   1_565 S
C324   H31     1.087   1_565 S
C326   O347    1.308   .     A
C326   O349    1.304   .     A
Cu327  O350    1.926   .     S
Cu327  N342    2.038   .     S
Cu327  O346    1.951   .     S
Cu327  O343    1.951   .     S
Cu327  O347    1.943   .     S
Cu327  Cu328   2.712   .     S
Cu328  O345    1.951   .     S
Cu328  N341    2.038   .     S
Cu328  O348    1.943   .     S
Cu328  O344    1.951   .     S
Cu328  O349    1.926   .     S
H332   C25     1.087   1_565 S
H338   C357    1.084   .     S
H339   C408    1.084   1_455 S
N341   Br351   1.881   .     S
N341   N392    1.285   .     S
N342   Br402   1.881   1_455 S
N342   N441    1.285   1_455 S
Br352  N442    1.881   .     S
C353   O395    1.297   .     A
C353   O393    1.297   .     A
C353   C374    1.431   .     S
C354   C356    1.466   .     S
C354   O398    1.308   .     A
C354   O400    1.303   .     A
C355   C359    1.399   .     A
C355   C361    1.400   .     A
C355   C376    1.468   .     S
C356   C360    1.398   .     A
C356   C362    1.398   .     A
C357   C366    1.404   .     A
C357   C359    1.392   .     A
C358   C360    1.392   .     A
C358   C367    1.405   .     A
C358   H439    1.084   .     S
C359   H387    1.083   .     S
C360   H386    1.083   .     S
C361   C363    1.405   .     A
C361   H385    1.075   .     S
C362   C365    1.405   .     A
C362   H384    1.075   .     S
C363   C368    1.428   .     A
C363   C366    1.418   .     A
C364   O396    1.297   .     A
C364   C375    1.431   .     S
C364   O394    1.297   .     A
C365   C369    1.428   .     A
C365   C367    1.418   .     A
C366   C822    1.389   .     S
C367   C823    1.389   1_554 S
C368   C371    1.417   .     A
C368   C819    1.425   .     S
C369   C370    1.417   .     A
C369   C818    1.425   1_554 S
C370   C372    1.386   .     A
C370   H390    1.076   .     S
C371   C373    1.386   .     A
C371   H380    1.076   .     S
C372   H379    1.085   .     S
C372   C816    1.389   1_554 S
C373   H383    1.085   .     S
C373   C817    1.389   .     S
C374   C75     1.333   1_565 S
C374   H81     1.087   1_565 S
C376   O397    1.308   .     A
C376   O399    1.304   .     A
Cu377  O400    1.926   .     S
Cu377  N392    2.038   .     S
Cu377  O396    1.951   .     S
Cu377  O393    1.951   .     S
Cu377  O397    1.943   .     S
Cu377  Cu378   2.712   .     S
Cu378  O395    1.951   .     S
Cu378  N391    2.038   .     S
Cu378  O398    1.943   .     S
Cu378  O394    1.951   .     S
Cu378  O399    1.926   .     S
H382   C75     1.087   1_565 S
H388   C407    1.084   .     S
N391   Br401   1.881   .     S
N391   N442    1.285   .     S
Br402  N342    1.881   1_655 S
C403   O445    1.297   .     A
C403   O443    1.297   .     A
C403   C424    1.431   .     S
C404   C406    1.466   .     S
C404   O448    1.308   .     A
C404   O450    1.303   .     A
C405   C409    1.399   .     A
C405   C411    1.400   .     A
C405   C426    1.468   .     S
C406   C410    1.398   .     A
C406   C412    1.398   .     A
C407   C416    1.404   .     A
C407   C409    1.392   .     A
C408   C410    1.392   .     A
C408   C417    1.405   .     A
C408   H339    1.084   1_655 S
C409   H437    1.083   .     S
C410   H436    1.083   .     S
C411   C413    1.405   .     A
C411   H435    1.075   .     S
C412   C415    1.405   .     A
C412   H434    1.075   .     S
C413   C418    1.428   .     A
C413   C416    1.418   .     A
C414   O446    1.297   .     A
C414   C425    1.431   .     S
C414   O444    1.297   .     A
C415   C419    1.428   .     A
C415   C417    1.418   .     A
C416   C872    1.389   .     S
C417   C873    1.389   1_554 S
C418   C421    1.417   .     A
C418   C869    1.425   .     S
C419   C420    1.417   .     A
C419   C868    1.425   1_554 S
C420   C422    1.386   .     A
C420   H440    1.076   .     S
C421   C423    1.386   .     A
C421   H430    1.076   .     S
C422   H429    1.085   .     S
C422   C866    1.389   1_554 S
C423   H433    1.085   .     S
C423   C867    1.389   .     S
C424   C125    1.333   1_565 S
C424   H131    1.087   1_565 S
C426   O447    1.308   .     A
C426   O449    1.304   .     A
Cu427  O450    1.926   .     S
Cu427  N442    2.038   .     S
Cu427  O446    1.951   .     S
Cu427  O443    1.951   .     S
Cu427  O447    1.943   .     S
Cu427  Cu428   2.712   .     S
Cu428  O445    1.951   .     S
Cu428  N441    2.038   .     S
Cu428  O448    1.943   .     S
Cu428  O444    1.951   .     S
Cu428  O449    1.926   .     S
H432   C125    1.087   1_565 S
H438   C307    1.084   1_655 S
N441   Br301   1.881   1_655 S
N441   N342    1.285   1_655 S
Br451  N591    1.881   1_455 S
Br452  N542    1.881   .     S
C453   O495    1.297   .     A
C453   O493    1.297   .     A
C453   C474    1.431   .     S
C454   C456    1.466   .     S
C454   O498    1.308   .     A
C454   O500    1.303   .     A
C455   C459    1.399   .     A
C455   C461    1.400   .     A
C455   C476    1.468   .     S
C456   C460    1.398   .     A
C456   C462    1.398   .     A
C457   C466    1.404   .     A
C457   C459    1.392   .     A
C457   H588    1.084   1_455 S
C458   C460    1.392   .     A
C458   C467    1.405   .     A
C458   H539    1.084   .     S
C459   H487    1.083   .     S
C460   H486    1.083   .     S
C461   C463    1.405   .     A
C461   H485    1.075   .     S
C462   C465    1.405   .     A
C462   H484    1.075   .     S
C463   C468    1.428   .     A
C463   C466    1.418   .     A
C464   O496    1.297   .     A
C464   C475    1.431   .     S
C464   O494    1.297   .     A
C465   C469    1.428   .     A
C465   C467    1.418   .     A
C466   C22     1.389   1_556 S
C468   C471    1.417   .     A
C468   C19     1.425   1_556 S
C469   C470    1.417   .     A
C470   C472    1.386   .     A
C470   H490    1.076   .     S
C471   C473    1.386   .     A
C471   H480    1.076   .     S
C472   H479    1.085   .     S
C473   H483    1.085   .     S
C473   C17     1.389   1_556 S
C474   C625    1.333   .     S
C474   H631    1.087   .     S
C475   C774    1.333   1_545 S
C475   H782    1.087   1_545 S
C476   O497    1.308   .     A
C476   O499    1.304   .     A
Cu477  O500    1.926   .     S
Cu477  N492    2.038   .     S
Cu477  O496    1.951   .     S
Cu477  O493    1.951   .     S
Cu477  O497    1.943   .     S
Cu477  Cu478   2.712   .     S
Cu478  O495    1.951   .     S
Cu478  N491    2.038   .     S
Cu478  O498    1.943   .     S
Cu478  O494    1.951   .     S
Cu478  O499    1.926   .     S
H481   C774    1.087   1_545 S
H482   C625    1.087   .     S
H488   C507    1.084   .     S
H489   C558    1.084   1_455 S
N491   Br501   1.881   .     S
N491   N542    1.285   .     S
N492   Br552   1.881   1_455 S
N492   N591    1.285   1_455 S
Br502  N592    1.881   .     S
C503   O545    1.297   .     A
C503   O543    1.297   .     A
C503   C524    1.431   .     S
C504   C506    1.466   .     S
C504   O548    1.308   .     A
C504   O550    1.303   .     A
C505   C509    1.399   .     A
C505   C511    1.400   .     A
C505   C526    1.468   .     S
C506   C510    1.398   .     A
C506   C512    1.398   .     A
C507   C516    1.404   .     A
C507   C509    1.392   .     A
C508   C510    1.392   .     A
C508   C517    1.405   .     A
C508   H589    1.084   .     S
C509   H537    1.083   .     S
C510   H536    1.083   .     S
C511   C513    1.405   .     A
C511   H535    1.075   .     S
C512   C515    1.405   .     A
C512   H534    1.075   .     S
C513   C518    1.428   .     A
C513   C516    1.418   .     A
C514   O546    1.297   .     A
C514   C525    1.431   .     S
C514   O544    1.297   .     A
C515   C519    1.428   .     A
C515   C517    1.418   .     A
C516   C72     1.389   1_556 S
C518   C521    1.417   .     A
C518   C69     1.425   1_556 S
C519   C520    1.417   .     A
C520   C522    1.386   .     A
C520   H540    1.076   .     S
C521   C523    1.386   .     A
C521   H530    1.076   .     S
C522   H529    1.085   .     S
C523   H533    1.085   .     S
C523   C67     1.389   1_556 S
C524   C675    1.333   .     S
C524   H681    1.087   .     S
C525   C824    1.333   1_545 S
C525   H832    1.087   1_545 S
C526   O547    1.308   .     A
C526   O549    1.304   .     A
Cu527  O550    1.926   .     S
Cu527  N542    2.038   .     S
Cu527  O546    1.951   .     S
Cu527  O543    1.951   .     S
Cu527  O547    1.943   .     S
Cu527  Cu528   2.712   .     S
Cu528  O545    1.951   .     S
Cu528  N541    2.038   .     S
Cu528  O548    1.943   .     S
Cu528  O544    1.951   .     S
Cu528  O549    1.926   .     S
H531   C824    1.087   1_545 S
H532   C675    1.087   .     S
H538   C557    1.084   .     S
N541   Br551   1.881   .     S
N541   N592    1.285   .     S
Br552  N492    1.881   1_655 S
C553   O595    1.297   .     A
C553   O593    1.297   .     A
C553   C574    1.431   .     S
C554   C556    1.466   .     S
C554   O598    1.308   .     A
C554   O600    1.303   .     A
C555   C559    1.399   .     A
C555   C561    1.400   .     A
C555   C576    1.468   .     S
C556   C560    1.398   .     A
C556   C562    1.398   .     A
C557   C566    1.404   .     A
C557   C559    1.392   .     A
C558   C560    1.392   .     A
C558   C567    1.405   .     A
C558   H489    1.084   1_655 S
C559   H587    1.083   .     S
C560   H586    1.083   .     S
C561   C563    1.405   .     A
C561   H585    1.075   .     S
C562   C565    1.405   .     A
C562   H584    1.075   .     S
C563   C568    1.428   .     A
C563   C566    1.418   .     A
C564   O596    1.297   .     A
C564   C575    1.431   .     S
C564   O594    1.297   .     A
C565   C569    1.428   .     A
C565   C567    1.418   .     A
C566   C122    1.389   1_556 S
C568   C571    1.417   .     A
C568   C119    1.425   1_556 S
C569   C570    1.417   .     A
C570   C572    1.386   .     A
C570   H590    1.076   .     S
C571   C573    1.386   .     A
C571   H580    1.076   .     S
C572   H579    1.085   .     S
C573   H583    1.085   .     S
C573   C117    1.389   1_556 S
C574   C725    1.333   .     S
C574   H731    1.087   .     S
C575   C874    1.333   1_545 S
C575   H882    1.087   1_545 S
C576   O597    1.308   .     A
C576   O599    1.304   .     A
Cu577  O600    1.926   .     S
Cu577  N592    2.038   .     S
Cu577  O596    1.951   .     S
Cu577  O593    1.951   .     S
Cu577  O597    1.943   .     S
Cu577  Cu578   2.712   .     S
Cu578  O595    1.951   .     S
Cu578  N591    2.038   .     S
Cu578  O598    1.943   .     S
Cu578  O594    1.951   .     S
Cu578  O599    1.926   .     S
H581   C874    1.087   1_545 S
H582   C725    1.087   .     S
H588   C457    1.084   1_655 S
N591   Br451   1.881   1_655 S
N591   N492    1.285   1_655 S
Br601  N741    1.881   1_455 S
Br602  N692    1.881   .     S
C603   O645    1.297   .     A
C603   O643    1.297   .     A
C603   C624    1.431   .     S
C604   C606    1.466   .     S
C604   O648    1.308   .     A
C604   O650    1.303   .     A
C605   C609    1.399   .     A
C605   C611    1.400   .     A
C605   C626    1.468   .     S
C606   C610    1.398   .     A
C606   C612    1.398   .     A
C607   C616    1.404   .     A
C607   C609    1.392   .     A
C607   H738    1.084   1_455 S
C608   C610    1.392   .     A
C608   C617    1.405   .     A
C608   H689    1.084   .     S
C609   H637    1.083   .     S
C610   H636    1.083   .     S
C611   C613    1.405   .     A
C611   H635    1.075   .     S
C612   C615    1.405   .     A
C612   H634    1.075   .     S
C613   C618    1.428   .     A
C613   C616    1.418   .     A
C614   O646    1.297   .     A
C614   C625    1.431   .     S
C614   O644    1.297   .     A
C615   C619    1.428   .     A
C615   C617    1.418   .     A
C616   C172    1.389   1_556 S
C618   C621    1.417   .     A
C618   C169    1.425   1_556 S
C619   C620    1.417   .     A
C620   C622    1.386   .     A
C620   H640    1.076   .     S
C621   C623    1.386   .     A
C621   H630    1.076   .     S
C622   H629    1.085   .     S
C623   H633    1.085   .     S
C623   C167    1.389   1_556 S
C624   C775    1.333   .     S
C624   H781    1.087   .     S
C626   O647    1.308   .     A
C626   O649    1.304   .     A
Cu627  O650    1.926   .     S
Cu627  N642    2.038   .     S
Cu627  O646    1.951   .     S
Cu627  O643    1.951   .     S
Cu627  O647    1.943   .     S
Cu627  Cu628   2.712   .     S
Cu628  O645    1.951   .     S
Cu628  N641    2.038   .     S
Cu628  O648    1.943   .     S
Cu628  O644    1.951   .     S
Cu628  O649    1.926   .     S
H632   C775    1.087   .     S
H638   C657    1.084   .     S
H639   C708    1.084   1_455 S
N641   Br651   1.881   .     S
N641   N692    1.285   .     S
N642   Br702   1.881   1_455 S
N642   N741    1.285   1_455 S
Br652  N742    1.881   .     S
C653   O695    1.297   .     A
C653   O693    1.297   .     A
C653   C674    1.431   .     S
C654   C656    1.466   .     S
C654   O698    1.308   .     A
C654   O700    1.303   .     A
C655   C659    1.399   .     A
C655   C661    1.400   .     A
C655   C676    1.468   .     S
C656   C660    1.398   .     A
C656   C662    1.398   .     A
C657   C666    1.404   .     A
C657   C659    1.392   .     A
C658   C660    1.392   .     A
C658   C667    1.405   .     A
C658   H739    1.084   .     S
C659   H687    1.083   .     S
C660   H686    1.083   .     S
C661   C663    1.405   .     A
C661   H685    1.075   .     S
C662   C665    1.405   .     A
C662   H684    1.075   .     S
C663   C668    1.428   .     A
C663   C666    1.418   .     A
C664   O696    1.297   .     A
C664   C675    1.431   .     S
C664   O694    1.297   .     A
C665   C669    1.428   .     A
C665   C667    1.418   .     A
C666   C222    1.389   1_556 S
C668   C671    1.417   .     A
C668   C219    1.425   1_556 S
C669   C670    1.417   .     A
C670   C672    1.386   .     A
C670   H690    1.076   .     S
C671   C673    1.386   .     A
C671   H680    1.076   .     S
C672   H679    1.085   .     S
C673   H683    1.085   .     S
C673   C217    1.389   1_556 S
C674   C825    1.333   .     S
C674   H831    1.087   .     S
C676   O697    1.308   .     A
C676   O699    1.304   .     A
Cu677  O700    1.926   .     S
Cu677  N692    2.038   .     S
Cu677  O696    1.951   .     S
Cu677  O693    1.951   .     S
Cu677  O697    1.943   .     S
Cu677  Cu678   2.712   .     S
Cu678  O695    1.951   .     S
Cu678  N691    2.038   .     S
Cu678  O698    1.943   .     S
Cu678  O694    1.951   .     S
Cu678  O699    1.926   .     S
H682   C825    1.087   .     S
H688   C707    1.084   .     S
N691   Br701   1.881   .     S
N691   N742    1.285   .     S
Br702  N642    1.881   1_655 S
C703   O745    1.297   .     A
C703   O743    1.297   .     A
C703   C724    1.431   .     S
C704   C706    1.466   .     S
C704   O748    1.308   .     A
C704   O750    1.303   .     A
C705   C709    1.399   .     A
C705   C711    1.400   .     A
C705   C726    1.468   .     S
C706   C710    1.398   .     A
C706   C712    1.398   .     A
C707   C716    1.404   .     A
C707   C709    1.392   .     A
C708   C710    1.392   .     A
C708   C717    1.405   .     A
C708   H639    1.084   1_655 S
C709   H737    1.083   .     S
C710   H736    1.083   .     S
C711   C713    1.405   .     A
C711   H735    1.075   .     S
C712   C715    1.405   .     A
C712   H734    1.075   .     S
C713   C718    1.428   .     A
C713   C716    1.418   .     A
C714   O746    1.297   .     A
C714   C725    1.431   .     S
C714   O744    1.297   .     A
C715   C719    1.428   .     A
C715   C717    1.418   .     A
C716   C272    1.389   1_556 S
C718   C721    1.417   .     A
C718   C269    1.425   1_556 S
C719   C720    1.417   .     A
C720   C722    1.386   .     A
C720   H740    1.076   .     S
C721   C723    1.386   .     A
C721   H730    1.076   .     S
C722   H729    1.085   .     S
C723   H733    1.085   .     S
C723   C267    1.389   1_556 S
C724   C875    1.333   .     S
C724   H881    1.087   .     S
C726   O747    1.308   .     A
C726   O749    1.304   .     A
Cu727  O750    1.926   .     S
Cu727  N742    2.038   .     S
Cu727  O746    1.951   .     S
Cu727  O743    1.951   .     S
Cu727  O747    1.943   .     S
Cu727  Cu728   2.712   .     S
Cu728  O745    1.951   .     S
Cu728  N741    2.038   .     S
Cu728  O748    1.943   .     S
Cu728  O744    1.951   .     S
Cu728  O749    1.926   .     S
H732   C875    1.087   .     S
H738   C607    1.084   1_655 S
N741   Br601   1.881   1_655 S
N741   N642    1.285   1_655 S
Br751  N891    1.881   1_455 S
Br752  N842    1.881   .     S
C753   O795    1.297   .     A
C753   O793    1.297   .     A
C753   C774    1.431   .     S
C754   C756    1.466   .     S
C754   O798    1.308   .     A
C754   O800    1.303   .     A
C755   C759    1.399   .     A
C755   C761    1.400   .     A
C755   C776    1.468   .     S
C756   C760    1.398   .     A
C756   C762    1.398   .     A
C757   C766    1.404   .     A
C757   C759    1.392   .     A
C757   H888    1.084   1_455 S
C758   C760    1.392   .     A
C758   C767    1.405   .     A
C758   H839    1.084   .     S
C759   H787    1.083   .     S
C760   H786    1.083   .     S
C761   C763    1.405   .     A
C761   H785    1.075   .     S
C762   C765    1.405   .     A
C762   H784    1.075   .     S
C763   C768    1.428   .     A
C763   C766    1.418   .     A
C764   O796    1.297   .     A
C764   C775    1.431   .     S
C764   O794    1.297   .     A
C765   C769    1.428   .     A
C765   C767    1.418   .     A
C766   C322    1.389   1_556 S
C768   C771    1.417   .     A
C768   C319    1.425   1_556 S
C769   C770    1.417   .     A
C770   C772    1.386   .     A
C770   H790    1.076   .     S
C771   C773    1.386   .     A
C771   H780    1.076   .     S
C772   H779    1.085   .     S
C773   H783    1.085   .     S
C773   C317    1.389   1_556 S
C774   C475    1.333   1_565 S
C774   H481    1.087   1_565 S
C776   O797    1.308   .     A
C776   O799    1.304   .     A
Cu777  O800    1.926   .     S
Cu777  N792    2.038   .     S
Cu777  O796    1.951   .     S
Cu777  O793    1.951   .     S
Cu777  O797    1.943   .     S
Cu777  Cu778   2.712   .     S
Cu778  O795    1.951   .     S
Cu778  N791    2.038   .     S
Cu778  O798    1.943   .     S
Cu778  O794    1.951   .     S
Cu778  O799    1.926   .     S
H782   C475    1.087   1_565 S
H788   C807    1.084   .     S
H789   C858    1.084   1_455 S
N791   Br801   1.881   .     S
N791   N842    1.285   .     S
N792   Br852   1.881   1_455 S
N792   N891    1.285   1_455 S
Br802  N892    1.881   .     S
C803   O845    1.297   .     A
C803   O843    1.297   .     A
C803   C824    1.431   .     S
C804   C806    1.466   .     S
C804   O848    1.308   .     A
C804   O850    1.303   .     A
C805   C809    1.399   .     A
C805   C811    1.400   .     A
C805   C826    1.468   .     S
C806   C810    1.398   .     A
C806   C812    1.398   .     A
C807   C816    1.404   .     A
C807   C809    1.392   .     A
C808   C810    1.392   .     A
C808   C817    1.405   .     A
C808   H889    1.084   .     S
C809   H837    1.083   .     S
C810   H836    1.083   .     S
C811   C813    1.405   .     A
C811   H835    1.075   .     S
C812   C815    1.405   .     A
C812   H834    1.075   .     S
C813   C818    1.428   .     A
C813   C816    1.418   .     A
C814   O846    1.297   .     A
C814   C825    1.431   .     S
C814   O844    1.297   .     A
C815   C819    1.428   .     A
C815   C817    1.418   .     A
C816   C372    1.389   1_556 S
C818   C821    1.417   .     A
C818   C369    1.425   1_556 S
C819   C820    1.417   .     A
C820   C822    1.386   .     A
C820   H840    1.076   .     S
C821   C823    1.386   .     A
C821   H830    1.076   .     S
C822   H829    1.085   .     S
C823   H833    1.085   .     S
C823   C367    1.389   1_556 S
C824   C525    1.333   1_565 S
C824   H531    1.087   1_565 S
C826   O847    1.308   .     A
C826   O849    1.304   .     A
Cu827  O850    1.926   .     S
Cu827  N842    2.038   .     S
Cu827  O846    1.951   .     S
Cu827  O843    1.951   .     S
Cu827  O847    1.943   .     S
Cu827  Cu828   2.712   .     S
Cu828  O845    1.951   .     S
Cu828  N841    2.038   .     S
Cu828  O848    1.943   .     S
Cu828  O844    1.951   .     S
Cu828  O849    1.926   .     S
H832   C525    1.087   1_565 S
H838   C857    1.084   .     S
N841   Br851   1.881   .     S
N841   N892    1.285   .     S
Br852  N792    1.881   1_655 S
C853   O895    1.297   .     A
C853   O893    1.297   .     A
C853   C874    1.431   .     S
C854   C856    1.466   .     S
C854   O898    1.308   .     A
C854   O900    1.303   .     A
C855   C859    1.399   .     A
C855   C861    1.400   .     A
C855   C876    1.468   .     S
C856   C860    1.398   .     A
C856   C862    1.398   .     A
C857   C866    1.404   .     A
C857   C859    1.392   .     A
C858   C860    1.392   .     A
C858   C867    1.405   .     A
C858   H789    1.084   1_655 S
C859   H887    1.083   .     S
C860   H886    1.083   .     S
C861   C863    1.405   .     A
C861   H885    1.075   .     S
C862   C865    1.405   .     A
C862   H884    1.075   .     S
C863   C868    1.428   .     A
C863   C866    1.418   .     A
C864   O896    1.297   .     A
C864   C875    1.431   .     S
C864   O894    1.297   .     A
C865   C869    1.428   .     A
C865   C867    1.418   .     A
C866   C422    1.389   1_556 S
C868   C871    1.417   .     A
C868   C419    1.425   1_556 S
C869   C870    1.417   .     A
C870   C872    1.386   .     A
C870   H890    1.076   .     S
C871   C873    1.386   .     A
C871   H880    1.076   .     S
C872   H879    1.085   .     S
C873   H883    1.085   .     S
C873   C417    1.389   1_556 S
C874   C575    1.333   1_565 S
C874   H581    1.087   1_565 S
C876   O897    1.308   .     A
C876   O899    1.304   .     A
Cu877  O900    1.926   .     S
Cu877  N892    2.038   .     S
Cu877  O896    1.951   .     S
Cu877  O893    1.951   .     S
Cu877  O897    1.943   .     S
Cu877  Cu878   2.712   .     S
Cu878  O895    1.951   .     S
Cu878  N891    2.038   .     S
Cu878  O898    1.943   .     S
Cu878  O894    1.951   .     S
Cu878  O899    1.926   .     S
H882   C575    1.087   1_565 S
H888   C757    1.084   1_655 S
N891   Br751   1.881   1_655 S
N891   N792    1.285   1_655 S
