data_str_m2_o1_o2_pcu_sym.76
_audit_creation_date              2020-01-03
_audit_creation_method            'Materials Studio'
_symmetry_space_group_name_H-M    'P1'
_symmetry_Int_Tables_number       1
_symmetry_cell_setting            triclinic
loop_
_symmetry_equiv_pos_as_xyz
  x,y,z
_cell_length_a                    32.4933
_cell_length_b                    28.9034
_cell_length_c                    30.1759
_cell_angle_alpha                 89.9988
_cell_angle_beta                  92.5116
_cell_angle_gamma                 89.9994
loop_
_atom_site_label
_atom_site_type_symbol
_atom_site_fract_x
_atom_site_fract_y
_atom_site_fract_z
_atom_site_U_iso_or_equiv
_atom_site_adp_type
_atom_site_occupancy
C1     C     0.08746   0.16667   0.24988   0.00000  Uiso   1.00
C2     C     0.31204   0.20870   0.25008   0.00000  Uiso   1.00
C3     C     0.31204   0.12463   0.25005   0.00000  Uiso   1.00
C4     C     0.02129   0.20870   0.24995   0.00000  Uiso   1.00
C5     C     0.18923   0.20057   0.04874   0.00000  Uiso   1.00
C6     C     0.18934   0.13317   0.45354   0.00000  Uiso   1.00
C7     C     0.14418   0.20063   0.45127   0.00000  Uiso   1.00
C8     C     0.14393   0.13323   0.04646   0.00000  Uiso   1.00
C9     C     0.18858   0.20070   0.09484   0.00000  Uiso   1.00
C10    C     0.18878   0.13289   0.40740   0.00000  Uiso   1.00
C11    C     0.14482   0.20076   0.40517   0.00000  Uiso   1.00
C12    C     0.24587   0.16667   0.25012   0.00000  Uiso   1.00
C13    C     0.14449   0.13295   0.09260   0.00000  Uiso   1.00
C14    C     0.16655   0.16675   0.11684   0.00000  Uiso   1.00
C15    C     0.16679   0.16675   0.38316   0.00000  Uiso   1.00
C16    C     0.16662   0.16693   0.02429   0.00000  Uiso   1.00
C17    C     0.16673   0.16693   0.47572   0.00000  Uiso   1.00
C18    C     0.29055   0.16667   0.25011   0.00000  Uiso   1.00
C19    C     0.04279   0.16667   0.24989   0.00000  Uiso   1.00
C20    C     0.16655   0.16668   0.16511   0.00000  Uiso   1.00
C21    C     0.16679   0.16668   0.33489   0.00000  Uiso   1.00
C22    C     0.14650   0.02444   0.21666   0.00000  Uiso   1.00
C23    C     0.18680   0.30887   0.28336   0.00000  Uiso   1.00
C24    C     0.18683   0.02444   0.28334   0.00000  Uiso   1.00
C25    C     0.14654   0.30887   0.21664   0.00000  Uiso   1.00
C26    C     0.02129   0.12463   0.24992   0.00000  Uiso   1.00
Cl27   Cl    0.21929   0.24246   0.02268   0.00000  Uiso   1.00
Cl28   Cl    0.21926   0.09128   0.48262   0.00000  Uiso   1.00
Cl29   Cl    0.11422   0.24261   0.47734   0.00000  Uiso   1.00
Cl30   Cl    0.11393   0.09142   0.01737   0.00000  Uiso   1.00
Cu31   Cu    0.16667   0.21355   0.25000   0.00000  Uiso   1.00
Cu32   Cu    0.16667   0.11978   0.25000   0.00000  Uiso   1.00
H33    H     0.20599   0.22669   0.11353   0.00000  Uiso   1.00
H34    H     0.22090   0.25939   0.30622   0.00000  Uiso   1.00
H35    H     0.22093   0.07396   0.30613   0.00000  Uiso   1.00
H36    H     0.11243   0.25940   0.19378   0.00000  Uiso   1.00
H37    H     0.20623   0.10686   0.39050   0.00000  Uiso   1.00
H38    H     0.12746   0.22679   0.38648   0.00000  Uiso   1.00
H39    H     0.12699   0.10696   0.10950   0.00000  Uiso   1.00
H40    H     0.03728   0.09175   0.24985   0.00000  Uiso   1.00
H41    H     0.29605   0.24159   0.25014   0.00000  Uiso   1.00
H42    H     0.29605   0.09175   0.25010   0.00000  Uiso   1.00
H43    H     0.03728   0.24159   0.24991   0.00000  Uiso   1.00
H44    H     0.11241   0.07397   0.19387   0.00000  Uiso   1.00
N45    N     0.16667   0.28402   0.25000   0.00000  Uiso   1.00
N46    N     0.16667   0.04931   0.25000   0.00000  Uiso   1.00
O47    O     0.10655   0.20625   0.25000   0.00000  Uiso   1.00
O48    O     0.20843   0.28760   0.31783   0.00000  Uiso   1.00
O49    O     0.20860   0.04567   0.31772   0.00000  Uiso   1.00
O50    O     0.12491   0.28761   0.18217   0.00000  Uiso   1.00
O51    O     0.22679   0.12709   0.25001   0.00000  Uiso   1.00
O52    O     0.22679   0.20625   0.25001   0.00000  Uiso   1.00
O53    O     0.10655   0.12709   0.25000   0.00000  Uiso   1.00
O54    O     0.16666   0.20626   0.18573   0.00000  Uiso   1.00
O55    O     0.16667   0.12707   0.31427   0.00000  Uiso   1.00
O56    O     0.16667   0.20626   0.31427   0.00000  Uiso   1.00
O57    O     0.16666   0.12707   0.18573   0.00000  Uiso   1.00
O58    O     0.12473   0.04567   0.18228   0.00000  Uiso   1.00
C59    C     0.42080   0.16667   0.24988   0.00000  Uiso   1.00
C60    C     0.64537   0.20870   0.25008   0.00000  Uiso   1.00
C61    C     0.64537   0.12463   0.25005   0.00000  Uiso   1.00
C62    C     0.35463   0.20870   0.24995   0.00000  Uiso   1.00
C63    C     0.52256   0.20057   0.04874   0.00000  Uiso   1.00
C64    C     0.52268   0.13317   0.45354   0.00000  Uiso   1.00
C65    C     0.47752   0.20063   0.45127   0.00000  Uiso   1.00
C66    C     0.47726   0.13323   0.04646   0.00000  Uiso   1.00
C67    C     0.52192   0.20070   0.09484   0.00000  Uiso   1.00
C68    C     0.52212   0.13289   0.40740   0.00000  Uiso   1.00
C69    C     0.47815   0.20076   0.40517   0.00000  Uiso   1.00
C70    C     0.57920   0.16667   0.25012   0.00000  Uiso   1.00
C71    C     0.47782   0.13295   0.09260   0.00000  Uiso   1.00
C72    C     0.49988   0.16675   0.11684   0.00000  Uiso   1.00
C73    C     0.50012   0.16675   0.38316   0.00000  Uiso   1.00
C74    C     0.49995   0.16693   0.02429   0.00000  Uiso   1.00
C75    C     0.50006   0.16693   0.47572   0.00000  Uiso   1.00
C76    C     0.62388   0.16667   0.25011   0.00000  Uiso   1.00
C77    C     0.37612   0.16667   0.24989   0.00000  Uiso   1.00
C78    C     0.49988   0.16668   0.16511   0.00000  Uiso   1.00
C79    C     0.50012   0.16668   0.33489   0.00000  Uiso   1.00
C80    C     0.47983   0.02444   0.21666   0.00000  Uiso   1.00
C81    C     0.52013   0.30887   0.28336   0.00000  Uiso   1.00
C82    C     0.52017   0.02444   0.28334   0.00000  Uiso   1.00
C83    C     0.47987   0.30887   0.21664   0.00000  Uiso   1.00
C84    C     0.35463   0.12463   0.24992   0.00000  Uiso   1.00
Cl85   Cl    0.55262   0.24246   0.02268   0.00000  Uiso   1.00
Cl86   Cl    0.55259   0.09128   0.48262   0.00000  Uiso   1.00
Cl87   Cl    0.44755   0.24261   0.47734   0.00000  Uiso   1.00
Cl88   Cl    0.44727   0.09142   0.01737   0.00000  Uiso   1.00
Cu89   Cu    0.50000   0.21355   0.25000   0.00000  Uiso   1.00
Cu90   Cu    0.50000   0.11978   0.25000   0.00000  Uiso   1.00
H91    H     0.53932   0.22669   0.11353   0.00000  Uiso   1.00
H92    H     0.55423   0.25939   0.30622   0.00000  Uiso   1.00
H93    H     0.55426   0.07396   0.30613   0.00000  Uiso   1.00
H94    H     0.44576   0.25940   0.19378   0.00000  Uiso   1.00
H95    H     0.53956   0.10686   0.39050   0.00000  Uiso   1.00
H96    H     0.46079   0.22679   0.38648   0.00000  Uiso   1.00
H97    H     0.46032   0.10696   0.10950   0.00000  Uiso   1.00
H98    H     0.37061   0.09175   0.24985   0.00000  Uiso   1.00
H99    H     0.62939   0.24159   0.25014   0.00000  Uiso   1.00
H100   H     0.62939   0.09175   0.25010   0.00000  Uiso   1.00
H101   H     0.37061   0.24159   0.24991   0.00000  Uiso   1.00
H102   H     0.44575   0.07397   0.19387   0.00000  Uiso   1.00
N103   N     0.50000   0.28402   0.25000   0.00000  Uiso   1.00
N104   N     0.50000   0.04931   0.25000   0.00000  Uiso   1.00
O105   O     0.43988   0.20625   0.25000   0.00000  Uiso   1.00
O106   O     0.54176   0.28760   0.31783   0.00000  Uiso   1.00
O107   O     0.54193   0.04567   0.31772   0.00000  Uiso   1.00
O108   O     0.45824   0.28761   0.18217   0.00000  Uiso   1.00
O109   O     0.56012   0.12709   0.25001   0.00000  Uiso   1.00
O110   O     0.56012   0.20625   0.25001   0.00000  Uiso   1.00
O111   O     0.43988   0.12709   0.25000   0.00000  Uiso   1.00
O112   O     0.50000   0.20626   0.18573   0.00000  Uiso   1.00
O113   O     0.50000   0.12707   0.31427   0.00000  Uiso   1.00
O114   O     0.50000   0.20626   0.31427   0.00000  Uiso   1.00
O115   O     0.50000   0.12707   0.18573   0.00000  Uiso   1.00
O116   O     0.45807   0.04567   0.18228   0.00000  Uiso   1.00
C117   C     0.75413   0.16667   0.24988   0.00000  Uiso   1.00
C118   C     0.97871   0.20870   0.25008   0.00000  Uiso   1.00
C119   C     0.97871   0.12463   0.25005   0.00000  Uiso   1.00
C120   C     0.68796   0.20870   0.24995   0.00000  Uiso   1.00
C121   C     0.85589   0.20057   0.04874   0.00000  Uiso   1.00
C122   C     0.85601   0.13317   0.45354   0.00000  Uiso   1.00
C123   C     0.81085   0.20063   0.45127   0.00000  Uiso   1.00
C124   C     0.81060   0.13323   0.04646   0.00000  Uiso   1.00
C125   C     0.85525   0.20070   0.09484   0.00000  Uiso   1.00
C126   C     0.85545   0.13289   0.40740   0.00000  Uiso   1.00
C127   C     0.81149   0.20076   0.40517   0.00000  Uiso   1.00
C128   C     0.91254   0.16667   0.25012   0.00000  Uiso   1.00
C129   C     0.81115   0.13295   0.09260   0.00000  Uiso   1.00
C130   C     0.83321   0.16675   0.11684   0.00000  Uiso   1.00
C131   C     0.83345   0.16675   0.38316   0.00000  Uiso   1.00
C132   C     0.83328   0.16693   0.02429   0.00000  Uiso   1.00
C133   C     0.83340   0.16693   0.47572   0.00000  Uiso   1.00
C134   C     0.95721   0.16667   0.25011   0.00000  Uiso   1.00
C135   C     0.70945   0.16667   0.24989   0.00000  Uiso   1.00
C136   C     0.83321   0.16668   0.16511   0.00000  Uiso   1.00
C137   C     0.83345   0.16668   0.33489   0.00000  Uiso   1.00
C138   C     0.81317   0.02444   0.21666   0.00000  Uiso   1.00
C139   C     0.85346   0.30887   0.28336   0.00000  Uiso   1.00
C140   C     0.85350   0.02444   0.28334   0.00000  Uiso   1.00
C141   C     0.81321   0.30887   0.21664   0.00000  Uiso   1.00
C142   C     0.68796   0.12463   0.24992   0.00000  Uiso   1.00
Cl143  Cl    0.88595   0.24246   0.02268   0.00000  Uiso   1.00
Cl144  Cl    0.88592   0.09128   0.48262   0.00000  Uiso   1.00
Cl145  Cl    0.78088   0.24261   0.47734   0.00000  Uiso   1.00
Cl146  Cl    0.78060   0.09142   0.01737   0.00000  Uiso   1.00
Cu147  Cu    0.83333   0.21355   0.25000   0.00000  Uiso   1.00
Cu148  Cu    0.83333   0.11978   0.25000   0.00000  Uiso   1.00
H149   H     0.87265   0.22669   0.11353   0.00000  Uiso   1.00
H150   H     0.88757   0.25939   0.30622   0.00000  Uiso   1.00
H151   H     0.88759   0.07396   0.30613   0.00000  Uiso   1.00
H152   H     0.77910   0.25940   0.19378   0.00000  Uiso   1.00
H153   H     0.87290   0.10686   0.39050   0.00000  Uiso   1.00
H154   H     0.79412   0.22679   0.38648   0.00000  Uiso   1.00
H155   H     0.79365   0.10696   0.10950   0.00000  Uiso   1.00
H156   H     0.70395   0.09175   0.24985   0.00000  Uiso   1.00
H157   H     0.96272   0.24159   0.25014   0.00000  Uiso   1.00
H158   H     0.96272   0.09175   0.25010   0.00000  Uiso   1.00
H159   H     0.70395   0.24159   0.24991   0.00000  Uiso   1.00
H160   H     0.77908   0.07397   0.19387   0.00000  Uiso   1.00
N161   N     0.83333   0.28402   0.25000   0.00000  Uiso   1.00
N162   N     0.83333   0.04931   0.25000   0.00000  Uiso   1.00
O163   O     0.77321   0.20625   0.25000   0.00000  Uiso   1.00
O164   O     0.87509   0.28760   0.31783   0.00000  Uiso   1.00
O165   O     0.87526   0.04567   0.31772   0.00000  Uiso   1.00
O166   O     0.79158   0.28761   0.18217   0.00000  Uiso   1.00
O167   O     0.89345   0.12709   0.25001   0.00000  Uiso   1.00
O168   O     0.89345   0.20625   0.25001   0.00000  Uiso   1.00
O169   O     0.77321   0.12709   0.25000   0.00000  Uiso   1.00
O170   O     0.83333   0.20626   0.18573   0.00000  Uiso   1.00
O171   O     0.83334   0.12707   0.31427   0.00000  Uiso   1.00
O172   O     0.83334   0.20626   0.31427   0.00000  Uiso   1.00
O173   O     0.83333   0.12707   0.18573   0.00000  Uiso   1.00
O174   O     0.79140   0.04567   0.18228   0.00000  Uiso   1.00
C175   C     0.08746   0.50000   0.24988   0.00000  Uiso   1.00
C176   C     0.31204   0.54204   0.25008   0.00000  Uiso   1.00
C177   C     0.31204   0.45796   0.25005   0.00000  Uiso   1.00
C178   C     0.02129   0.54204   0.24995   0.00000  Uiso   1.00
C179   C     0.18923   0.53391   0.04874   0.00000  Uiso   1.00
C180   C     0.18934   0.46651   0.45354   0.00000  Uiso   1.00
C181   C     0.14418   0.53397   0.45127   0.00000  Uiso   1.00
C182   C     0.14393   0.46656   0.04646   0.00000  Uiso   1.00
C183   C     0.18858   0.53403   0.09484   0.00000  Uiso   1.00
C184   C     0.18878   0.46623   0.40740   0.00000  Uiso   1.00
C185   C     0.14482   0.53409   0.40517   0.00000  Uiso   1.00
C186   C     0.24587   0.50000   0.25012   0.00000  Uiso   1.00
C187   C     0.14449   0.46628   0.09260   0.00000  Uiso   1.00
C188   C     0.16655   0.50009   0.11684   0.00000  Uiso   1.00
C189   C     0.16679   0.50008   0.38316   0.00000  Uiso   1.00
C190   C     0.16662   0.50026   0.02429   0.00000  Uiso   1.00
C191   C     0.16673   0.50026   0.47572   0.00000  Uiso   1.00
C192   C     0.29055   0.50000   0.25011   0.00000  Uiso   1.00
C193   C     0.04279   0.50000   0.24989   0.00000  Uiso   1.00
C194   C     0.16655   0.50001   0.16511   0.00000  Uiso   1.00
C195   C     0.16679   0.50001   0.33489   0.00000  Uiso   1.00
C196   C     0.14650   0.35777   0.21666   0.00000  Uiso   1.00
C197   C     0.18680   0.64221   0.28336   0.00000  Uiso   1.00
C198   C     0.18683   0.35777   0.28334   0.00000  Uiso   1.00
C199   C     0.14654   0.64221   0.21664   0.00000  Uiso   1.00
C200   C     0.02129   0.45797   0.24992   0.00000  Uiso   1.00
Cl201  Cl    0.21929   0.57580   0.02268   0.00000  Uiso   1.00
Cl202  Cl    0.21926   0.42461   0.48262   0.00000  Uiso   1.00
Cl203  Cl    0.11422   0.57594   0.47734   0.00000  Uiso   1.00
Cl204  Cl    0.11393   0.42475   0.01737   0.00000  Uiso   1.00
Cu205  Cu    0.16667   0.54689   0.25000   0.00000  Uiso   1.00
Cu206  Cu    0.16667   0.45311   0.25000   0.00000  Uiso   1.00
H207   H     0.20599   0.56002   0.11353   0.00000  Uiso   1.00
H208   H     0.22090   0.59273   0.30622   0.00000  Uiso   1.00
H209   H     0.22093   0.40730   0.30613   0.00000  Uiso   1.00
H210   H     0.11243   0.59273   0.19378   0.00000  Uiso   1.00
H211   H     0.20623   0.44019   0.39050   0.00000  Uiso   1.00
H212   H     0.12746   0.56012   0.38648   0.00000  Uiso   1.00
H213   H     0.12699   0.44029   0.10950   0.00000  Uiso   1.00
H214   H     0.03728   0.42508   0.24985   0.00000  Uiso   1.00
H215   H     0.29605   0.57492   0.25014   0.00000  Uiso   1.00
H216   H     0.29605   0.42508   0.25010   0.00000  Uiso   1.00
H217   H     0.03728   0.57492   0.24991   0.00000  Uiso   1.00
H218   H     0.11241   0.40730   0.19387   0.00000  Uiso   1.00
N219   N     0.16667   0.61736   0.25000   0.00000  Uiso   1.00
N220   N     0.16667   0.38264   0.25000   0.00000  Uiso   1.00
O221   O     0.10655   0.53958   0.25000   0.00000  Uiso   1.00
O222   O     0.20843   0.62094   0.31783   0.00000  Uiso   1.00
O223   O     0.20860   0.37900   0.31772   0.00000  Uiso   1.00
O224   O     0.12491   0.62094   0.18217   0.00000  Uiso   1.00
O225   O     0.22679   0.46042   0.25001   0.00000  Uiso   1.00
O226   O     0.22679   0.53958   0.25001   0.00000  Uiso   1.00
O227   O     0.10655   0.46042   0.25000   0.00000  Uiso   1.00
O228   O     0.16666   0.53959   0.18573   0.00000  Uiso   1.00
O229   O     0.16667   0.46041   0.31427   0.00000  Uiso   1.00
O230   O     0.16667   0.53959   0.31427   0.00000  Uiso   1.00
O231   O     0.16666   0.46041   0.18573   0.00000  Uiso   1.00
O232   O     0.12473   0.37900   0.18228   0.00000  Uiso   1.00
C233   C     0.42080   0.50000   0.24988   0.00000  Uiso   1.00
C234   C     0.64537   0.54204   0.25008   0.00000  Uiso   1.00
C235   C     0.64537   0.45796   0.25005   0.00000  Uiso   1.00
C236   C     0.35463   0.54204   0.24995   0.00000  Uiso   1.00
C237   C     0.52256   0.53391   0.04874   0.00000  Uiso   1.00
C238   C     0.52268   0.46651   0.45354   0.00000  Uiso   1.00
C239   C     0.47752   0.53397   0.45127   0.00000  Uiso   1.00
C240   C     0.47726   0.46656   0.04646   0.00000  Uiso   1.00
C241   C     0.52192   0.53403   0.09484   0.00000  Uiso   1.00
C242   C     0.52212   0.46623   0.40740   0.00000  Uiso   1.00
C243   C     0.47815   0.53409   0.40517   0.00000  Uiso   1.00
C244   C     0.57920   0.50000   0.25012   0.00000  Uiso   1.00
C245   C     0.47782   0.46628   0.09260   0.00000  Uiso   1.00
C246   C     0.49988   0.50009   0.11684   0.00000  Uiso   1.00
C247   C     0.50012   0.50008   0.38316   0.00000  Uiso   1.00
C248   C     0.49995   0.50026   0.02429   0.00000  Uiso   1.00
C249   C     0.50006   0.50026   0.47572   0.00000  Uiso   1.00
C250   C     0.62388   0.50000   0.25011   0.00000  Uiso   1.00
C251   C     0.37612   0.50000   0.24989   0.00000  Uiso   1.00
C252   C     0.49988   0.50001   0.16511   0.00000  Uiso   1.00
C253   C     0.50012   0.50001   0.33489   0.00000  Uiso   1.00
C254   C     0.47983   0.35777   0.21666   0.00000  Uiso   1.00
C255   C     0.52013   0.64221   0.28336   0.00000  Uiso   1.00
C256   C     0.52017   0.35777   0.28334   0.00000  Uiso   1.00
C257   C     0.47987   0.64221   0.21664   0.00000  Uiso   1.00
C258   C     0.35463   0.45797   0.24992   0.00000  Uiso   1.00
Cl259  Cl    0.55262   0.57580   0.02268   0.00000  Uiso   1.00
Cl260  Cl    0.55259   0.42461   0.48262   0.00000  Uiso   1.00
Cl261  Cl    0.44755   0.57594   0.47734   0.00000  Uiso   1.00
Cl262  Cl    0.44727   0.42475   0.01737   0.00000  Uiso   1.00
Cu263  Cu    0.50000   0.54689   0.25000   0.00000  Uiso   1.00
Cu264  Cu    0.50000   0.45311   0.25000   0.00000  Uiso   1.00
H265   H     0.53932   0.56002   0.11353   0.00000  Uiso   1.00
H266   H     0.55423   0.59273   0.30622   0.00000  Uiso   1.00
H267   H     0.55426   0.40730   0.30613   0.00000  Uiso   1.00
H268   H     0.44576   0.59273   0.19378   0.00000  Uiso   1.00
H269   H     0.53956   0.44019   0.39050   0.00000  Uiso   1.00
H270   H     0.46079   0.56012   0.38648   0.00000  Uiso   1.00
H271   H     0.46032   0.44029   0.10950   0.00000  Uiso   1.00
H272   H     0.37061   0.42508   0.24985   0.00000  Uiso   1.00
H273   H     0.62939   0.57492   0.25014   0.00000  Uiso   1.00
H274   H     0.62939   0.42508   0.25010   0.00000  Uiso   1.00
H275   H     0.37061   0.57492   0.24991   0.00000  Uiso   1.00
H276   H     0.44575   0.40730   0.19387   0.00000  Uiso   1.00
N277   N     0.50000   0.61736   0.25000   0.00000  Uiso   1.00
N278   N     0.50000   0.38264   0.25000   0.00000  Uiso   1.00
O279   O     0.43988   0.53958   0.25000   0.00000  Uiso   1.00
O280   O     0.54176   0.62094   0.31783   0.00000  Uiso   1.00
O281   O     0.54193   0.37900   0.31772   0.00000  Uiso   1.00
O282   O     0.45824   0.62094   0.18217   0.00000  Uiso   1.00
O283   O     0.56012   0.46042   0.25001   0.00000  Uiso   1.00
O284   O     0.56012   0.53958   0.25001   0.00000  Uiso   1.00
O285   O     0.43988   0.46042   0.25000   0.00000  Uiso   1.00
O286   O     0.50000   0.53959   0.18573   0.00000  Uiso   1.00
O287   O     0.50000   0.46041   0.31427   0.00000  Uiso   1.00
O288   O     0.50000   0.53959   0.31427   0.00000  Uiso   1.00
O289   O     0.50000   0.46041   0.18573   0.00000  Uiso   1.00
O290   O     0.45807   0.37900   0.18228   0.00000  Uiso   1.00
C291   C     0.75413   0.50000   0.24988   0.00000  Uiso   1.00
C292   C     0.97871   0.54204   0.25008   0.00000  Uiso   1.00
C293   C     0.97871   0.45796   0.25005   0.00000  Uiso   1.00
C294   C     0.68796   0.54204   0.24995   0.00000  Uiso   1.00
C295   C     0.85589   0.53391   0.04874   0.00000  Uiso   1.00
C296   C     0.85601   0.46651   0.45354   0.00000  Uiso   1.00
C297   C     0.81085   0.53397   0.45127   0.00000  Uiso   1.00
C298   C     0.81060   0.46656   0.04646   0.00000  Uiso   1.00
C299   C     0.85525   0.53403   0.09484   0.00000  Uiso   1.00
C300   C     0.85545   0.46623   0.40740   0.00000  Uiso   1.00
C301   C     0.81149   0.53409   0.40517   0.00000  Uiso   1.00
C302   C     0.91254   0.50000   0.25012   0.00000  Uiso   1.00
C303   C     0.81115   0.46628   0.09260   0.00000  Uiso   1.00
C304   C     0.83321   0.50009   0.11684   0.00000  Uiso   1.00
C305   C     0.83345   0.50008   0.38316   0.00000  Uiso   1.00
C306   C     0.83328   0.50026   0.02429   0.00000  Uiso   1.00
C307   C     0.83340   0.50026   0.47572   0.00000  Uiso   1.00
C308   C     0.95721   0.50000   0.25011   0.00000  Uiso   1.00
C309   C     0.70945   0.50000   0.24989   0.00000  Uiso   1.00
C310   C     0.83321   0.50001   0.16511   0.00000  Uiso   1.00
C311   C     0.83345   0.50001   0.33489   0.00000  Uiso   1.00
C312   C     0.81317   0.35777   0.21666   0.00000  Uiso   1.00
C313   C     0.85346   0.64221   0.28336   0.00000  Uiso   1.00
C314   C     0.85350   0.35777   0.28334   0.00000  Uiso   1.00
C315   C     0.81321   0.64221   0.21664   0.00000  Uiso   1.00
C316   C     0.68796   0.45797   0.24992   0.00000  Uiso   1.00
Cl317  Cl    0.88595   0.57580   0.02268   0.00000  Uiso   1.00
Cl318  Cl    0.88592   0.42461   0.48262   0.00000  Uiso   1.00
Cl319  Cl    0.78088   0.57594   0.47734   0.00000  Uiso   1.00
Cl320  Cl    0.78060   0.42475   0.01737   0.00000  Uiso   1.00
Cu321  Cu    0.83333   0.54689   0.25000   0.00000  Uiso   1.00
Cu322  Cu    0.83333   0.45311   0.25000   0.00000  Uiso   1.00
H323   H     0.87265   0.56002   0.11353   0.00000  Uiso   1.00
H324   H     0.88757   0.59273   0.30622   0.00000  Uiso   1.00
H325   H     0.88759   0.40730   0.30613   0.00000  Uiso   1.00
H326   H     0.77910   0.59273   0.19378   0.00000  Uiso   1.00
H327   H     0.87290   0.44019   0.39050   0.00000  Uiso   1.00
H328   H     0.79412   0.56012   0.38648   0.00000  Uiso   1.00
H329   H     0.79365   0.44029   0.10950   0.00000  Uiso   1.00
H330   H     0.70395   0.42508   0.24985   0.00000  Uiso   1.00
H331   H     0.96272   0.57492   0.25014   0.00000  Uiso   1.00
H332   H     0.96272   0.42508   0.25010   0.00000  Uiso   1.00
H333   H     0.70395   0.57492   0.24991   0.00000  Uiso   1.00
H334   H     0.77908   0.40730   0.19387   0.00000  Uiso   1.00
N335   N     0.83333   0.61736   0.25000   0.00000  Uiso   1.00
N336   N     0.83333   0.38264   0.25000   0.00000  Uiso   1.00
O337   O     0.77321   0.53958   0.25000   0.00000  Uiso   1.00
O338   O     0.87509   0.62094   0.31783   0.00000  Uiso   1.00
O339   O     0.87526   0.37900   0.31772   0.00000  Uiso   1.00
O340   O     0.79158   0.62094   0.18217   0.00000  Uiso   1.00
O341   O     0.89345   0.46042   0.25001   0.00000  Uiso   1.00
O342   O     0.89345   0.53958   0.25001   0.00000  Uiso   1.00
O343   O     0.77321   0.46042   0.25000   0.00000  Uiso   1.00
O344   O     0.83333   0.53959   0.18573   0.00000  Uiso   1.00
O345   O     0.83334   0.46041   0.31427   0.00000  Uiso   1.00
O346   O     0.83334   0.53959   0.31427   0.00000  Uiso   1.00
O347   O     0.83333   0.46041   0.18573   0.00000  Uiso   1.00
O348   O     0.79140   0.37900   0.18228   0.00000  Uiso   1.00
C349   C     0.08746   0.83333   0.24988   0.00000  Uiso   1.00
C350   C     0.31204   0.87537   0.25008   0.00000  Uiso   1.00
C351   C     0.31204   0.79130   0.25005   0.00000  Uiso   1.00
C352   C     0.02129   0.87537   0.24995   0.00000  Uiso   1.00
C353   C     0.18923   0.86724   0.04874   0.00000  Uiso   1.00
C354   C     0.18934   0.79984   0.45354   0.00000  Uiso   1.00
C355   C     0.14418   0.86730   0.45127   0.00000  Uiso   1.00
C356   C     0.14393   0.79990   0.04646   0.00000  Uiso   1.00
C357   C     0.18858   0.86737   0.09484   0.00000  Uiso   1.00
C358   C     0.18878   0.79956   0.40740   0.00000  Uiso   1.00
C359   C     0.14482   0.86742   0.40517   0.00000  Uiso   1.00
C360   C     0.24587   0.83333   0.25012   0.00000  Uiso   1.00
C361   C     0.14449   0.79962   0.09260   0.00000  Uiso   1.00
C362   C     0.16655   0.83342   0.11684   0.00000  Uiso   1.00
C363   C     0.16679   0.83342   0.38316   0.00000  Uiso   1.00
C364   C     0.16662   0.83359   0.02429   0.00000  Uiso   1.00
C365   C     0.16673   0.83360   0.47572   0.00000  Uiso   1.00
C366   C     0.29055   0.83333   0.25011   0.00000  Uiso   1.00
C367   C     0.04279   0.83333   0.24989   0.00000  Uiso   1.00
C368   C     0.16655   0.83334   0.16511   0.00000  Uiso   1.00
C369   C     0.16679   0.83334   0.33489   0.00000  Uiso   1.00
C370   C     0.14650   0.69111   0.21666   0.00000  Uiso   1.00
C371   C     0.18680   0.97554   0.28336   0.00000  Uiso   1.00
C372   C     0.18683   0.69111   0.28334   0.00000  Uiso   1.00
C373   C     0.14654   0.97554   0.21664   0.00000  Uiso   1.00
C374   C     0.02129   0.79130   0.24992   0.00000  Uiso   1.00
Cl375  Cl    0.21929   0.90913   0.02268   0.00000  Uiso   1.00
Cl376  Cl    0.21926   0.75795   0.48262   0.00000  Uiso   1.00
Cl377  Cl    0.11422   0.90928   0.47734   0.00000  Uiso   1.00
Cl378  Cl    0.11393   0.75809   0.01737   0.00000  Uiso   1.00
Cu379  Cu    0.16667   0.88022   0.25000   0.00000  Uiso   1.00
Cu380  Cu    0.16667   0.78645   0.25000   0.00000  Uiso   1.00
H381   H     0.20599   0.89336   0.11353   0.00000  Uiso   1.00
H382   H     0.22090   0.92606   0.30622   0.00000  Uiso   1.00
H383   H     0.22093   0.74063   0.30613   0.00000  Uiso   1.00
H384   H     0.11243   0.92607   0.19378   0.00000  Uiso   1.00
H385   H     0.20623   0.77352   0.39050   0.00000  Uiso   1.00
H386   H     0.12746   0.89346   0.38648   0.00000  Uiso   1.00
H387   H     0.12699   0.77363   0.10950   0.00000  Uiso   1.00
H388   H     0.03728   0.75841   0.24985   0.00000  Uiso   1.00
H389   H     0.29605   0.90825   0.25014   0.00000  Uiso   1.00
H390   H     0.29605   0.75841   0.25010   0.00000  Uiso   1.00
H391   H     0.03728   0.90826   0.24991   0.00000  Uiso   1.00
H392   H     0.11241   0.74064   0.19387   0.00000  Uiso   1.00
N393   N     0.16667   0.95069   0.25000   0.00000  Uiso   1.00
N394   N     0.16667   0.71598   0.25000   0.00000  Uiso   1.00
O395   O     0.10655   0.87291   0.25000   0.00000  Uiso   1.00
O396   O     0.20843   0.95427   0.31783   0.00000  Uiso   1.00
O397   O     0.20860   0.71233   0.31772   0.00000  Uiso   1.00
O398   O     0.12491   0.95427   0.18217   0.00000  Uiso   1.00
O399   O     0.22679   0.79375   0.25001   0.00000  Uiso   1.00
O400   O     0.22679   0.87291   0.25001   0.00000  Uiso   1.00
O401   O     0.10655   0.79375   0.25000   0.00000  Uiso   1.00
O402   O     0.16666   0.87293   0.18573   0.00000  Uiso   1.00
O403   O     0.16667   0.79374   0.31427   0.00000  Uiso   1.00
O404   O     0.16667   0.87293   0.31427   0.00000  Uiso   1.00
O405   O     0.16666   0.79374   0.18573   0.00000  Uiso   1.00
O406   O     0.12473   0.71234   0.18228   0.00000  Uiso   1.00
C407   C     0.42080   0.83333   0.24988   0.00000  Uiso   1.00
C408   C     0.64537   0.87537   0.25008   0.00000  Uiso   1.00
C409   C     0.64537   0.79130   0.25005   0.00000  Uiso   1.00
C410   C     0.35463   0.87537   0.24995   0.00000  Uiso   1.00
C411   C     0.52256   0.86724   0.04874   0.00000  Uiso   1.00
C412   C     0.52268   0.79984   0.45354   0.00000  Uiso   1.00
C413   C     0.47752   0.86730   0.45127   0.00000  Uiso   1.00
C414   C     0.47726   0.79990   0.04646   0.00000  Uiso   1.00
C415   C     0.52192   0.86737   0.09484   0.00000  Uiso   1.00
C416   C     0.52212   0.79956   0.40740   0.00000  Uiso   1.00
C417   C     0.47815   0.86742   0.40517   0.00000  Uiso   1.00
C418   C     0.57920   0.83333   0.25012   0.00000  Uiso   1.00
C419   C     0.47782   0.79962   0.09260   0.00000  Uiso   1.00
C420   C     0.49988   0.83342   0.11684   0.00000  Uiso   1.00
C421   C     0.50012   0.83342   0.38316   0.00000  Uiso   1.00
C422   C     0.49995   0.83359   0.02429   0.00000  Uiso   1.00
C423   C     0.50006   0.83360   0.47572   0.00000  Uiso   1.00
C424   C     0.62388   0.83333   0.25011   0.00000  Uiso   1.00
C425   C     0.37612   0.83333   0.24989   0.00000  Uiso   1.00
C426   C     0.49988   0.83334   0.16511   0.00000  Uiso   1.00
C427   C     0.50012   0.83334   0.33489   0.00000  Uiso   1.00
C428   C     0.47983   0.69111   0.21666   0.00000  Uiso   1.00
C429   C     0.52013   0.97554   0.28336   0.00000  Uiso   1.00
C430   C     0.52017   0.69111   0.28334   0.00000  Uiso   1.00
C431   C     0.47987   0.97554   0.21664   0.00000  Uiso   1.00
C432   C     0.35463   0.79130   0.24992   0.00000  Uiso   1.00
Cl433  Cl    0.55262   0.90913   0.02268   0.00000  Uiso   1.00
Cl434  Cl    0.55259   0.75795   0.48262   0.00000  Uiso   1.00
Cl435  Cl    0.44755   0.90928   0.47734   0.00000  Uiso   1.00
Cl436  Cl    0.44727   0.75809   0.01737   0.00000  Uiso   1.00
Cu437  Cu    0.50000   0.88022   0.25000   0.00000  Uiso   1.00
Cu438  Cu    0.50000   0.78645   0.25000   0.00000  Uiso   1.00
H439   H     0.53932   0.89336   0.11353   0.00000  Uiso   1.00
H440   H     0.55423   0.92606   0.30622   0.00000  Uiso   1.00
H441   H     0.55426   0.74063   0.30613   0.00000  Uiso   1.00
H442   H     0.44576   0.92607   0.19378   0.00000  Uiso   1.00
H443   H     0.53956   0.77352   0.39050   0.00000  Uiso   1.00
H444   H     0.46079   0.89346   0.38648   0.00000  Uiso   1.00
H445   H     0.46032   0.77363   0.10950   0.00000  Uiso   1.00
H446   H     0.37061   0.75841   0.24985   0.00000  Uiso   1.00
H447   H     0.62939   0.90825   0.25014   0.00000  Uiso   1.00
H448   H     0.62939   0.75841   0.25010   0.00000  Uiso   1.00
H449   H     0.37061   0.90826   0.24991   0.00000  Uiso   1.00
H450   H     0.44575   0.74064   0.19387   0.00000  Uiso   1.00
N451   N     0.50000   0.95069   0.25000   0.00000  Uiso   1.00
N452   N     0.50000   0.71598   0.25000   0.00000  Uiso   1.00
O453   O     0.43988   0.87291   0.25000   0.00000  Uiso   1.00
O454   O     0.54176   0.95427   0.31783   0.00000  Uiso   1.00
O455   O     0.54193   0.71233   0.31772   0.00000  Uiso   1.00
O456   O     0.45824   0.95427   0.18217   0.00000  Uiso   1.00
O457   O     0.56012   0.79375   0.25001   0.00000  Uiso   1.00
O458   O     0.56012   0.87291   0.25001   0.00000  Uiso   1.00
O459   O     0.43988   0.79375   0.25000   0.00000  Uiso   1.00
O460   O     0.50000   0.87293   0.18573   0.00000  Uiso   1.00
O461   O     0.50000   0.79374   0.31427   0.00000  Uiso   1.00
O462   O     0.50000   0.87293   0.31427   0.00000  Uiso   1.00
O463   O     0.50000   0.79374   0.18573   0.00000  Uiso   1.00
O464   O     0.45807   0.71234   0.18228   0.00000  Uiso   1.00
C465   C     0.75413   0.83333   0.24988   0.00000  Uiso   1.00
C466   C     0.97871   0.87537   0.25008   0.00000  Uiso   1.00
C467   C     0.97871   0.79130   0.25005   0.00000  Uiso   1.00
C468   C     0.68796   0.87537   0.24995   0.00000  Uiso   1.00
C469   C     0.85589   0.86724   0.04874   0.00000  Uiso   1.00
C470   C     0.85601   0.79984   0.45354   0.00000  Uiso   1.00
C471   C     0.81085   0.86730   0.45127   0.00000  Uiso   1.00
C472   C     0.81060   0.79990   0.04646   0.00000  Uiso   1.00
C473   C     0.85525   0.86737   0.09484   0.00000  Uiso   1.00
C474   C     0.85545   0.79956   0.40740   0.00000  Uiso   1.00
C475   C     0.81149   0.86742   0.40517   0.00000  Uiso   1.00
C476   C     0.91254   0.83333   0.25012   0.00000  Uiso   1.00
C477   C     0.81115   0.79962   0.09260   0.00000  Uiso   1.00
C478   C     0.83321   0.83342   0.11684   0.00000  Uiso   1.00
C479   C     0.83345   0.83342   0.38316   0.00000  Uiso   1.00
C480   C     0.83328   0.83359   0.02429   0.00000  Uiso   1.00
C481   C     0.83340   0.83360   0.47572   0.00000  Uiso   1.00
C482   C     0.95721   0.83333   0.25011   0.00000  Uiso   1.00
C483   C     0.70945   0.83333   0.24989   0.00000  Uiso   1.00
C484   C     0.83321   0.83334   0.16511   0.00000  Uiso   1.00
C485   C     0.83345   0.83334   0.33489   0.00000  Uiso   1.00
C486   C     0.81317   0.69111   0.21666   0.00000  Uiso   1.00
C487   C     0.85346   0.97554   0.28336   0.00000  Uiso   1.00
C488   C     0.85350   0.69111   0.28334   0.00000  Uiso   1.00
C489   C     0.81321   0.97554   0.21664   0.00000  Uiso   1.00
C490   C     0.68796   0.79130   0.24992   0.00000  Uiso   1.00
Cl491  Cl    0.88595   0.90913   0.02268   0.00000  Uiso   1.00
Cl492  Cl    0.88592   0.75795   0.48262   0.00000  Uiso   1.00
Cl493  Cl    0.78088   0.90928   0.47734   0.00000  Uiso   1.00
Cl494  Cl    0.78060   0.75809   0.01737   0.00000  Uiso   1.00
Cu495  Cu    0.83333   0.88022   0.25000   0.00000  Uiso   1.00
Cu496  Cu    0.83333   0.78645   0.25000   0.00000  Uiso   1.00
H497   H     0.87265   0.89336   0.11353   0.00000  Uiso   1.00
H498   H     0.88757   0.92606   0.30622   0.00000  Uiso   1.00
H499   H     0.88759   0.74063   0.30613   0.00000  Uiso   1.00
H500   H     0.77910   0.92607   0.19378   0.00000  Uiso   1.00
H501   H     0.87290   0.77352   0.39050   0.00000  Uiso   1.00
H502   H     0.79412   0.89346   0.38648   0.00000  Uiso   1.00
H503   H     0.79365   0.77363   0.10950   0.00000  Uiso   1.00
H504   H     0.70395   0.75841   0.24985   0.00000  Uiso   1.00
H505   H     0.96272   0.90825   0.25014   0.00000  Uiso   1.00
H506   H     0.96272   0.75841   0.25010   0.00000  Uiso   1.00
H507   H     0.70395   0.90826   0.24991   0.00000  Uiso   1.00
H508   H     0.77908   0.74064   0.19387   0.00000  Uiso   1.00
N509   N     0.83333   0.95069   0.25000   0.00000  Uiso   1.00
N510   N     0.83333   0.71598   0.25000   0.00000  Uiso   1.00
O511   O     0.77321   0.87291   0.25000   0.00000  Uiso   1.00
O512   O     0.87509   0.95427   0.31783   0.00000  Uiso   1.00
O513   O     0.87526   0.71233   0.31772   0.00000  Uiso   1.00
O514   O     0.79158   0.95427   0.18217   0.00000  Uiso   1.00
O515   O     0.89345   0.79375   0.25001   0.00000  Uiso   1.00
O516   O     0.89345   0.87291   0.25001   0.00000  Uiso   1.00
O517   O     0.77321   0.79375   0.25000   0.00000  Uiso   1.00
O518   O     0.83333   0.87293   0.18573   0.00000  Uiso   1.00
O519   O     0.83334   0.79374   0.31427   0.00000  Uiso   1.00
O520   O     0.83334   0.87293   0.31427   0.00000  Uiso   1.00
O521   O     0.83333   0.79374   0.18573   0.00000  Uiso   1.00
O522   O     0.79140   0.71234   0.18228   0.00000  Uiso   1.00
C523   C     0.08746   0.16667   0.74988   0.00000  Uiso   1.00
C524   C     0.31204   0.20870   0.75008   0.00000  Uiso   1.00
C525   C     0.31204   0.12463   0.75005   0.00000  Uiso   1.00
C526   C     0.02129   0.20870   0.74995   0.00000  Uiso   1.00
C527   C     0.18923   0.20057   0.54874   0.00000  Uiso   1.00
C528   C     0.18934   0.13317   0.95354   0.00000  Uiso   1.00
C529   C     0.14418   0.20063   0.95127   0.00000  Uiso   1.00
C530   C     0.14393   0.13323   0.54646   0.00000  Uiso   1.00
C531   C     0.18858   0.20070   0.59484   0.00000  Uiso   1.00
C532   C     0.18878   0.13289   0.90740   0.00000  Uiso   1.00
C533   C     0.14482   0.20076   0.90517   0.00000  Uiso   1.00
C534   C     0.24587   0.16667   0.75012   0.00000  Uiso   1.00
C535   C     0.14449   0.13295   0.59260   0.00000  Uiso   1.00
C536   C     0.16655   0.16675   0.61684   0.00000  Uiso   1.00
C537   C     0.16679   0.16675   0.88316   0.00000  Uiso   1.00
C538   C     0.16662   0.16693   0.52429   0.00000  Uiso   1.00
C539   C     0.16673   0.16693   0.97572   0.00000  Uiso   1.00
C540   C     0.29055   0.16667   0.75011   0.00000  Uiso   1.00
C541   C     0.04279   0.16667   0.74989   0.00000  Uiso   1.00
C542   C     0.16655   0.16668   0.66511   0.00000  Uiso   1.00
C543   C     0.16679   0.16668   0.83489   0.00000  Uiso   1.00
C544   C     0.14650   0.02444   0.71666   0.00000  Uiso   1.00
C545   C     0.18680   0.30887   0.78336   0.00000  Uiso   1.00
C546   C     0.18683   0.02444   0.78334   0.00000  Uiso   1.00
C547   C     0.14654   0.30887   0.71664   0.00000  Uiso   1.00
C548   C     0.02129   0.12463   0.74992   0.00000  Uiso   1.00
Cl549  Cl    0.21929   0.24246   0.52268   0.00000  Uiso   1.00
Cl550  Cl    0.21926   0.09128   0.98262   0.00000  Uiso   1.00
Cl551  Cl    0.11422   0.24261   0.97734   0.00000  Uiso   1.00
Cl552  Cl    0.11393   0.09142   0.51737   0.00000  Uiso   1.00
Cu553  Cu    0.16667   0.21355   0.75000   0.00000  Uiso   1.00
Cu554  Cu    0.16667   0.11978   0.75000   0.00000  Uiso   1.00
H555   H     0.20599   0.22669   0.61353   0.00000  Uiso   1.00
H556   H     0.22090   0.25939   0.80622   0.00000  Uiso   1.00
H557   H     0.22093   0.07396   0.80613   0.00000  Uiso   1.00
H558   H     0.11243   0.25940   0.69378   0.00000  Uiso   1.00
H559   H     0.20623   0.10686   0.89050   0.00000  Uiso   1.00
H560   H     0.12746   0.22679   0.88648   0.00000  Uiso   1.00
H561   H     0.12699   0.10696   0.60950   0.00000  Uiso   1.00
H562   H     0.03728   0.09175   0.74985   0.00000  Uiso   1.00
H563   H     0.29605   0.24159   0.75014   0.00000  Uiso   1.00
H564   H     0.29605   0.09175   0.75010   0.00000  Uiso   1.00
H565   H     0.03728   0.24159   0.74991   0.00000  Uiso   1.00
H566   H     0.11241   0.07397   0.69387   0.00000  Uiso   1.00
N567   N     0.16667   0.28402   0.75000   0.00000  Uiso   1.00
N568   N     0.16667   0.04931   0.75000   0.00000  Uiso   1.00
O569   O     0.10655   0.20625   0.75000   0.00000  Uiso   1.00
O570   O     0.20843   0.28760   0.81783   0.00000  Uiso   1.00
O571   O     0.20860   0.04567   0.81772   0.00000  Uiso   1.00
O572   O     0.12491   0.28761   0.68217   0.00000  Uiso   1.00
O573   O     0.22679   0.12709   0.75001   0.00000  Uiso   1.00
O574   O     0.22679   0.20625   0.75001   0.00000  Uiso   1.00
O575   O     0.10655   0.12709   0.75000   0.00000  Uiso   1.00
O576   O     0.16666   0.20626   0.68573   0.00000  Uiso   1.00
O577   O     0.16667   0.12707   0.81427   0.00000  Uiso   1.00
O578   O     0.16667   0.20626   0.81427   0.00000  Uiso   1.00
O579   O     0.16666   0.12707   0.68573   0.00000  Uiso   1.00
O580   O     0.12473   0.04567   0.68228   0.00000  Uiso   1.00
C581   C     0.42080   0.16667   0.74988   0.00000  Uiso   1.00
C582   C     0.64537   0.20870   0.75008   0.00000  Uiso   1.00
C583   C     0.64537   0.12463   0.75005   0.00000  Uiso   1.00
C584   C     0.35463   0.20870   0.74995   0.00000  Uiso   1.00
C585   C     0.52256   0.20057   0.54874   0.00000  Uiso   1.00
C586   C     0.52268   0.13317   0.95354   0.00000  Uiso   1.00
C587   C     0.47752   0.20063   0.95127   0.00000  Uiso   1.00
C588   C     0.47726   0.13323   0.54646   0.00000  Uiso   1.00
C589   C     0.52192   0.20070   0.59484   0.00000  Uiso   1.00
C590   C     0.52212   0.13289   0.90740   0.00000  Uiso   1.00
C591   C     0.47815   0.20076   0.90517   0.00000  Uiso   1.00
C592   C     0.57920   0.16667   0.75012   0.00000  Uiso   1.00
C593   C     0.47782   0.13295   0.59260   0.00000  Uiso   1.00
C594   C     0.49988   0.16675   0.61684   0.00000  Uiso   1.00
C595   C     0.50012   0.16675   0.88316   0.00000  Uiso   1.00
C596   C     0.49995   0.16693   0.52429   0.00000  Uiso   1.00
C597   C     0.50006   0.16693   0.97572   0.00000  Uiso   1.00
C598   C     0.62388   0.16667   0.75011   0.00000  Uiso   1.00
C599   C     0.37612   0.16667   0.74989   0.00000  Uiso   1.00
C600   C     0.49988   0.16668   0.66511   0.00000  Uiso   1.00
C601   C     0.50012   0.16668   0.83489   0.00000  Uiso   1.00
C602   C     0.47983   0.02444   0.71666   0.00000  Uiso   1.00
C603   C     0.52013   0.30887   0.78336   0.00000  Uiso   1.00
C604   C     0.52017   0.02444   0.78334   0.00000  Uiso   1.00
C605   C     0.47987   0.30887   0.71664   0.00000  Uiso   1.00
C606   C     0.35463   0.12463   0.74992   0.00000  Uiso   1.00
Cl607  Cl    0.55262   0.24246   0.52268   0.00000  Uiso   1.00
Cl608  Cl    0.55259   0.09128   0.98262   0.00000  Uiso   1.00
Cl609  Cl    0.44755   0.24261   0.97734   0.00000  Uiso   1.00
Cl610  Cl    0.44727   0.09142   0.51737   0.00000  Uiso   1.00
Cu611  Cu    0.50000   0.21355   0.75000   0.00000  Uiso   1.00
Cu612  Cu    0.50000   0.11978   0.75000   0.00000  Uiso   1.00
H613   H     0.53932   0.22669   0.61353   0.00000  Uiso   1.00
H614   H     0.55423   0.25939   0.80622   0.00000  Uiso   1.00
H615   H     0.55426   0.07396   0.80613   0.00000  Uiso   1.00
H616   H     0.44576   0.25940   0.69378   0.00000  Uiso   1.00
H617   H     0.53956   0.10686   0.89050   0.00000  Uiso   1.00
H618   H     0.46079   0.22679   0.88648   0.00000  Uiso   1.00
H619   H     0.46032   0.10696   0.60950   0.00000  Uiso   1.00
H620   H     0.37061   0.09175   0.74985   0.00000  Uiso   1.00
H621   H     0.62939   0.24159   0.75014   0.00000  Uiso   1.00
H622   H     0.62939   0.09175   0.75010   0.00000  Uiso   1.00
H623   H     0.37061   0.24159   0.74991   0.00000  Uiso   1.00
H624   H     0.44575   0.07397   0.69387   0.00000  Uiso   1.00
N625   N     0.50000   0.28402   0.75000   0.00000  Uiso   1.00
N626   N     0.50000   0.04931   0.75000   0.00000  Uiso   1.00
O627   O     0.43988   0.20625   0.75000   0.00000  Uiso   1.00
O628   O     0.54176   0.28760   0.81783   0.00000  Uiso   1.00
O629   O     0.54193   0.04567   0.81772   0.00000  Uiso   1.00
O630   O     0.45824   0.28761   0.68217   0.00000  Uiso   1.00
O631   O     0.56012   0.12709   0.75001   0.00000  Uiso   1.00
O632   O     0.56012   0.20625   0.75001   0.00000  Uiso   1.00
O633   O     0.43988   0.12709   0.75000   0.00000  Uiso   1.00
O634   O     0.50000   0.20626   0.68573   0.00000  Uiso   1.00
O635   O     0.50000   0.12707   0.81427   0.00000  Uiso   1.00
O636   O     0.50000   0.20626   0.81427   0.00000  Uiso   1.00
O637   O     0.50000   0.12707   0.68573   0.00000  Uiso   1.00
O638   O     0.45807   0.04567   0.68228   0.00000  Uiso   1.00
C639   C     0.75413   0.16667   0.74988   0.00000  Uiso   1.00
C640   C     0.97871   0.20870   0.75008   0.00000  Uiso   1.00
C641   C     0.97871   0.12463   0.75005   0.00000  Uiso   1.00
C642   C     0.68796   0.20870   0.74995   0.00000  Uiso   1.00
C643   C     0.85589   0.20057   0.54874   0.00000  Uiso   1.00
C644   C     0.85601   0.13317   0.95354   0.00000  Uiso   1.00
C645   C     0.81085   0.20063   0.95127   0.00000  Uiso   1.00
C646   C     0.81060   0.13323   0.54646   0.00000  Uiso   1.00
C647   C     0.85525   0.20070   0.59484   0.00000  Uiso   1.00
C648   C     0.85545   0.13289   0.90740   0.00000  Uiso   1.00
C649   C     0.81149   0.20076   0.90517   0.00000  Uiso   1.00
C650   C     0.91254   0.16667   0.75012   0.00000  Uiso   1.00
C651   C     0.81115   0.13295   0.59260   0.00000  Uiso   1.00
C652   C     0.83321   0.16675   0.61684   0.00000  Uiso   1.00
C653   C     0.83345   0.16675   0.88316   0.00000  Uiso   1.00
C654   C     0.83328   0.16693   0.52429   0.00000  Uiso   1.00
C655   C     0.83340   0.16693   0.97572   0.00000  Uiso   1.00
C656   C     0.95721   0.16667   0.75011   0.00000  Uiso   1.00
C657   C     0.70945   0.16667   0.74989   0.00000  Uiso   1.00
C658   C     0.83321   0.16668   0.66511   0.00000  Uiso   1.00
C659   C     0.83345   0.16668   0.83489   0.00000  Uiso   1.00
C660   C     0.81317   0.02444   0.71666   0.00000  Uiso   1.00
C661   C     0.85346   0.30887   0.78336   0.00000  Uiso   1.00
C662   C     0.85350   0.02444   0.78334   0.00000  Uiso   1.00
C663   C     0.81321   0.30887   0.71664   0.00000  Uiso   1.00
C664   C     0.68796   0.12463   0.74992   0.00000  Uiso   1.00
Cl665  Cl    0.88595   0.24246   0.52268   0.00000  Uiso   1.00
Cl666  Cl    0.88592   0.09128   0.98262   0.00000  Uiso   1.00
Cl667  Cl    0.78088   0.24261   0.97734   0.00000  Uiso   1.00
Cl668  Cl    0.78060   0.09142   0.51737   0.00000  Uiso   1.00
Cu669  Cu    0.83333   0.21355   0.75000   0.00000  Uiso   1.00
Cu670  Cu    0.83333   0.11978   0.75000   0.00000  Uiso   1.00
H671   H     0.87265   0.22669   0.61353   0.00000  Uiso   1.00
H672   H     0.88757   0.25939   0.80622   0.00000  Uiso   1.00
H673   H     0.88759   0.07396   0.80613   0.00000  Uiso   1.00
H674   H     0.77910   0.25940   0.69378   0.00000  Uiso   1.00
H675   H     0.87290   0.10686   0.89050   0.00000  Uiso   1.00
H676   H     0.79412   0.22679   0.88648   0.00000  Uiso   1.00
H677   H     0.79365   0.10696   0.60950   0.00000  Uiso   1.00
H678   H     0.70395   0.09175   0.74985   0.00000  Uiso   1.00
H679   H     0.96272   0.24159   0.75014   0.00000  Uiso   1.00
H680   H     0.96272   0.09175   0.75010   0.00000  Uiso   1.00
H681   H     0.70395   0.24159   0.74991   0.00000  Uiso   1.00
H682   H     0.77908   0.07397   0.69387   0.00000  Uiso   1.00
N683   N     0.83333   0.28402   0.75000   0.00000  Uiso   1.00
N684   N     0.83333   0.04931   0.75000   0.00000  Uiso   1.00
O685   O     0.77321   0.20625   0.75000   0.00000  Uiso   1.00
O686   O     0.87509   0.28760   0.81783   0.00000  Uiso   1.00
O687   O     0.87526   0.04567   0.81772   0.00000  Uiso   1.00
O688   O     0.79158   0.28761   0.68217   0.00000  Uiso   1.00
O689   O     0.89345   0.12709   0.75001   0.00000  Uiso   1.00
O690   O     0.89345   0.20625   0.75001   0.00000  Uiso   1.00
O691   O     0.77321   0.12709   0.75000   0.00000  Uiso   1.00
O692   O     0.83333   0.20626   0.68573   0.00000  Uiso   1.00
O693   O     0.83334   0.12707   0.81427   0.00000  Uiso   1.00
O694   O     0.83334   0.20626   0.81427   0.00000  Uiso   1.00
O695   O     0.83333   0.12707   0.68573   0.00000  Uiso   1.00
O696   O     0.79140   0.04567   0.68228   0.00000  Uiso   1.00
C697   C     0.08746   0.50000   0.74988   0.00000  Uiso   1.00
C698   C     0.31204   0.54204   0.75008   0.00000  Uiso   1.00
C699   C     0.31204   0.45796   0.75005   0.00000  Uiso   1.00
C700   C     0.02129   0.54204   0.74995   0.00000  Uiso   1.00
C701   C     0.18923   0.53391   0.54874   0.00000  Uiso   1.00
C702   C     0.18934   0.46651   0.95354   0.00000  Uiso   1.00
C703   C     0.14418   0.53397   0.95127   0.00000  Uiso   1.00
C704   C     0.14393   0.46656   0.54646   0.00000  Uiso   1.00
C705   C     0.18858   0.53403   0.59484   0.00000  Uiso   1.00
C706   C     0.18878   0.46623   0.90740   0.00000  Uiso   1.00
C707   C     0.14482   0.53409   0.90517   0.00000  Uiso   1.00
C708   C     0.24587   0.50000   0.75012   0.00000  Uiso   1.00
C709   C     0.14449   0.46628   0.59260   0.00000  Uiso   1.00
C710   C     0.16655   0.50009   0.61684   0.00000  Uiso   1.00
C711   C     0.16679   0.50008   0.88316   0.00000  Uiso   1.00
C712   C     0.16662   0.50026   0.52429   0.00000  Uiso   1.00
C713   C     0.16673   0.50026   0.97572   0.00000  Uiso   1.00
C714   C     0.29055   0.50000   0.75011   0.00000  Uiso   1.00
C715   C     0.04279   0.50000   0.74989   0.00000  Uiso   1.00
C716   C     0.16655   0.50001   0.66511   0.00000  Uiso   1.00
C717   C     0.16679   0.50001   0.83489   0.00000  Uiso   1.00
C718   C     0.14650   0.35777   0.71666   0.00000  Uiso   1.00
C719   C     0.18680   0.64221   0.78336   0.00000  Uiso   1.00
C720   C     0.18683   0.35777   0.78334   0.00000  Uiso   1.00
C721   C     0.14654   0.64221   0.71664   0.00000  Uiso   1.00
C722   C     0.02129   0.45797   0.74992   0.00000  Uiso   1.00
Cl723  Cl    0.21929   0.57580   0.52268   0.00000  Uiso   1.00
Cl724  Cl    0.21926   0.42461   0.98262   0.00000  Uiso   1.00
Cl725  Cl    0.11422   0.57594   0.97734   0.00000  Uiso   1.00
Cl726  Cl    0.11393   0.42475   0.51737   0.00000  Uiso   1.00
Cu727  Cu    0.16667   0.54689   0.75000   0.00000  Uiso   1.00
Cu728  Cu    0.16667   0.45311   0.75000   0.00000  Uiso   1.00
H729   H     0.20599   0.56002   0.61353   0.00000  Uiso   1.00
H730   H     0.22090   0.59273   0.80622   0.00000  Uiso   1.00
H731   H     0.22093   0.40730   0.80613   0.00000  Uiso   1.00
H732   H     0.11243   0.59273   0.69378   0.00000  Uiso   1.00
H733   H     0.20623   0.44019   0.89050   0.00000  Uiso   1.00
H734   H     0.12746   0.56012   0.88648   0.00000  Uiso   1.00
H735   H     0.12699   0.44029   0.60950   0.00000  Uiso   1.00
H736   H     0.03728   0.42508   0.74985   0.00000  Uiso   1.00
H737   H     0.29605   0.57492   0.75014   0.00000  Uiso   1.00
H738   H     0.29605   0.42508   0.75010   0.00000  Uiso   1.00
H739   H     0.03728   0.57492   0.74991   0.00000  Uiso   1.00
H740   H     0.11241   0.40730   0.69387   0.00000  Uiso   1.00
N741   N     0.16667   0.61736   0.75000   0.00000  Uiso   1.00
N742   N     0.16667   0.38264   0.75000   0.00000  Uiso   1.00
O743   O     0.10655   0.53958   0.75000   0.00000  Uiso   1.00
O744   O     0.20843   0.62094   0.81783   0.00000  Uiso   1.00
O745   O     0.20860   0.37900   0.81772   0.00000  Uiso   1.00
O746   O     0.12491   0.62094   0.68217   0.00000  Uiso   1.00
O747   O     0.22679   0.46042   0.75001   0.00000  Uiso   1.00
O748   O     0.22679   0.53958   0.75001   0.00000  Uiso   1.00
O749   O     0.10655   0.46042   0.75000   0.00000  Uiso   1.00
O750   O     0.16666   0.53959   0.68573   0.00000  Uiso   1.00
O751   O     0.16667   0.46041   0.81427   0.00000  Uiso   1.00
O752   O     0.16667   0.53959   0.81427   0.00000  Uiso   1.00
O753   O     0.16666   0.46041   0.68573   0.00000  Uiso   1.00
O754   O     0.12473   0.37900   0.68228   0.00000  Uiso   1.00
C755   C     0.42080   0.50000   0.74988   0.00000  Uiso   1.00
C756   C     0.64537   0.54204   0.75008   0.00000  Uiso   1.00
C757   C     0.64537   0.45796   0.75005   0.00000  Uiso   1.00
C758   C     0.35463   0.54204   0.74995   0.00000  Uiso   1.00
C759   C     0.52256   0.53391   0.54874   0.00000  Uiso   1.00
C760   C     0.52268   0.46651   0.95354   0.00000  Uiso   1.00
C761   C     0.47752   0.53397   0.95127   0.00000  Uiso   1.00
C762   C     0.47726   0.46656   0.54646   0.00000  Uiso   1.00
C763   C     0.52192   0.53403   0.59484   0.00000  Uiso   1.00
C764   C     0.52212   0.46623   0.90740   0.00000  Uiso   1.00
C765   C     0.47815   0.53409   0.90517   0.00000  Uiso   1.00
C766   C     0.57920   0.50000   0.75012   0.00000  Uiso   1.00
C767   C     0.47782   0.46628   0.59260   0.00000  Uiso   1.00
C768   C     0.49988   0.50009   0.61684   0.00000  Uiso   1.00
C769   C     0.50012   0.50008   0.88316   0.00000  Uiso   1.00
C770   C     0.49995   0.50026   0.52429   0.00000  Uiso   1.00
C771   C     0.50006   0.50026   0.97572   0.00000  Uiso   1.00
C772   C     0.62388   0.50000   0.75011   0.00000  Uiso   1.00
C773   C     0.37612   0.50000   0.74989   0.00000  Uiso   1.00
C774   C     0.49988   0.50001   0.66511   0.00000  Uiso   1.00
C775   C     0.50012   0.50001   0.83489   0.00000  Uiso   1.00
C776   C     0.47983   0.35777   0.71666   0.00000  Uiso   1.00
C777   C     0.52013   0.64221   0.78336   0.00000  Uiso   1.00
C778   C     0.52017   0.35777   0.78334   0.00000  Uiso   1.00
C779   C     0.47987   0.64221   0.71664   0.00000  Uiso   1.00
C780   C     0.35463   0.45797   0.74992   0.00000  Uiso   1.00
Cl781  Cl    0.55262   0.57580   0.52268   0.00000  Uiso   1.00
Cl782  Cl    0.55259   0.42461   0.98262   0.00000  Uiso   1.00
Cl783  Cl    0.44755   0.57594   0.97734   0.00000  Uiso   1.00
Cl784  Cl    0.44727   0.42475   0.51737   0.00000  Uiso   1.00
Cu785  Cu    0.50000   0.54689   0.75000   0.00000  Uiso   1.00
Cu786  Cu    0.50000   0.45311   0.75000   0.00000  Uiso   1.00
H787   H     0.53932   0.56002   0.61353   0.00000  Uiso   1.00
H788   H     0.55423   0.59273   0.80622   0.00000  Uiso   1.00
H789   H     0.55426   0.40730   0.80613   0.00000  Uiso   1.00
H790   H     0.44576   0.59273   0.69378   0.00000  Uiso   1.00
H791   H     0.53956   0.44019   0.89050   0.00000  Uiso   1.00
H792   H     0.46079   0.56012   0.88648   0.00000  Uiso   1.00
H793   H     0.46032   0.44029   0.60950   0.00000  Uiso   1.00
H794   H     0.37061   0.42508   0.74985   0.00000  Uiso   1.00
H795   H     0.62939   0.57492   0.75014   0.00000  Uiso   1.00
H796   H     0.62939   0.42508   0.75010   0.00000  Uiso   1.00
H797   H     0.37061   0.57492   0.74991   0.00000  Uiso   1.00
H798   H     0.44575   0.40730   0.69387   0.00000  Uiso   1.00
N799   N     0.50000   0.61736   0.75000   0.00000  Uiso   1.00
N800   N     0.50000   0.38264   0.75000   0.00000  Uiso   1.00
O801   O     0.43988   0.53958   0.75000   0.00000  Uiso   1.00
O802   O     0.54176   0.62094   0.81783   0.00000  Uiso   1.00
O803   O     0.54193   0.37900   0.81772   0.00000  Uiso   1.00
O804   O     0.45824   0.62094   0.68217   0.00000  Uiso   1.00
O805   O     0.56012   0.46042   0.75001   0.00000  Uiso   1.00
O806   O     0.56012   0.53958   0.75001   0.00000  Uiso   1.00
O807   O     0.43988   0.46042   0.75000   0.00000  Uiso   1.00
O808   O     0.50000   0.53959   0.68573   0.00000  Uiso   1.00
O809   O     0.50000   0.46041   0.81427   0.00000  Uiso   1.00
O810   O     0.50000   0.53959   0.81427   0.00000  Uiso   1.00
O811   O     0.50000   0.46041   0.68573   0.00000  Uiso   1.00
O812   O     0.45807   0.37900   0.68228   0.00000  Uiso   1.00
C813   C     0.75413   0.50000   0.74988   0.00000  Uiso   1.00
C814   C     0.97871   0.54204   0.75008   0.00000  Uiso   1.00
C815   C     0.97871   0.45796   0.75005   0.00000  Uiso   1.00
C816   C     0.68796   0.54204   0.74995   0.00000  Uiso   1.00
C817   C     0.85589   0.53391   0.54874   0.00000  Uiso   1.00
C818   C     0.85601   0.46651   0.95354   0.00000  Uiso   1.00
C819   C     0.81085   0.53397   0.95127   0.00000  Uiso   1.00
C820   C     0.81060   0.46656   0.54646   0.00000  Uiso   1.00
C821   C     0.85525   0.53403   0.59484   0.00000  Uiso   1.00
C822   C     0.85545   0.46623   0.90740   0.00000  Uiso   1.00
C823   C     0.81149   0.53409   0.90517   0.00000  Uiso   1.00
C824   C     0.91254   0.50000   0.75012   0.00000  Uiso   1.00
C825   C     0.81115   0.46628   0.59260   0.00000  Uiso   1.00
C826   C     0.83321   0.50009   0.61684   0.00000  Uiso   1.00
C827   C     0.83345   0.50008   0.88316   0.00000  Uiso   1.00
C828   C     0.83328   0.50026   0.52429   0.00000  Uiso   1.00
C829   C     0.83340   0.50026   0.97572   0.00000  Uiso   1.00
C830   C     0.95721   0.50000   0.75011   0.00000  Uiso   1.00
C831   C     0.70945   0.50000   0.74989   0.00000  Uiso   1.00
C832   C     0.83321   0.50001   0.66511   0.00000  Uiso   1.00
C833   C     0.83345   0.50001   0.83489   0.00000  Uiso   1.00
C834   C     0.81317   0.35777   0.71666   0.00000  Uiso   1.00
C835   C     0.85346   0.64221   0.78336   0.00000  Uiso   1.00
C836   C     0.85350   0.35777   0.78334   0.00000  Uiso   1.00
C837   C     0.81321   0.64221   0.71664   0.00000  Uiso   1.00
C838   C     0.68796   0.45797   0.74992   0.00000  Uiso   1.00
Cl839  Cl    0.88595   0.57580   0.52268   0.00000  Uiso   1.00
Cl840  Cl    0.88592   0.42461   0.98262   0.00000  Uiso   1.00
Cl841  Cl    0.78088   0.57594   0.97734   0.00000  Uiso   1.00
Cl842  Cl    0.78060   0.42475   0.51737   0.00000  Uiso   1.00
Cu843  Cu    0.83333   0.54689   0.75000   0.00000  Uiso   1.00
Cu844  Cu    0.83333   0.45311   0.75000   0.00000  Uiso   1.00
H845   H     0.87265   0.56002   0.61353   0.00000  Uiso   1.00
H846   H     0.88757   0.59273   0.80622   0.00000  Uiso   1.00
H847   H     0.88759   0.40730   0.80613   0.00000  Uiso   1.00
H848   H     0.77910   0.59273   0.69378   0.00000  Uiso   1.00
H849   H     0.87290   0.44019   0.89050   0.00000  Uiso   1.00
H850   H     0.79412   0.56012   0.88648   0.00000  Uiso   1.00
H851   H     0.79365   0.44029   0.60950   0.00000  Uiso   1.00
H852   H     0.70395   0.42508   0.74985   0.00000  Uiso   1.00
H853   H     0.96272   0.57492   0.75014   0.00000  Uiso   1.00
H854   H     0.96272   0.42508   0.75010   0.00000  Uiso   1.00
H855   H     0.70395   0.57492   0.74991   0.00000  Uiso   1.00
H856   H     0.77908   0.40730   0.69387   0.00000  Uiso   1.00
N857   N     0.83333   0.61736   0.75000   0.00000  Uiso   1.00
N858   N     0.83333   0.38264   0.75000   0.00000  Uiso   1.00
O859   O     0.77321   0.53958   0.75000   0.00000  Uiso   1.00
O860   O     0.87509   0.62094   0.81783   0.00000  Uiso   1.00
O861   O     0.87526   0.37900   0.81772   0.00000  Uiso   1.00
O862   O     0.79158   0.62094   0.68217   0.00000  Uiso   1.00
O863   O     0.89345   0.46042   0.75001   0.00000  Uiso   1.00
O864   O     0.89345   0.53958   0.75001   0.00000  Uiso   1.00
O865   O     0.77321   0.46042   0.75000   0.00000  Uiso   1.00
O866   O     0.83333   0.53959   0.68573   0.00000  Uiso   1.00
O867   O     0.83334   0.46041   0.81427   0.00000  Uiso   1.00
O868   O     0.83334   0.53959   0.81427   0.00000  Uiso   1.00
O869   O     0.83333   0.46041   0.68573   0.00000  Uiso   1.00
O870   O     0.79140   0.37900   0.68228   0.00000  Uiso   1.00
C871   C     0.08746   0.83333   0.74988   0.00000  Uiso   1.00
C872   C     0.31204   0.87537   0.75008   0.00000  Uiso   1.00
C873   C     0.31204   0.79130   0.75005   0.00000  Uiso   1.00
C874   C     0.02129   0.87537   0.74995   0.00000  Uiso   1.00
C875   C     0.18923   0.86724   0.54874   0.00000  Uiso   1.00
C876   C     0.18934   0.79984   0.95354   0.00000  Uiso   1.00
C877   C     0.14418   0.86730   0.95127   0.00000  Uiso   1.00
C878   C     0.14393   0.79990   0.54646   0.00000  Uiso   1.00
C879   C     0.18858   0.86737   0.59484   0.00000  Uiso   1.00
C880   C     0.18878   0.79956   0.90740   0.00000  Uiso   1.00
C881   C     0.14482   0.86742   0.90517   0.00000  Uiso   1.00
C882   C     0.24587   0.83333   0.75012   0.00000  Uiso   1.00
C883   C     0.14449   0.79962   0.59260   0.00000  Uiso   1.00
C884   C     0.16655   0.83342   0.61684   0.00000  Uiso   1.00
C885   C     0.16679   0.83342   0.88316   0.00000  Uiso   1.00
C886   C     0.16662   0.83359   0.52429   0.00000  Uiso   1.00
C887   C     0.16673   0.83360   0.97572   0.00000  Uiso   1.00
C888   C     0.29055   0.83333   0.75011   0.00000  Uiso   1.00
C889   C     0.04279   0.83333   0.74989   0.00000  Uiso   1.00
C890   C     0.16655   0.83334   0.66511   0.00000  Uiso   1.00
C891   C     0.16679   0.83334   0.83489   0.00000  Uiso   1.00
C892   C     0.14650   0.69111   0.71666   0.00000  Uiso   1.00
C893   C     0.18680   0.97554   0.78336   0.00000  Uiso   1.00
C894   C     0.18683   0.69111   0.78334   0.00000  Uiso   1.00
C895   C     0.14654   0.97554   0.71664   0.00000  Uiso   1.00
C896   C     0.02129   0.79130   0.74992   0.00000  Uiso   1.00
Cl897  Cl    0.21929   0.90913   0.52268   0.00000  Uiso   1.00
Cl898  Cl    0.21926   0.75795   0.98262   0.00000  Uiso   1.00
Cl899  Cl    0.11422   0.90928   0.97734   0.00000  Uiso   1.00
Cl900  Cl    0.11393   0.75809   0.51737   0.00000  Uiso   1.00
Cu901  Cu    0.16667   0.88022   0.75000   0.00000  Uiso   1.00
Cu902  Cu    0.16667   0.78645   0.75000   0.00000  Uiso   1.00
H903   H     0.20599   0.89336   0.61353   0.00000  Uiso   1.00
H904   H     0.22090   0.92606   0.80622   0.00000  Uiso   1.00
H905   H     0.22093   0.74063   0.80613   0.00000  Uiso   1.00
H906   H     0.11243   0.92607   0.69378   0.00000  Uiso   1.00
H907   H     0.20623   0.77352   0.89050   0.00000  Uiso   1.00
H908   H     0.12746   0.89346   0.88648   0.00000  Uiso   1.00
H909   H     0.12699   0.77363   0.60950   0.00000  Uiso   1.00
H910   H     0.03728   0.75841   0.74985   0.00000  Uiso   1.00
H911   H     0.29605   0.90825   0.75014   0.00000  Uiso   1.00
H912   H     0.29605   0.75841   0.75010   0.00000  Uiso   1.00
H913   H     0.03728   0.90826   0.74991   0.00000  Uiso   1.00
H914   H     0.11241   0.74064   0.69387   0.00000  Uiso   1.00
N915   N     0.16667   0.95069   0.75000   0.00000  Uiso   1.00
N916   N     0.16667   0.71598   0.75000   0.00000  Uiso   1.00
O917   O     0.10655   0.87291   0.75000   0.00000  Uiso   1.00
O918   O     0.20843   0.95427   0.81783   0.00000  Uiso   1.00
O919   O     0.20860   0.71233   0.81772   0.00000  Uiso   1.00
O920   O     0.12491   0.95427   0.68217   0.00000  Uiso   1.00
O921   O     0.22679   0.79375   0.75001   0.00000  Uiso   1.00
O922   O     0.22679   0.87291   0.75001   0.00000  Uiso   1.00
O923   O     0.10655   0.79375   0.75000   0.00000  Uiso   1.00
O924   O     0.16666   0.87293   0.68573   0.00000  Uiso   1.00
O925   O     0.16667   0.79374   0.81427   0.00000  Uiso   1.00
O926   O     0.16667   0.87293   0.81427   0.00000  Uiso   1.00
O927   O     0.16666   0.79374   0.68573   0.00000  Uiso   1.00
O928   O     0.12473   0.71234   0.68228   0.00000  Uiso   1.00
C929   C     0.42080   0.83333   0.74988   0.00000  Uiso   1.00
C930   C     0.64537   0.87537   0.75008   0.00000  Uiso   1.00
C931   C     0.64537   0.79130   0.75005   0.00000  Uiso   1.00
C932   C     0.35463   0.87537   0.74995   0.00000  Uiso   1.00
C933   C     0.52256   0.86724   0.54874   0.00000  Uiso   1.00
C934   C     0.52268   0.79984   0.95354   0.00000  Uiso   1.00
C935   C     0.47752   0.86730   0.95127   0.00000  Uiso   1.00
C936   C     0.47726   0.79990   0.54646   0.00000  Uiso   1.00
C937   C     0.52192   0.86737   0.59484   0.00000  Uiso   1.00
C938   C     0.52212   0.79956   0.90740   0.00000  Uiso   1.00
C939   C     0.47815   0.86742   0.90517   0.00000  Uiso   1.00
C940   C     0.57920   0.83333   0.75012   0.00000  Uiso   1.00
C941   C     0.47782   0.79962   0.59260   0.00000  Uiso   1.00
C942   C     0.49988   0.83342   0.61684   0.00000  Uiso   1.00
C943   C     0.50012   0.83342   0.88316   0.00000  Uiso   1.00
C944   C     0.49995   0.83359   0.52429   0.00000  Uiso   1.00
C945   C     0.50006   0.83360   0.97572   0.00000  Uiso   1.00
C946   C     0.62388   0.83333   0.75011   0.00000  Uiso   1.00
C947   C     0.37612   0.83333   0.74989   0.00000  Uiso   1.00
C948   C     0.49988   0.83334   0.66511   0.00000  Uiso   1.00
C949   C     0.50012   0.83334   0.83489   0.00000  Uiso   1.00
C950   C     0.47983   0.69111   0.71666   0.00000  Uiso   1.00
C951   C     0.52013   0.97554   0.78336   0.00000  Uiso   1.00
C952   C     0.52017   0.69111   0.78334   0.00000  Uiso   1.00
C953   C     0.47987   0.97554   0.71664   0.00000  Uiso   1.00
C954   C     0.35463   0.79130   0.74992   0.00000  Uiso   1.00
Cl955  Cl    0.55262   0.90913   0.52268   0.00000  Uiso   1.00
Cl956  Cl    0.55259   0.75795   0.98262   0.00000  Uiso   1.00
Cl957  Cl    0.44755   0.90928   0.97734   0.00000  Uiso   1.00
Cl958  Cl    0.44727   0.75809   0.51737   0.00000  Uiso   1.00
Cu959  Cu    0.50000   0.88022   0.75000   0.00000  Uiso   1.00
Cu960  Cu    0.50000   0.78645   0.75000   0.00000  Uiso   1.00
H961   H     0.53932   0.89336   0.61353   0.00000  Uiso   1.00
H962   H     0.55423   0.92606   0.80622   0.00000  Uiso   1.00
H963   H     0.55426   0.74063   0.80613   0.00000  Uiso   1.00
H964   H     0.44576   0.92607   0.69378   0.00000  Uiso   1.00
H965   H     0.53956   0.77352   0.89050   0.00000  Uiso   1.00
H966   H     0.46079   0.89346   0.88648   0.00000  Uiso   1.00
H967   H     0.46032   0.77363   0.60950   0.00000  Uiso   1.00
H968   H     0.37061   0.75841   0.74985   0.00000  Uiso   1.00
H969   H     0.62939   0.90825   0.75014   0.00000  Uiso   1.00
H970   H     0.62939   0.75841   0.75010   0.00000  Uiso   1.00
H971   H     0.37061   0.90826   0.74991   0.00000  Uiso   1.00
H972   H     0.44575   0.74064   0.69387   0.00000  Uiso   1.00
N973   N     0.50000   0.95069   0.75000   0.00000  Uiso   1.00
N974   N     0.50000   0.71598   0.75000   0.00000  Uiso   1.00
O975   O     0.43988   0.87291   0.75000   0.00000  Uiso   1.00
O976   O     0.54176   0.95427   0.81783   0.00000  Uiso   1.00
O977   O     0.54193   0.71233   0.81772   0.00000  Uiso   1.00
O978   O     0.45824   0.95427   0.68217   0.00000  Uiso   1.00
O979   O     0.56012   0.79375   0.75001   0.00000  Uiso   1.00
O980   O     0.56012   0.87291   0.75001   0.00000  Uiso   1.00
O981   O     0.43988   0.79375   0.75000   0.00000  Uiso   1.00
O982   O     0.50000   0.87293   0.68573   0.00000  Uiso   1.00
O983   O     0.50000   0.79374   0.81427   0.00000  Uiso   1.00
O984   O     0.50000   0.87293   0.81427   0.00000  Uiso   1.00
O985   O     0.50000   0.79374   0.68573   0.00000  Uiso   1.00
O986   O     0.45807   0.71234   0.68228   0.00000  Uiso   1.00
C987   C     0.75413   0.83333   0.74988   0.00000  Uiso   1.00
C988   C     0.97871   0.87537   0.75008   0.00000  Uiso   1.00
C989   C     0.97871   0.79130   0.75005   0.00000  Uiso   1.00
C990   C     0.68796   0.87537   0.74995   0.00000  Uiso   1.00
C991   C     0.85589   0.86724   0.54874   0.00000  Uiso   1.00
C992   C     0.85601   0.79984   0.95354   0.00000  Uiso   1.00
C993   C     0.81085   0.86730   0.95127   0.00000  Uiso   1.00
C994   C     0.81060   0.79990   0.54646   0.00000  Uiso   1.00
C995   C     0.85525   0.86737   0.59484   0.00000  Uiso   1.00
C996   C     0.85545   0.79956   0.90740   0.00000  Uiso   1.00
C997   C     0.81149   0.86742   0.90517   0.00000  Uiso   1.00
C998   C     0.91254   0.83333   0.75012   0.00000  Uiso   1.00
C999   C     0.81115   0.79962   0.59260   0.00000  Uiso   1.00
C1000  C     0.83321   0.83342   0.61684   0.00000  Uiso   1.00
C1001  C     0.83345   0.83342   0.88316   0.00000  Uiso   1.00
C1002  C     0.83328   0.83359   0.52429   0.00000  Uiso   1.00
C1003  C     0.83340   0.83360   0.97572   0.00000  Uiso   1.00
C1004  C     0.95721   0.83333   0.75011   0.00000  Uiso   1.00
C1005  C     0.70945   0.83333   0.74989   0.00000  Uiso   1.00
C1006  C     0.83321   0.83334   0.66511   0.00000  Uiso   1.00
C1007  C     0.83345   0.83334   0.83489   0.00000  Uiso   1.00
C1008  C     0.81317   0.69111   0.71666   0.00000  Uiso   1.00
C1009  C     0.85346   0.97554   0.78336   0.00000  Uiso   1.00
C1010  C     0.85350   0.69111   0.78334   0.00000  Uiso   1.00
C1011  C     0.81321   0.97554   0.71664   0.00000  Uiso   1.00
C1012  C     0.68796   0.79130   0.74992   0.00000  Uiso   1.00
Cl1013 Cl    0.88595   0.90913   0.52268   0.00000  Uiso   1.00
Cl1014 Cl    0.88592   0.75795   0.98262   0.00000  Uiso   1.00
Cl1015 Cl    0.78088   0.90928   0.97734   0.00000  Uiso   1.00
Cl1016 Cl    0.78060   0.75809   0.51737   0.00000  Uiso   1.00
Cu1017 Cu    0.83333   0.88022   0.75000   0.00000  Uiso   1.00
Cu1018 Cu    0.83333   0.78645   0.75000   0.00000  Uiso   1.00
H1019  H     0.87265   0.89336   0.61353   0.00000  Uiso   1.00
H1020  H     0.88757   0.92606   0.80622   0.00000  Uiso   1.00
H1021  H     0.88759   0.74063   0.80613   0.00000  Uiso   1.00
H1022  H     0.77910   0.92607   0.69378   0.00000  Uiso   1.00
H1023  H     0.87290   0.77352   0.89050   0.00000  Uiso   1.00
H1024  H     0.79412   0.89346   0.88648   0.00000  Uiso   1.00
H1025  H     0.79365   0.77363   0.60950   0.00000  Uiso   1.00
H1026  H     0.70395   0.75841   0.74985   0.00000  Uiso   1.00
H1027  H     0.96272   0.90825   0.75014   0.00000  Uiso   1.00
H1028  H     0.96272   0.75841   0.75010   0.00000  Uiso   1.00
H1029  H     0.70395   0.90826   0.74991   0.00000  Uiso   1.00
H1030  H     0.77908   0.74064   0.69387   0.00000  Uiso   1.00
N1031  N     0.83333   0.95069   0.75000   0.00000  Uiso   1.00
N1032  N     0.83333   0.71598   0.75000   0.00000  Uiso   1.00
O1033  O     0.77321   0.87291   0.75000   0.00000  Uiso   1.00
O1034  O     0.87509   0.95427   0.81783   0.00000  Uiso   1.00
O1035  O     0.87526   0.71233   0.81772   0.00000  Uiso   1.00
O1036  O     0.79158   0.95427   0.68217   0.00000  Uiso   1.00
O1037  O     0.89345   0.79375   0.75001   0.00000  Uiso   1.00
O1038  O     0.89345   0.87291   0.75001   0.00000  Uiso   1.00
O1039  O     0.77321   0.79375   0.75000   0.00000  Uiso   1.00
O1040  O     0.83333   0.87293   0.68573   0.00000  Uiso   1.00
O1041  O     0.83334   0.79374   0.81427   0.00000  Uiso   1.00
O1042  O     0.83334   0.87293   0.81427   0.00000  Uiso   1.00
O1043  O     0.83333   0.79374   0.68573   0.00000  Uiso   1.00
O1044  O     0.79140   0.71234   0.68228   0.00000  Uiso   1.00
loop_
_geom_bond_atom_site_label_1
_geom_bond_atom_site_label_2
_geom_bond_distance
_geom_bond_site_symmetry_2
_ccdc_geom_bond_type
C1     C19     1.452   .     S
C1     O53     1.301   .     A
C1     O47     1.301   .     A
C2     C18     1.401   .     A
C2     H41     1.083   .     S
C2     C62     1.384   .     S
C3     H42     1.083   .     S
C3     C18     1.401   .     A
C3     C84     1.384   .     S
C4     H43     1.083   .     S
C4     C19     1.401   .     A
C4     C118    1.384   1_455 S
C5     C9      1.392   .     A
C5     C16     1.408   .     A
C5     Cl27    1.762   .     S
C6     C10     1.392   .     A
C6     C17     1.408   .     A
C6     Cl28    1.762   .     S
C7     C11     1.392   .     A
C7     Cl29    1.762   .     S
C7     C17     1.408   .     A
C8     C13     1.392   .     A
C8     Cl30    1.762   .     S
C8     C16     1.408   .     A
C9     C14     1.399   .     A
C9     H33     1.084   .     S
C10    H37     1.083   .     S
C10    C15     1.399   .     A
C11    H38     1.084   .     S
C11    C15     1.399   .     A
C12    O51     1.301   .     A
C12    C18     1.452   .     S
C12    O52     1.301   .     A
C13    C14     1.399   .     A
C13    H39     1.083   .     S
C14    C20     1.457   .     S
C15    C21     1.457   .     S
C16    C539    1.466   1_554 S
C17    C538    1.466   .     S
C19    C26     1.401   .     A
C20    O54     1.302   .     A
C20    O57     1.303   .     A
C21    O56     1.302   .     A
C21    O55     1.303   .     A
C22    O58     1.374   .     S
C22    N46     1.379   .     A
C22    C373    1.413   1_545 S
C23    N45     1.378   .     A
C23    O48     1.375   .     S
C23    C198    1.413   .     S
C24    N46     1.379   .     A
C24    O49     1.374   .     S
C24    C371    1.413   1_545 S
C25    N45     1.378   .     A
C25    O50     1.375   .     S
C25    C196    1.413   .     S
C26    H40     1.083   .     S
C26    C119    1.384   1_455 S
Cu31   O56     1.951   .     S
Cu31   Cu32    2.710   .     S
Cu31   O52     1.965   .     S
Cu31   O47     1.965   .     S
Cu31   O54     1.951   .     S
Cu31   N45     2.037   .     S
Cu32   O55     1.951   .     S
Cu32   O57     1.951   .     S
Cu32   O53     1.965   .     S
Cu32   O51     1.965   .     S
Cu32   N46     2.037   .     S
H34    O48     0.982   .     S
H35    O49     0.982   .     S
H36    O50     0.982   .     S
H44    O58     0.982   .     S
C59    C77     1.452   .     S
C59    O111    1.301   .     A
C59    O105    1.301   .     A
C60    C76     1.401   .     A
C60    H99     1.083   .     S
C60    C120    1.384   .     S
C61    H100    1.083   .     S
C61    C76     1.401   .     A
C61    C142    1.384   .     S
C62    H101    1.083   .     S
C62    C77     1.401   .     A
C63    C67     1.392   .     A
C63    C74     1.408   .     A
C63    Cl85    1.762   .     S
C64    C68     1.392   .     A
C64    C75     1.408   .     A
C64    Cl86    1.762   .     S
C65    C69     1.392   .     A
C65    Cl87    1.762   .     S
C65    C75     1.408   .     A
C66    C71     1.392   .     A
C66    Cl88    1.762   .     S
C66    C74     1.408   .     A
C67    C72     1.399   .     A
C67    H91     1.084   .     S
C68    H95     1.083   .     S
C68    C73     1.399   .     A
C69    H96     1.084   .     S
C69    C73     1.399   .     A
C70    O109    1.301   .     A
C70    C76     1.452   .     S
C70    O110    1.301   .     A
C71    C72     1.399   .     A
C71    H97     1.083   .     S
C72    C78     1.457   .     S
C73    C79     1.457   .     S
C74    C597    1.466   1_554 S
C75    C596    1.466   .     S
C77    C84     1.401   .     A
C78    O112    1.302   .     A
C78    O115    1.303   .     A
C79    O114    1.302   .     A
C79    O113    1.303   .     A
C80    O116    1.374   .     S
C80    N104    1.379   .     A
C80    C431    1.413   1_545 S
C81    N103    1.378   .     A
C81    O106    1.375   .     S
C81    C256    1.413   .     S
C82    N104    1.379   .     A
C82    O107    1.374   .     S
C82    C429    1.413   1_545 S
C83    N103    1.378   .     A
C83    O108    1.375   .     S
C83    C254    1.413   .     S
C84    H98     1.083   .     S
Cu89   O114    1.951   .     S
Cu89   Cu90    2.710   .     S
Cu89   O110    1.965   .     S
Cu89   O105    1.965   .     S
Cu89   O112    1.951   .     S
Cu89   N103    2.037   .     S
Cu90   O113    1.951   .     S
Cu90   O115    1.951   .     S
Cu90   O111    1.965   .     S
Cu90   O109    1.965   .     S
Cu90   N104    2.037   .     S
H92    O106    0.982   .     S
H93    O107    0.982   .     S
H94    O108    0.982   .     S
H102   O116    0.982   .     S
C117   C135    1.452   .     S
C117   O169    1.301   .     A
C117   O163    1.301   .     A
C118   C134    1.401   .     A
C118   H157    1.083   .     S
C118   C4      1.384   1_655 S
C119   H158    1.083   .     S
C119   C134    1.401   .     A
C119   C26     1.384   1_655 S
C120   H159    1.083   .     S
C120   C135    1.401   .     A
C121   C125    1.392   .     A
C121   C132    1.408   .     A
C121   Cl143   1.762   .     S
C122   C126    1.392   .     A
C122   C133    1.408   .     A
C122   Cl144   1.762   .     S
C123   C127    1.392   .     A
C123   Cl145   1.762   .     S
C123   C133    1.408   .     A
C124   C129    1.392   .     A
C124   Cl146   1.762   .     S
C124   C132    1.408   .     A
C125   C130    1.399   .     A
C125   H149    1.084   .     S
C126   H153    1.083   .     S
C126   C131    1.399   .     A
C127   H154    1.084   .     S
C127   C131    1.399   .     A
C128   O167    1.301   .     A
C128   C134    1.452   .     S
C128   O168    1.301   .     A
C129   C130    1.399   .     A
C129   H155    1.083   .     S
C130   C136    1.457   .     S
C131   C137    1.457   .     S
C132   C655    1.466   1_554 S
C133   C654    1.466   .     S
C135   C142    1.401   .     A
C136   O170    1.302   .     A
C136   O173    1.303   .     A
C137   O172    1.302   .     A
C137   O171    1.303   .     A
C138   O174    1.374   .     S
C138   N162    1.379   .     A
C138   C489    1.413   1_545 S
C139   N161    1.378   .     A
C139   O164    1.375   .     S
C139   C314    1.413   .     S
C140   N162    1.379   .     A
C140   O165    1.374   .     S
C140   C487    1.413   1_545 S
C141   N161    1.378   .     A
C141   O166    1.375   .     S
C141   C312    1.413   .     S
C142   H156    1.083   .     S
Cu147  O172    1.951   .     S
Cu147  Cu148   2.710   .     S
Cu147  O168    1.965   .     S
Cu147  O163    1.965   .     S
Cu147  O170    1.951   .     S
Cu147  N161    2.037   .     S
Cu148  O171    1.951   .     S
Cu148  O173    1.951   .     S
Cu148  O169    1.965   .     S
Cu148  O167    1.965   .     S
Cu148  N162    2.037   .     S
H150   O164    0.982   .     S
H151   O165    0.982   .     S
H152   O166    0.982   .     S
H160   O174    0.982   .     S
C175   C193    1.452   .     S
C175   O227    1.301   .     A
C175   O221    1.301   .     A
C176   C192    1.401   .     A
C176   H215    1.083   .     S
C176   C236    1.384   .     S
C177   H216    1.083   .     S
C177   C192    1.401   .     A
C177   C258    1.384   .     S
C178   H217    1.083   .     S
C178   C193    1.401   .     A
C178   C292    1.384   1_455 S
C179   C183    1.392   .     A
C179   C190    1.408   .     A
C179   Cl201   1.762   .     S
C180   C184    1.392   .     A
C180   C191    1.408   .     A
C180   Cl202   1.762   .     S
C181   C185    1.392   .     A
C181   Cl203   1.762   .     S
C181   C191    1.408   .     A
C182   C187    1.392   .     A
C182   Cl204   1.762   .     S
C182   C190    1.408   .     A
C183   C188    1.399   .     A
C183   H207    1.084   .     S
C184   H211    1.083   .     S
C184   C189    1.399   .     A
C185   H212    1.084   .     S
C185   C189    1.399   .     A
C186   O225    1.301   .     A
C186   C192    1.452   .     S
C186   O226    1.301   .     A
C187   C188    1.399   .     A
C187   H213    1.083   .     S
C188   C194    1.457   .     S
C189   C195    1.457   .     S
C190   C713    1.466   1_554 S
C191   C712    1.466   .     S
C193   C200    1.401   .     A
C194   O228    1.302   .     A
C194   O231    1.303   .     A
C195   O230    1.302   .     A
C195   O229    1.303   .     A
C196   O232    1.374   .     S
C196   N220    1.379   .     A
C197   N219    1.378   .     A
C197   O222    1.375   .     S
C197   C372    1.413   .     S
C198   N220    1.379   .     A
C198   O223    1.374   .     S
C199   N219    1.378   .     A
C199   O224    1.375   .     S
C199   C370    1.413   .     S
C200   H214    1.083   .     S
C200   C293    1.384   1_455 S
Cu205  O230    1.951   .     S
Cu205  Cu206   2.710   .     S
Cu205  O226    1.965   .     S
Cu205  O221    1.965   .     S
Cu205  O228    1.951   .     S
Cu205  N219    2.037   .     S
Cu206  O229    1.951   .     S
Cu206  O231    1.951   .     S
Cu206  O227    1.965   .     S
Cu206  O225    1.965   .     S
Cu206  N220    2.037   .     S
H208   O222    0.982   .     S
H209   O223    0.982   .     S
H210   O224    0.982   .     S
H218   O232    0.982   .     S
C233   C251    1.452   .     S
C233   O285    1.301   .     A
C233   O279    1.301   .     A
C234   C250    1.401   .     A
C234   H273    1.083   .     S
C234   C294    1.384   .     S
C235   H274    1.083   .     S
C235   C250    1.401   .     A
C235   C316    1.384   .     S
C236   H275    1.083   .     S
C236   C251    1.401   .     A
C237   C241    1.392   .     A
C237   C248    1.408   .     A
C237   Cl259   1.762   .     S
C238   C242    1.392   .     A
C238   C249    1.408   .     A
C238   Cl260   1.762   .     S
C239   C243    1.392   .     A
C239   Cl261   1.762   .     S
C239   C249    1.408   .     A
C240   C245    1.392   .     A
C240   Cl262   1.762   .     S
C240   C248    1.408   .     A
C241   C246    1.399   .     A
C241   H265    1.084   .     S
C242   H269    1.083   .     S
C242   C247    1.399   .     A
C243   H270    1.084   .     S
C243   C247    1.399   .     A
C244   O283    1.301   .     A
C244   C250    1.452   .     S
C244   O284    1.301   .     A
C245   C246    1.399   .     A
C245   H271    1.083   .     S
C246   C252    1.457   .     S
C247   C253    1.457   .     S
C248   C771    1.466   1_554 S
C249   C770    1.466   .     S
C251   C258    1.401   .     A
C252   O286    1.302   .     A
C252   O289    1.303   .     A
C253   O288    1.302   .     A
C253   O287    1.303   .     A
C254   O290    1.374   .     S
C254   N278    1.379   .     A
C255   N277    1.378   .     A
C255   O280    1.375   .     S
C255   C430    1.413   .     S
C256   N278    1.379   .     A
C256   O281    1.374   .     S
C257   N277    1.378   .     A
C257   O282    1.375   .     S
C257   C428    1.413   .     S
C258   H272    1.083   .     S
Cu263  O288    1.951   .     S
Cu263  Cu264   2.710   .     S
Cu263  O284    1.965   .     S
Cu263  O279    1.965   .     S
Cu263  O286    1.951   .     S
Cu263  N277    2.037   .     S
Cu264  O287    1.951   .     S
Cu264  O289    1.951   .     S
Cu264  O285    1.965   .     S
Cu264  O283    1.965   .     S
Cu264  N278    2.037   .     S
H266   O280    0.982   .     S
H267   O281    0.982   .     S
H268   O282    0.982   .     S
H276   O290    0.982   .     S
C291   C309    1.452   .     S
C291   O343    1.301   .     A
C291   O337    1.301   .     A
C292   C308    1.401   .     A
C292   H331    1.083   .     S
C292   C178    1.384   1_655 S
C293   H332    1.083   .     S
C293   C308    1.401   .     A
C293   C200    1.384   1_655 S
C294   H333    1.083   .     S
C294   C309    1.401   .     A
C295   C299    1.392   .     A
C295   C306    1.408   .     A
C295   Cl317   1.762   .     S
C296   C300    1.392   .     A
C296   C307    1.408   .     A
C296   Cl318   1.762   .     S
C297   C301    1.392   .     A
C297   Cl319   1.762   .     S
C297   C307    1.408   .     A
C298   C303    1.392   .     A
C298   Cl320   1.762   .     S
C298   C306    1.408   .     A
C299   C304    1.399   .     A
C299   H323    1.084   .     S
C300   H327    1.083   .     S
C300   C305    1.399   .     A
C301   H328    1.084   .     S
C301   C305    1.399   .     A
C302   O341    1.301   .     A
C302   C308    1.452   .     S
C302   O342    1.301   .     A
C303   C304    1.399   .     A
C303   H329    1.083   .     S
C304   C310    1.457   .     S
C305   C311    1.457   .     S
C306   C829    1.466   1_554 S
C307   C828    1.466   .     S
C309   C316    1.401   .     A
C310   O344    1.302   .     A
C310   O347    1.303   .     A
C311   O346    1.302   .     A
C311   O345    1.303   .     A
C312   O348    1.374   .     S
C312   N336    1.379   .     A
C313   N335    1.378   .     A
C313   O338    1.375   .     S
C313   C488    1.413   .     S
C314   N336    1.379   .     A
C314   O339    1.374   .     S
C315   N335    1.378   .     A
C315   O340    1.375   .     S
C315   C486    1.413   .     S
C316   H330    1.083   .     S
Cu321  O346    1.951   .     S
Cu321  Cu322   2.710   .     S
Cu321  O342    1.965   .     S
Cu321  O337    1.965   .     S
Cu321  O344    1.951   .     S
Cu321  N335    2.037   .     S
Cu322  O345    1.951   .     S
Cu322  O347    1.951   .     S
Cu322  O343    1.965   .     S
Cu322  O341    1.965   .     S
Cu322  N336    2.037   .     S
H324   O338    0.982   .     S
H325   O339    0.982   .     S
H326   O340    0.982   .     S
H334   O348    0.982   .     S
C349   C367    1.452   .     S
C349   O401    1.301   .     A
C349   O395    1.301   .     A
C350   C366    1.401   .     A
C350   H389    1.083   .     S
C350   C410    1.384   .     S
C351   H390    1.083   .     S
C351   C366    1.401   .     A
C351   C432    1.384   .     S
C352   H391    1.083   .     S
C352   C367    1.401   .     A
C352   C466    1.384   1_455 S
C353   C357    1.392   .     A
C353   C364    1.408   .     A
C353   Cl375   1.762   .     S
C354   C358    1.392   .     A
C354   C365    1.408   .     A
C354   Cl376   1.762   .     S
C355   C359    1.392   .     A
C355   Cl377   1.762   .     S
C355   C365    1.408   .     A
C356   C361    1.392   .     A
C356   Cl378   1.762   .     S
C356   C364    1.408   .     A
C357   C362    1.399   .     A
C357   H381    1.084   .     S
C358   H385    1.083   .     S
C358   C363    1.399   .     A
C359   H386    1.084   .     S
C359   C363    1.399   .     A
C360   O399    1.301   .     A
C360   C366    1.452   .     S
C360   O400    1.301   .     A
C361   C362    1.399   .     A
C361   H387    1.083   .     S
C362   C368    1.457   .     S
C363   C369    1.457   .     S
C364   C887    1.466   1_554 S
C365   C886    1.466   .     S
C367   C374    1.401   .     A
C368   O402    1.302   .     A
C368   O405    1.303   .     A
C369   O404    1.302   .     A
C369   O403    1.303   .     A
C370   O406    1.374   .     S
C370   N394    1.379   .     A
C371   N393    1.378   .     A
C371   O396    1.375   .     S
C371   C24     1.413   1_565 S
C372   N394    1.379   .     A
C372   O397    1.374   .     S
C373   N393    1.378   .     A
C373   O398    1.375   .     S
C373   C22     1.413   1_565 S
C374   H388    1.083   .     S
C374   C467    1.384   1_455 S
Cu379  O404    1.951   .     S
Cu379  Cu380   2.710   .     S
Cu379  O400    1.965   .     S
Cu379  O395    1.965   .     S
Cu379  O402    1.951   .     S
Cu379  N393    2.037   .     S
Cu380  O403    1.951   .     S
Cu380  O405    1.951   .     S
Cu380  O401    1.965   .     S
Cu380  O399    1.965   .     S
Cu380  N394    2.037   .     S
H382   O396    0.982   .     S
H383   O397    0.982   .     S
H384   O398    0.982   .     S
H392   O406    0.982   .     S
C407   C425    1.452   .     S
C407   O459    1.301   .     A
C407   O453    1.301   .     A
C408   C424    1.401   .     A
C408   H447    1.083   .     S
C408   C468    1.384   .     S
C409   H448    1.083   .     S
C409   C424    1.401   .     A
C409   C490    1.384   .     S
C410   H449    1.083   .     S
C410   C425    1.401   .     A
C411   C415    1.392   .     A
C411   C422    1.408   .     A
C411   Cl433   1.762   .     S
C412   C416    1.392   .     A
C412   C423    1.408   .     A
C412   Cl434   1.762   .     S
C413   C417    1.392   .     A
C413   Cl435   1.762   .     S
C413   C423    1.408   .     A
C414   C419    1.392   .     A
C414   Cl436   1.762   .     S
C414   C422    1.408   .     A
C415   C420    1.399   .     A
C415   H439    1.084   .     S
C416   H443    1.083   .     S
C416   C421    1.399   .     A
C417   H444    1.084   .     S
C417   C421    1.399   .     A
C418   O457    1.301   .     A
C418   C424    1.452   .     S
C418   O458    1.301   .     A
C419   C420    1.399   .     A
C419   H445    1.083   .     S
C420   C426    1.457   .     S
C421   C427    1.457   .     S
C422   C945    1.466   1_554 S
C423   C944    1.466   .     S
C425   C432    1.401   .     A
C426   O460    1.302   .     A
C426   O463    1.303   .     A
C427   O462    1.302   .     A
C427   O461    1.303   .     A
C428   O464    1.374   .     S
C428   N452    1.379   .     A
C429   N451    1.378   .     A
C429   O454    1.375   .     S
C429   C82     1.413   1_565 S
C430   N452    1.379   .     A
C430   O455    1.374   .     S
C431   N451    1.378   .     A
C431   O456    1.375   .     S
C431   C80     1.413   1_565 S
C432   H446    1.083   .     S
Cu437  O462    1.951   .     S
Cu437  Cu438   2.710   .     S
Cu437  O458    1.965   .     S
Cu437  O453    1.965   .     S
Cu437  O460    1.951   .     S
Cu437  N451    2.037   .     S
Cu438  O461    1.951   .     S
Cu438  O463    1.951   .     S
Cu438  O459    1.965   .     S
Cu438  O457    1.965   .     S
Cu438  N452    2.037   .     S
H440   O454    0.982   .     S
H441   O455    0.982   .     S
H442   O456    0.982   .     S
H450   O464    0.982   .     S
C465   C483    1.452   .     S
C465   O517    1.301   .     A
C465   O511    1.301   .     A
C466   C482    1.401   .     A
C466   H505    1.083   .     S
C466   C352    1.384   1_655 S
C467   H506    1.083   .     S
C467   C482    1.401   .     A
C467   C374    1.384   1_655 S
C468   H507    1.083   .     S
C468   C483    1.401   .     A
C469   C473    1.392   .     A
C469   C480    1.408   .     A
C469   Cl491   1.762   .     S
C470   C474    1.392   .     A
C470   C481    1.408   .     A
C470   Cl492   1.762   .     S
C471   C475    1.392   .     A
C471   Cl493   1.762   .     S
C471   C481    1.408   .     A
C472   C477    1.392   .     A
C472   Cl494   1.762   .     S
C472   C480    1.408   .     A
C473   C478    1.399   .     A
C473   H497    1.084   .     S
C474   H501    1.083   .     S
C474   C479    1.399   .     A
C475   H502    1.084   .     S
C475   C479    1.399   .     A
C476   O515    1.301   .     A
C476   C482    1.452   .     S
C476   O516    1.301   .     A
C477   C478    1.399   .     A
C477   H503    1.083   .     S
C478   C484    1.457   .     S
C479   C485    1.457   .     S
C480   C1003   1.466   1_554 S
C481   C1002   1.466   .     S
C483   C490    1.401   .     A
C484   O518    1.302   .     A
C484   O521    1.303   .     A
C485   O520    1.302   .     A
C485   O519    1.303   .     A
C486   O522    1.374   .     S
C486   N510    1.379   .     A
C487   N509    1.378   .     A
C487   O512    1.375   .     S
C487   C140    1.413   1_565 S
C488   N510    1.379   .     A
C488   O513    1.374   .     S
C489   N509    1.378   .     A
C489   O514    1.375   .     S
C489   C138    1.413   1_565 S
C490   H504    1.083   .     S
Cu495  O520    1.951   .     S
Cu495  Cu496   2.710   .     S
Cu495  O516    1.965   .     S
Cu495  O511    1.965   .     S
Cu495  O518    1.951   .     S
Cu495  N509    2.037   .     S
Cu496  O519    1.951   .     S
Cu496  O521    1.951   .     S
Cu496  O517    1.965   .     S
Cu496  O515    1.965   .     S
Cu496  N510    2.037   .     S
H498   O512    0.982   .     S
H499   O513    0.982   .     S
H500   O514    0.982   .     S
H508   O522    0.982   .     S
C523   C541    1.452   .     S
C523   O575    1.301   .     A
C523   O569    1.301   .     A
C524   C540    1.401   .     A
C524   H563    1.083   .     S
C524   C584    1.384   .     S
C525   H564    1.083   .     S
C525   C540    1.401   .     A
C525   C606    1.384   .     S
C526   H565    1.083   .     S
C526   C541    1.401   .     A
C526   C640    1.384   1_455 S
C527   C531    1.392   .     A
C527   C538    1.408   .     A
C527   Cl549   1.762   .     S
C528   C532    1.392   .     A
C528   C539    1.408   .     A
C528   Cl550   1.762   .     S
C529   C533    1.392   .     A
C529   Cl551   1.762   .     S
C529   C539    1.408   .     A
C530   C535    1.392   .     A
C530   Cl552   1.762   .     S
C530   C538    1.408   .     A
C531   C536    1.399   .     A
C531   H555    1.084   .     S
C532   H559    1.083   .     S
C532   C537    1.399   .     A
C533   H560    1.084   .     S
C533   C537    1.399   .     A
C534   O573    1.301   .     A
C534   C540    1.452   .     S
C534   O574    1.301   .     A
C535   C536    1.399   .     A
C535   H561    1.083   .     S
C536   C542    1.457   .     S
C537   C543    1.457   .     S
C539   C16     1.466   1_556 S
C541   C548    1.401   .     A
C542   O576    1.302   .     A
C542   O579    1.303   .     A
C543   O578    1.302   .     A
C543   O577    1.303   .     A
C544   O580    1.374   .     S
C544   N568    1.379   .     A
C544   C895    1.413   1_545 S
C545   N567    1.378   .     A
C545   O570    1.375   .     S
C545   C720    1.413   .     S
C546   N568    1.379   .     A
C546   O571    1.374   .     S
C546   C893    1.413   1_545 S
C547   N567    1.378   .     A
C547   O572    1.375   .     S
C547   C718    1.413   .     S
C548   H562    1.083   .     S
C548   C641    1.384   1_455 S
Cu553  O578    1.951   .     S
Cu553  Cu554   2.710   .     S
Cu553  O574    1.965   .     S
Cu553  O569    1.965   .     S
Cu553  O576    1.951   .     S
Cu553  N567    2.037   .     S
Cu554  O577    1.951   .     S
Cu554  O579    1.951   .     S
Cu554  O575    1.965   .     S
Cu554  O573    1.965   .     S
Cu554  N568    2.037   .     S
H556   O570    0.982   .     S
H557   O571    0.982   .     S
H558   O572    0.982   .     S
H566   O580    0.982   .     S
C581   C599    1.452   .     S
C581   O633    1.301   .     A
C581   O627    1.301   .     A
C582   C598    1.401   .     A
C582   H621    1.083   .     S
C582   C642    1.384   .     S
C583   H622    1.083   .     S
C583   C598    1.401   .     A
C583   C664    1.384   .     S
C584   H623    1.083   .     S
C584   C599    1.401   .     A
C585   C589    1.392   .     A
C585   C596    1.408   .     A
C585   Cl607   1.762   .     S
C586   C590    1.392   .     A
C586   C597    1.408   .     A
C586   Cl608   1.762   .     S
C587   C591    1.392   .     A
C587   Cl609   1.762   .     S
C587   C597    1.408   .     A
C588   C593    1.392   .     A
C588   Cl610   1.762   .     S
C588   C596    1.408   .     A
C589   C594    1.399   .     A
C589   H613    1.084   .     S
C590   H617    1.083   .     S
C590   C595    1.399   .     A
C591   H618    1.084   .     S
C591   C595    1.399   .     A
C592   O631    1.301   .     A
C592   C598    1.452   .     S
C592   O632    1.301   .     A
C593   C594    1.399   .     A
C593   H619    1.083   .     S
C594   C600    1.457   .     S
C595   C601    1.457   .     S
C597   C74     1.466   1_556 S
C599   C606    1.401   .     A
C600   O634    1.302   .     A
C600   O637    1.303   .     A
C601   O636    1.302   .     A
C601   O635    1.303   .     A
C602   O638    1.374   .     S
C602   N626    1.379   .     A
C602   C953    1.413   1_545 S
C603   N625    1.378   .     A
C603   O628    1.375   .     S
C603   C778    1.413   .     S
C604   N626    1.379   .     A
C604   O629    1.374   .     S
C604   C951    1.413   1_545 S
C605   N625    1.378   .     A
C605   O630    1.375   .     S
C605   C776    1.413   .     S
C606   H620    1.083   .     S
Cu611  O636    1.951   .     S
Cu611  Cu612   2.710   .     S
Cu611  O632    1.965   .     S
Cu611  O627    1.965   .     S
Cu611  O634    1.951   .     S
Cu611  N625    2.037   .     S
Cu612  O635    1.951   .     S
Cu612  O637    1.951   .     S
Cu612  O633    1.965   .     S
Cu612  O631    1.965   .     S
Cu612  N626    2.037   .     S
H614   O628    0.982   .     S
H615   O629    0.982   .     S
H616   O630    0.982   .     S
H624   O638    0.982   .     S
C639   C657    1.452   .     S
C639   O691    1.301   .     A
C639   O685    1.301   .     A
C640   C656    1.401   .     A
C640   H679    1.083   .     S
C640   C526    1.384   1_655 S
C641   H680    1.083   .     S
C641   C656    1.401   .     A
C641   C548    1.384   1_655 S
C642   H681    1.083   .     S
C642   C657    1.401   .     A
C643   C647    1.392   .     A
C643   C654    1.408   .     A
C643   Cl665   1.762   .     S
C644   C648    1.392   .     A
C644   C655    1.408   .     A
C644   Cl666   1.762   .     S
C645   C649    1.392   .     A
C645   Cl667   1.762   .     S
C645   C655    1.408   .     A
C646   C651    1.392   .     A
C646   Cl668   1.762   .     S
C646   C654    1.408   .     A
C647   C652    1.399   .     A
C647   H671    1.084   .     S
C648   H675    1.083   .     S
C648   C653    1.399   .     A
C649   H676    1.084   .     S
C649   C653    1.399   .     A
C650   O689    1.301   .     A
C650   C656    1.452   .     S
C650   O690    1.301   .     A
C651   C652    1.399   .     A
C651   H677    1.083   .     S
C652   C658    1.457   .     S
C653   C659    1.457   .     S
C655   C132    1.466   1_556 S
C657   C664    1.401   .     A
C658   O692    1.302   .     A
C658   O695    1.303   .     A
C659   O694    1.302   .     A
C659   O693    1.303   .     A
C660   O696    1.374   .     S
C660   N684    1.379   .     A
C660   C1011   1.413   1_545 S
C661   N683    1.378   .     A
C661   O686    1.375   .     S
C661   C836    1.413   .     S
C662   N684    1.379   .     A
C662   O687    1.374   .     S
C662   C1009   1.413   1_545 S
C663   N683    1.378   .     A
C663   O688    1.375   .     S
C663   C834    1.413   .     S
C664   H678    1.083   .     S
Cu669  O694    1.951   .     S
Cu669  Cu670   2.710   .     S
Cu669  O690    1.965   .     S
Cu669  O685    1.965   .     S
Cu669  O692    1.951   .     S
Cu669  N683    2.037   .     S
Cu670  O693    1.951   .     S
Cu670  O695    1.951   .     S
Cu670  O691    1.965   .     S
Cu670  O689    1.965   .     S
Cu670  N684    2.037   .     S
H672   O686    0.982   .     S
H673   O687    0.982   .     S
H674   O688    0.982   .     S
H682   O696    0.982   .     S
C697   C715    1.452   .     S
C697   O749    1.301   .     A
C697   O743    1.301   .     A
C698   C714    1.401   .     A
C698   H737    1.083   .     S
C698   C758    1.384   .     S
C699   H738    1.083   .     S
C699   C714    1.401   .     A
C699   C780    1.384   .     S
C700   H739    1.083   .     S
C700   C715    1.401   .     A
C700   C814    1.384   1_455 S
C701   C705    1.392   .     A
C701   C712    1.408   .     A
C701   Cl723   1.762   .     S
C702   C706    1.392   .     A
C702   C713    1.408   .     A
C702   Cl724   1.762   .     S
C703   C707    1.392   .     A
C703   Cl725   1.762   .     S
C703   C713    1.408   .     A
C704   C709    1.392   .     A
C704   Cl726   1.762   .     S
C704   C712    1.408   .     A
C705   C710    1.399   .     A
C705   H729    1.084   .     S
C706   H733    1.083   .     S
C706   C711    1.399   .     A
C707   H734    1.084   .     S
C707   C711    1.399   .     A
C708   O747    1.301   .     A
C708   C714    1.452   .     S
C708   O748    1.301   .     A
C709   C710    1.399   .     A
C709   H735    1.083   .     S
C710   C716    1.457   .     S
C711   C717    1.457   .     S
C713   C190    1.466   1_556 S
C715   C722    1.401   .     A
C716   O750    1.302   .     A
C716   O753    1.303   .     A
C717   O752    1.302   .     A
C717   O751    1.303   .     A
C718   O754    1.374   .     S
C718   N742    1.379   .     A
C719   N741    1.378   .     A
C719   O744    1.375   .     S
C719   C894    1.413   .     S
C720   N742    1.379   .     A
C720   O745    1.374   .     S
C721   N741    1.378   .     A
C721   O746    1.375   .     S
C721   C892    1.413   .     S
C722   H736    1.083   .     S
C722   C815    1.384   1_455 S
Cu727  O752    1.951   .     S
Cu727  Cu728   2.710   .     S
Cu727  O748    1.965   .     S
Cu727  O743    1.965   .     S
Cu727  O750    1.951   .     S
Cu727  N741    2.037   .     S
Cu728  O751    1.951   .     S
Cu728  O753    1.951   .     S
Cu728  O749    1.965   .     S
Cu728  O747    1.965   .     S
Cu728  N742    2.037   .     S
H730   O744    0.982   .     S
H731   O745    0.982   .     S
H732   O746    0.982   .     S
H740   O754    0.982   .     S
C755   C773    1.452   .     S
C755   O807    1.301   .     A
C755   O801    1.301   .     A
C756   C772    1.401   .     A
C756   H795    1.083   .     S
C756   C816    1.384   .     S
C757   H796    1.083   .     S
C757   C772    1.401   .     A
C757   C838    1.384   .     S
C758   H797    1.083   .     S
C758   C773    1.401   .     A
C759   C763    1.392   .     A
C759   C770    1.408   .     A
C759   Cl781   1.762   .     S
C760   C764    1.392   .     A
C760   C771    1.408   .     A
C760   Cl782   1.762   .     S
C761   C765    1.392   .     A
C761   Cl783   1.762   .     S
C761   C771    1.408   .     A
C762   C767    1.392   .     A
C762   Cl784   1.762   .     S
C762   C770    1.408   .     A
C763   C768    1.399   .     A
C763   H787    1.084   .     S
C764   H791    1.083   .     S
C764   C769    1.399   .     A
C765   H792    1.084   .     S
C765   C769    1.399   .     A
C766   O805    1.301   .     A
C766   C772    1.452   .     S
C766   O806    1.301   .     A
C767   C768    1.399   .     A
C767   H793    1.083   .     S
C768   C774    1.457   .     S
C769   C775    1.457   .     S
C771   C248    1.466   1_556 S
C773   C780    1.401   .     A
C774   O808    1.302   .     A
C774   O811    1.303   .     A
C775   O810    1.302   .     A
C775   O809    1.303   .     A
C776   O812    1.374   .     S
C776   N800    1.379   .     A
C777   N799    1.378   .     A
C777   O802    1.375   .     S
C777   C952    1.413   .     S
C778   N800    1.379   .     A
C778   O803    1.374   .     S
C779   N799    1.378   .     A
C779   O804    1.375   .     S
C779   C950    1.413   .     S
C780   H794    1.083   .     S
Cu785  O810    1.951   .     S
Cu785  Cu786   2.710   .     S
Cu785  O806    1.965   .     S
Cu785  O801    1.965   .     S
Cu785  O808    1.951   .     S
Cu785  N799    2.037   .     S
Cu786  O809    1.951   .     S
Cu786  O811    1.951   .     S
Cu786  O807    1.965   .     S
Cu786  O805    1.965   .     S
Cu786  N800    2.037   .     S
H788   O802    0.982   .     S
H789   O803    0.982   .     S
H790   O804    0.982   .     S
H798   O812    0.982   .     S
C813   C831    1.452   .     S
C813   O865    1.301   .     A
C813   O859    1.301   .     A
C814   C830    1.401   .     A
C814   H853    1.083   .     S
C814   C700    1.384   1_655 S
C815   H854    1.083   .     S
C815   C830    1.401   .     A
C815   C722    1.384   1_655 S
C816   H855    1.083   .     S
C816   C831    1.401   .     A
C817   C821    1.392   .     A
C817   C828    1.408   .     A
C817   Cl839   1.762   .     S
C818   C822    1.392   .     A
C818   C829    1.408   .     A
C818   Cl840   1.762   .     S
C819   C823    1.392   .     A
C819   Cl841   1.762   .     S
C819   C829    1.408   .     A
C820   C825    1.392   .     A
C820   Cl842   1.762   .     S
C820   C828    1.408   .     A
C821   C826    1.399   .     A
C821   H845    1.084   .     S
C822   H849    1.083   .     S
C822   C827    1.399   .     A
C823   H850    1.084   .     S
C823   C827    1.399   .     A
C824   O863    1.301   .     A
C824   C830    1.452   .     S
C824   O864    1.301   .     A
C825   C826    1.399   .     A
C825   H851    1.083   .     S
C826   C832    1.457   .     S
C827   C833    1.457   .     S
C829   C306    1.466   1_556 S
C831   C838    1.401   .     A
C832   O866    1.302   .     A
C832   O869    1.303   .     A
C833   O868    1.302   .     A
C833   O867    1.303   .     A
C834   O870    1.374   .     S
C834   N858    1.379   .     A
C835   N857    1.378   .     A
C835   O860    1.375   .     S
C835   C1010   1.413   .     S
C836   N858    1.379   .     A
C836   O861    1.374   .     S
C837   N857    1.378   .     A
C837   O862    1.375   .     S
C837   C1008   1.413   .     S
C838   H852    1.083   .     S
Cu843  O868    1.951   .     S
Cu843  Cu844   2.710   .     S
Cu843  O864    1.965   .     S
Cu843  O859    1.965   .     S
Cu843  O866    1.951   .     S
Cu843  N857    2.037   .     S
Cu844  O867    1.951   .     S
Cu844  O869    1.951   .     S
Cu844  O865    1.965   .     S
Cu844  O863    1.965   .     S
Cu844  N858    2.037   .     S
H846   O860    0.982   .     S
H847   O861    0.982   .     S
H848   O862    0.982   .     S
H856   O870    0.982   .     S
C871   C889    1.452   .     S
C871   O923    1.301   .     A
C871   O917    1.301   .     A
C872   C888    1.401   .     A
C872   H911    1.083   .     S
C872   C932    1.384   .     S
C873   H912    1.083   .     S
C873   C888    1.401   .     A
C873   C954    1.384   .     S
C874   H913    1.083   .     S
C874   C889    1.401   .     A
C874   C988    1.384   1_455 S
C875   C879    1.392   .     A
C875   C886    1.408   .     A
C875   Cl897   1.762   .     S
C876   C880    1.392   .     A
C876   C887    1.408   .     A
C876   Cl898   1.762   .     S
C877   C881    1.392   .     A
C877   Cl899   1.762   .     S
C877   C887    1.408   .     A
C878   C883    1.392   .     A
C878   Cl900   1.762   .     S
C878   C886    1.408   .     A
C879   C884    1.399   .     A
C879   H903    1.084   .     S
C880   H907    1.083   .     S
C880   C885    1.399   .     A
C881   H908    1.084   .     S
C881   C885    1.399   .     A
C882   O921    1.301   .     A
C882   C888    1.452   .     S
C882   O922    1.301   .     A
C883   C884    1.399   .     A
C883   H909    1.083   .     S
C884   C890    1.457   .     S
C885   C891    1.457   .     S
C887   C364    1.466   1_556 S
C889   C896    1.401   .     A
C890   O924    1.302   .     A
C890   O927    1.303   .     A
C891   O926    1.302   .     A
C891   O925    1.303   .     A
C892   O928    1.374   .     S
C892   N916    1.379   .     A
C893   N915    1.378   .     A
C893   O918    1.375   .     S
C893   C546    1.413   1_565 S
C894   N916    1.379   .     A
C894   O919    1.374   .     S
C895   N915    1.378   .     A
C895   O920    1.375   .     S
C895   C544    1.413   1_565 S
C896   H910    1.083   .     S
C896   C989    1.384   1_455 S
Cu901  O926    1.951   .     S
Cu901  Cu902   2.710   .     S
Cu901  O922    1.965   .     S
Cu901  O917    1.965   .     S
Cu901  O924    1.951   .     S
Cu901  N915    2.037   .     S
Cu902  O925    1.951   .     S
Cu902  O927    1.951   .     S
Cu902  O923    1.965   .     S
Cu902  O921    1.965   .     S
Cu902  N916    2.037   .     S
H904   O918    0.982   .     S
H905   O919    0.982   .     S
H906   O920    0.982   .     S
H914   O928    0.982   .     S
C929   C947    1.452   .     S
C929   O981    1.301   .     A
C929   O975    1.301   .     A
C930   C946    1.401   .     A
C930   H969    1.083   .     S
C930   C990    1.384   .     S
C931   H970    1.083   .     S
C931   C946    1.401   .     A
C931   C1012   1.384   .     S
C932   H971    1.083   .     S
C932   C947    1.401   .     A
C933   C937    1.392   .     A
C933   C944    1.408   .     A
C933   Cl955   1.762   .     S
C934   C938    1.392   .     A
C934   C945    1.408   .     A
C934   Cl956   1.762   .     S
C935   C939    1.392   .     A
C935   Cl957   1.762   .     S
C935   C945    1.408   .     A
C936   C941    1.392   .     A
C936   Cl958   1.762   .     S
C936   C944    1.408   .     A
C937   C942    1.399   .     A
C937   H961    1.084   .     S
C938   H965    1.083   .     S
C938   C943    1.399   .     A
C939   H966    1.084   .     S
C939   C943    1.399   .     A
C940   O979    1.301   .     A
C940   C946    1.452   .     S
C940   O980    1.301   .     A
C941   C942    1.399   .     A
C941   H967    1.083   .     S
C942   C948    1.457   .     S
C943   C949    1.457   .     S
C945   C422    1.466   1_556 S
C947   C954    1.401   .     A
C948   O982    1.302   .     A
C948   O985    1.303   .     A
C949   O984    1.302   .     A
C949   O983    1.303   .     A
C950   O986    1.374   .     S
C950   N974    1.379   .     A
C951   N973    1.378   .     A
C951   O976    1.375   .     S
C951   C604    1.413   1_565 S
C952   N974    1.379   .     A
C952   O977    1.374   .     S
C953   N973    1.378   .     A
C953   O978    1.375   .     S
C953   C602    1.413   1_565 S
C954   H968    1.083   .     S
Cu959  O984    1.951   .     S
Cu959  Cu960   2.710   .     S
Cu959  O980    1.965   .     S
Cu959  O975    1.965   .     S
Cu959  O982    1.951   .     S
Cu959  N973    2.037   .     S
Cu960  O983    1.951   .     S
Cu960  O985    1.951   .     S
Cu960  O981    1.965   .     S
Cu960  O979    1.965   .     S
Cu960  N974    2.037   .     S
H962   O976    0.982   .     S
H963   O977    0.982   .     S
H964   O978    0.982   .     S
H972   O986    0.982   .     S
C987   C1005   1.452   .     S
C987   O1039   1.301   .     A
C987   O1033   1.301   .     A
C988   C1004   1.401   .     A
C988   H1027   1.083   .     S
C988   C874    1.384   1_655 S
C989   H1028   1.083   .     S
C989   C1004   1.401   .     A
C989   C896    1.384   1_655 S
C990   H1029   1.083   .     S
C990   C1005   1.401   .     A
C991   C995    1.392   .     A
C991   C1002   1.408   .     A
C991   Cl1013  1.762   .     S
C992   C996    1.392   .     A
C992   C1003   1.408   .     A
C992   Cl1014  1.762   .     S
C993   C997    1.392   .     A
C993   Cl1015  1.762   .     S
C993   C1003   1.408   .     A
C994   C999    1.392   .     A
C994   Cl1016  1.762   .     S
C994   C1002   1.408   .     A
C995   C1000   1.399   .     A
C995   H1019   1.084   .     S
C996   H1023   1.083   .     S
C996   C1001   1.399   .     A
C997   H1024   1.084   .     S
C997   C1001   1.399   .     A
C998   O1037   1.301   .     A
C998   C1004   1.452   .     S
C998   O1038   1.301   .     A
C999   C1000   1.399   .     A
C999   H1025   1.083   .     S
C1000  C1006   1.457   .     S
C1001  C1007   1.457   .     S
C1003  C480    1.466   1_556 S
C1005  C1012   1.401   .     A
C1006  O1040   1.302   .     A
C1006  O1043   1.303   .     A
C1007  O1042   1.302   .     A
C1007  O1041   1.303   .     A
C1008  O1044   1.374   .     S
C1008  N1032   1.379   .     A
C1009  N1031   1.378   .     A
C1009  O1034   1.375   .     S
C1009  C662    1.413   1_565 S
C1010  N1032   1.379   .     A
C1010  O1035   1.374   .     S
C1011  N1031   1.378   .     A
C1011  O1036   1.375   .     S
C1011  C660    1.413   1_565 S
C1012  H1026   1.083   .     S
Cu1017 O1042   1.951   .     S
Cu1017 Cu1018  2.710   .     S
Cu1017 O1038   1.965   .     S
Cu1017 O1033   1.965   .     S
Cu1017 O1040   1.951   .     S
Cu1017 N1031   2.037   .     S
Cu1018 O1041   1.951   .     S
Cu1018 O1043   1.951   .     S
Cu1018 O1039   1.965   .     S
Cu1018 O1037   1.965   .     S
Cu1018 N1032   2.037   .     S
H1020  O1034   0.982   .     S
H1021  O1035   0.982   .     S
H1022  O1036   0.982   .     S
H1030  O1044   0.982   .     S
