data_str_m2_o2_o10_pcu_sym.153
_audit_creation_date              2020-01-03
_audit_creation_method            'Materials Studio'
_symmetry_space_group_name_H-M    'P1'
_symmetry_Int_Tables_number       1
_symmetry_cell_setting            triclinic
loop_
_symmetry_equiv_pos_as_xyz
  x,y,z
_cell_length_a                    26.1446
_cell_length_b                    30.2324
_cell_length_c                    27.9719
_cell_angle_alpha                 88.0480
_cell_angle_beta                  97.9640
_cell_angle_gamma                 93.5233
loop_
_atom_site_label
_atom_site_type_symbol
_atom_site_fract_x
_atom_site_fract_y
_atom_site_fract_z
_atom_site_U_iso_or_equiv
_atom_site_adp_type
_atom_site_occupancy
C1     C     0.17120   0.16517   0.25153   0.00000  Uiso   1.00
C2     C     0.16214   0.33483   0.24847   0.00000  Uiso   1.00
C3     C     0.20435   0.27399   0.05775   0.00000  Uiso   1.00
C4     C     0.12898   0.22601   0.44225   0.00000  Uiso   1.00
C5     C     0.20312   0.27573   0.10789   0.00000  Uiso   1.00
C6     C     0.13022   0.22427   0.39211   0.00000  Uiso   1.00
C7     C     0.13560   0.21924   0.10143   0.00000  Uiso   1.00
C8     C     0.19774   0.28076   0.39857   0.00000  Uiso   1.00
C9     C     0.14086   0.21425   0.05210   0.00000  Uiso   1.00
C10    C     0.19248   0.28575   0.44790   0.00000  Uiso   1.00
C11    C     0.16857   0.24757   0.02762   0.00000  Uiso   1.00
C12    C     0.16476   0.25243   0.47238   0.00000  Uiso   1.00
C13    C     0.06798   0.24989   0.23761   0.00000  Uiso   1.00
C14    C     0.26536   0.25011   0.26239   0.00000  Uiso   1.00
C15    C     0.01262   0.24974   0.23084   0.00000  Uiso   1.00
C16    C     0.32071   0.25026   0.26916   0.00000  Uiso   1.00
C17    C     0.17832   0.04506   0.29808   0.00000  Uiso   1.00
C18    C     0.15502   0.45494   0.20192   0.00000  Uiso   1.00
C19    C     0.17655   0.09149   0.29861   0.00000  Uiso   1.00
C20    C     0.15679   0.40851   0.20139   0.00000  Uiso   1.00
C21    C     0.18097   0.11705   0.25531   0.00000  Uiso   1.00
C22    C     0.15236   0.38295   0.24469   0.00000  Uiso   1.00
C23    C     0.19680   0.09552   0.21600   0.00000  Uiso   1.00
C24    C     0.13653   0.40448   0.28400   0.00000  Uiso   1.00
C25    C     0.19363   0.04927   0.21579   0.00000  Uiso   1.00
C26    C     0.13970   0.45073   0.28421   0.00000  Uiso   1.00
C27    C     0.17509   0.02403   0.25332   0.00000  Uiso   1.00
C28    C     0.15824   0.47597   0.24668   0.00000  Uiso   1.00
Cu29   Cu    0.16667   0.24999   0.29822   0.00000  Uiso   1.00
Cu30   Cu    0.16667   0.25000   0.20179   0.00000  Uiso   1.00
H31    H     0.32590   0.24914   0.19411   0.00000  Uiso   1.00
H32    H     0.00743   0.25086   0.30589   0.00000  Uiso   1.00
H33    H     0.20728   0.03291   0.18668   0.00000  Uiso   1.00
H34    H     0.12605   0.46709   0.31332   0.00000  Uiso   1.00
H35    H     0.23539   0.29201   0.04273   0.00000  Uiso   1.00
H36    H     0.09794   0.20799   0.45727   0.00000  Uiso   1.00
N37    N     0.16667   0.25001   0.12935   0.00000  Uiso   1.00
N38    N     0.16667   0.24999   0.37066   0.00000  Uiso   1.00
O39    O     0.16667   0.18572   0.29072   0.00000  Uiso   1.00
O40    O     0.16666   0.31427   0.20929   0.00000  Uiso   1.00
O41    O     0.16667   0.18573   0.20928   0.00000  Uiso   1.00
O42    O     0.16666   0.31427   0.29072   0.00000  Uiso   1.00
O43    O     0.09161   0.24999   0.28132   0.00000  Uiso   1.00
O44    O     0.24172   0.25000   0.21868   0.00000  Uiso   1.00
O45    O     0.09161   0.25000   0.19989   0.00000  Uiso   1.00
O46    O     0.24172   0.25000   0.30012   0.00000  Uiso   1.00
I47    I     0.20991   0.01204   0.36430   0.00000  Uiso   1.00
I48    I     0.12342   0.48796   0.13570   0.00000  Uiso   1.00
C49    C     0.17356   0.11207   0.34544   0.00000  Uiso   1.00
H50    H     0.19986   0.13982   0.35767   0.00000  Uiso   1.00
O51    O     0.14189   0.09768   0.37114   0.00000  Uiso   1.00
C52    C     0.15977   0.38793   0.15456   0.00000  Uiso   1.00
H53    H     0.13347   0.36018   0.14233   0.00000  Uiso   1.00
O54    O     0.19145   0.40232   0.12886   0.00000  Uiso   1.00
C55    C     0.21967   0.11999   0.17628   0.00000  Uiso   1.00
H56    H     0.23831   0.15280   0.18186   0.00000  Uiso   1.00
O57    O     0.21903   0.10328   0.13705   0.00000  Uiso   1.00
C58    C     0.11367   0.38001   0.32372   0.00000  Uiso   1.00
H59    H     0.09502   0.34720   0.31814   0.00000  Uiso   1.00
O60    O     0.11431   0.39672   0.36295   0.00000  Uiso   1.00
C61    C     0.24251   0.30591   0.13572   0.00000  Uiso   1.00
H62    H     0.23891   0.31605   0.17137   0.00000  Uiso   1.00
O63    O     0.28064   0.32072   0.11842   0.00000  Uiso   1.00
C64    C     0.09083   0.19409   0.36428   0.00000  Uiso   1.00
H65    H     0.09442   0.18395   0.32863   0.00000  Uiso   1.00
O66    O     0.05269   0.17928   0.38158   0.00000  Uiso   1.00
I67    I     0.07663   0.17723   0.12872   0.00000  Uiso   1.00
I68    I     0.25670   0.32277   0.37128   0.00000  Uiso   1.00
I69    I     0.13133   0.14748   0.02631   0.00000  Uiso   1.00
I70    I     0.20200   0.35252   0.47369   0.00000  Uiso   1.00
C71    C     0.50453   0.16517   0.25153   0.00000  Uiso   1.00
C72    C     0.49547   0.33483   0.24847   0.00000  Uiso   1.00
C73    C     0.53768   0.27399   0.05775   0.00000  Uiso   1.00
C74    C     0.46232   0.22601   0.44225   0.00000  Uiso   1.00
C75    C     0.53645   0.27573   0.10789   0.00000  Uiso   1.00
C76    C     0.46355   0.22427   0.39211   0.00000  Uiso   1.00
C77    C     0.46893   0.21924   0.10143   0.00000  Uiso   1.00
C78    C     0.53107   0.28076   0.39857   0.00000  Uiso   1.00
C79    C     0.47419   0.21425   0.05210   0.00000  Uiso   1.00
C80    C     0.52581   0.28575   0.44790   0.00000  Uiso   1.00
C81    C     0.50190   0.24757   0.02762   0.00000  Uiso   1.00
C82    C     0.49810   0.25243   0.47238   0.00000  Uiso   1.00
C83    C     0.40131   0.24989   0.23761   0.00000  Uiso   1.00
C84    C     0.59869   0.25011   0.26239   0.00000  Uiso   1.00
C85    C     0.34595   0.24974   0.23084   0.00000  Uiso   1.00
C86    C     0.65405   0.25026   0.26916   0.00000  Uiso   1.00
C87    C     0.51165   0.04506   0.29808   0.00000  Uiso   1.00
C88    C     0.48835   0.45494   0.20192   0.00000  Uiso   1.00
C89    C     0.50988   0.09149   0.29861   0.00000  Uiso   1.00
C90    C     0.49012   0.40851   0.20139   0.00000  Uiso   1.00
C91    C     0.51431   0.11705   0.25531   0.00000  Uiso   1.00
C92    C     0.48569   0.38295   0.24469   0.00000  Uiso   1.00
C93    C     0.53014   0.09552   0.21600   0.00000  Uiso   1.00
C94    C     0.46986   0.40448   0.28400   0.00000  Uiso   1.00
C95    C     0.52696   0.04927   0.21579   0.00000  Uiso   1.00
C96    C     0.47304   0.45073   0.28421   0.00000  Uiso   1.00
C97    C     0.50843   0.02403   0.25332   0.00000  Uiso   1.00
C98    C     0.49157   0.47597   0.24668   0.00000  Uiso   1.00
Cu99   Cu    0.50000   0.24999   0.29822   0.00000  Uiso   1.00
Cu100  Cu    0.50000   0.25000   0.20179   0.00000  Uiso   1.00
H101   H     0.65924   0.24914   0.19411   0.00000  Uiso   1.00
H102   H     0.34076   0.25086   0.30589   0.00000  Uiso   1.00
H103   H     0.54062   0.03291   0.18668   0.00000  Uiso   1.00
H104   H     0.45938   0.46709   0.31332   0.00000  Uiso   1.00
H105   H     0.56873   0.29201   0.04273   0.00000  Uiso   1.00
H106   H     0.43127   0.20799   0.45727   0.00000  Uiso   1.00
N107   N     0.50000   0.25001   0.12935   0.00000  Uiso   1.00
N108   N     0.50000   0.24999   0.37066   0.00000  Uiso   1.00
O109   O     0.50000   0.18572   0.29072   0.00000  Uiso   1.00
O110   O     0.50000   0.31427   0.20929   0.00000  Uiso   1.00
O111   O     0.50000   0.18573   0.20928   0.00000  Uiso   1.00
O112   O     0.50000   0.31427   0.29072   0.00000  Uiso   1.00
O113   O     0.42495   0.24999   0.28132   0.00000  Uiso   1.00
O114   O     0.57505   0.25000   0.21868   0.00000  Uiso   1.00
O115   O     0.42495   0.25000   0.19989   0.00000  Uiso   1.00
O116   O     0.57505   0.25000   0.30012   0.00000  Uiso   1.00
I117   I     0.54324   0.01204   0.36430   0.00000  Uiso   1.00
I118   I     0.45676   0.48796   0.13570   0.00000  Uiso   1.00
C119   C     0.50690   0.11207   0.34544   0.00000  Uiso   1.00
H120   H     0.53319   0.13982   0.35767   0.00000  Uiso   1.00
O121   O     0.47522   0.09768   0.37114   0.00000  Uiso   1.00
C122   C     0.49310   0.38793   0.15456   0.00000  Uiso   1.00
H123   H     0.46681   0.36018   0.14233   0.00000  Uiso   1.00
O124   O     0.52478   0.40232   0.12886   0.00000  Uiso   1.00
C125   C     0.55300   0.11999   0.17628   0.00000  Uiso   1.00
H126   H     0.57164   0.15280   0.18186   0.00000  Uiso   1.00
O127   O     0.55236   0.10328   0.13705   0.00000  Uiso   1.00
C128   C     0.44700   0.38001   0.32372   0.00000  Uiso   1.00
H129   H     0.42836   0.34720   0.31814   0.00000  Uiso   1.00
O130   O     0.44764   0.39672   0.36295   0.00000  Uiso   1.00
C131   C     0.57584   0.30591   0.13572   0.00000  Uiso   1.00
H132   H     0.57225   0.31605   0.17137   0.00000  Uiso   1.00
O133   O     0.61398   0.32072   0.11842   0.00000  Uiso   1.00
C134   C     0.42416   0.19409   0.36428   0.00000  Uiso   1.00
H135   H     0.42775   0.18395   0.32863   0.00000  Uiso   1.00
O136   O     0.38602   0.17928   0.38158   0.00000  Uiso   1.00
I137   I     0.40996   0.17723   0.12872   0.00000  Uiso   1.00
I138   I     0.59003   0.32277   0.37128   0.00000  Uiso   1.00
I139   I     0.46466   0.14748   0.02631   0.00000  Uiso   1.00
I140   I     0.53534   0.35252   0.47369   0.00000  Uiso   1.00
C141   C     0.83786   0.16517   0.25153   0.00000  Uiso   1.00
C142   C     0.82880   0.33483   0.24847   0.00000  Uiso   1.00
C143   C     0.87102   0.27399   0.05775   0.00000  Uiso   1.00
C144   C     0.79565   0.22601   0.44225   0.00000  Uiso   1.00
C145   C     0.86978   0.27573   0.10789   0.00000  Uiso   1.00
C146   C     0.79688   0.22427   0.39211   0.00000  Uiso   1.00
C147   C     0.80226   0.21924   0.10143   0.00000  Uiso   1.00
C148   C     0.86440   0.28076   0.39857   0.00000  Uiso   1.00
C149   C     0.80752   0.21425   0.05210   0.00000  Uiso   1.00
C150   C     0.85914   0.28575   0.44790   0.00000  Uiso   1.00
C151   C     0.83524   0.24757   0.02762   0.00000  Uiso   1.00
C152   C     0.83143   0.25243   0.47238   0.00000  Uiso   1.00
C153   C     0.73464   0.24989   0.23761   0.00000  Uiso   1.00
C154   C     0.93202   0.25011   0.26239   0.00000  Uiso   1.00
C155   C     0.67929   0.24974   0.23084   0.00000  Uiso   1.00
C156   C     0.98738   0.25026   0.26916   0.00000  Uiso   1.00
C157   C     0.84498   0.04506   0.29808   0.00000  Uiso   1.00
C158   C     0.82168   0.45494   0.20192   0.00000  Uiso   1.00
C159   C     0.84321   0.09149   0.29861   0.00000  Uiso   1.00
C160   C     0.82345   0.40851   0.20139   0.00000  Uiso   1.00
C161   C     0.84764   0.11705   0.25531   0.00000  Uiso   1.00
C162   C     0.81903   0.38295   0.24469   0.00000  Uiso   1.00
C163   C     0.86347   0.09552   0.21600   0.00000  Uiso   1.00
C164   C     0.80319   0.40448   0.28400   0.00000  Uiso   1.00
C165   C     0.86030   0.04927   0.21579   0.00000  Uiso   1.00
C166   C     0.80637   0.45073   0.28421   0.00000  Uiso   1.00
C167   C     0.84176   0.02403   0.25332   0.00000  Uiso   1.00
C168   C     0.82491   0.47597   0.24668   0.00000  Uiso   1.00
Cu169  Cu    0.83333   0.24999   0.29822   0.00000  Uiso   1.00
Cu170  Cu    0.83333   0.25000   0.20179   0.00000  Uiso   1.00
H171   H     0.99257   0.24914   0.19411   0.00000  Uiso   1.00
H172   H     0.67410   0.25086   0.30589   0.00000  Uiso   1.00
H173   H     0.87395   0.03291   0.18668   0.00000  Uiso   1.00
H174   H     0.79272   0.46709   0.31332   0.00000  Uiso   1.00
H175   H     0.90206   0.29201   0.04273   0.00000  Uiso   1.00
H176   H     0.76461   0.20799   0.45727   0.00000  Uiso   1.00
N177   N     0.83333   0.25001   0.12935   0.00000  Uiso   1.00
N178   N     0.83333   0.24999   0.37066   0.00000  Uiso   1.00
O179   O     0.83334   0.18572   0.29072   0.00000  Uiso   1.00
O180   O     0.83333   0.31427   0.20929   0.00000  Uiso   1.00
O181   O     0.83334   0.18573   0.20928   0.00000  Uiso   1.00
O182   O     0.83333   0.31427   0.29072   0.00000  Uiso   1.00
O183   O     0.75828   0.24999   0.28132   0.00000  Uiso   1.00
O184   O     0.90839   0.25000   0.21868   0.00000  Uiso   1.00
O185   O     0.75828   0.25000   0.19989   0.00000  Uiso   1.00
O186   O     0.90839   0.25000   0.30012   0.00000  Uiso   1.00
I187   I     0.87657   0.01204   0.36430   0.00000  Uiso   1.00
I188   I     0.79009   0.48796   0.13570   0.00000  Uiso   1.00
C189   C     0.84023   0.11207   0.34544   0.00000  Uiso   1.00
H190   H     0.86653   0.13982   0.35767   0.00000  Uiso   1.00
O191   O     0.80855   0.09768   0.37114   0.00000  Uiso   1.00
C192   C     0.82644   0.38793   0.15456   0.00000  Uiso   1.00
H193   H     0.80014   0.36018   0.14233   0.00000  Uiso   1.00
O194   O     0.85811   0.40232   0.12886   0.00000  Uiso   1.00
C195   C     0.88633   0.11999   0.17628   0.00000  Uiso   1.00
H196   H     0.90498   0.15280   0.18186   0.00000  Uiso   1.00
O197   O     0.88569   0.10328   0.13705   0.00000  Uiso   1.00
C198   C     0.78033   0.38001   0.32372   0.00000  Uiso   1.00
H199   H     0.76169   0.34720   0.31814   0.00000  Uiso   1.00
O200   O     0.78097   0.39672   0.36295   0.00000  Uiso   1.00
C201   C     0.90917   0.30591   0.13572   0.00000  Uiso   1.00
H202   H     0.90558   0.31605   0.17137   0.00000  Uiso   1.00
O203   O     0.94731   0.32072   0.11842   0.00000  Uiso   1.00
C204   C     0.75749   0.19409   0.36428   0.00000  Uiso   1.00
H205   H     0.76109   0.18395   0.32863   0.00000  Uiso   1.00
O206   O     0.71936   0.17928   0.38158   0.00000  Uiso   1.00
I207   I     0.74330   0.17723   0.12872   0.00000  Uiso   1.00
I208   I     0.92337   0.32277   0.37128   0.00000  Uiso   1.00
I209   I     0.79799   0.14748   0.02631   0.00000  Uiso   1.00
I210   I     0.86867   0.35252   0.47369   0.00000  Uiso   1.00
C211   C     0.17120   0.66517   0.25153   0.00000  Uiso   1.00
C212   C     0.16214   0.83483   0.24847   0.00000  Uiso   1.00
C213   C     0.20435   0.77399   0.05775   0.00000  Uiso   1.00
C214   C     0.12898   0.72601   0.44225   0.00000  Uiso   1.00
C215   C     0.20312   0.77573   0.10789   0.00000  Uiso   1.00
C216   C     0.13022   0.72427   0.39211   0.00000  Uiso   1.00
C217   C     0.13560   0.71924   0.10143   0.00000  Uiso   1.00
C218   C     0.19774   0.78076   0.39857   0.00000  Uiso   1.00
C219   C     0.14086   0.71425   0.05210   0.00000  Uiso   1.00
C220   C     0.19248   0.78575   0.44790   0.00000  Uiso   1.00
C221   C     0.16857   0.74757   0.02762   0.00000  Uiso   1.00
C222   C     0.16476   0.75243   0.47238   0.00000  Uiso   1.00
C223   C     0.06798   0.74989   0.23761   0.00000  Uiso   1.00
C224   C     0.26536   0.75011   0.26239   0.00000  Uiso   1.00
C225   C     0.01262   0.74974   0.23084   0.00000  Uiso   1.00
C226   C     0.32071   0.75026   0.26916   0.00000  Uiso   1.00
C227   C     0.17832   0.54506   0.29808   0.00000  Uiso   1.00
C228   C     0.15502   0.95494   0.20192   0.00000  Uiso   1.00
C229   C     0.17655   0.59149   0.29861   0.00000  Uiso   1.00
C230   C     0.15679   0.90851   0.20139   0.00000  Uiso   1.00
C231   C     0.18097   0.61705   0.25531   0.00000  Uiso   1.00
C232   C     0.15236   0.88295   0.24469   0.00000  Uiso   1.00
C233   C     0.19680   0.59552   0.21600   0.00000  Uiso   1.00
C234   C     0.13653   0.90448   0.28400   0.00000  Uiso   1.00
C235   C     0.19363   0.54927   0.21579   0.00000  Uiso   1.00
C236   C     0.13970   0.95073   0.28421   0.00000  Uiso   1.00
C237   C     0.17509   0.52403   0.25332   0.00000  Uiso   1.00
C238   C     0.15824   0.97597   0.24668   0.00000  Uiso   1.00
Cu239  Cu    0.16667   0.74999   0.29822   0.00000  Uiso   1.00
Cu240  Cu    0.16667   0.75000   0.20179   0.00000  Uiso   1.00
H241   H     0.32590   0.74914   0.19411   0.00000  Uiso   1.00
H242   H     0.00743   0.75086   0.30589   0.00000  Uiso   1.00
H243   H     0.20728   0.53291   0.18668   0.00000  Uiso   1.00
H244   H     0.12605   0.96709   0.31332   0.00000  Uiso   1.00
H245   H     0.23539   0.79201   0.04273   0.00000  Uiso   1.00
H246   H     0.09794   0.70799   0.45727   0.00000  Uiso   1.00
N247   N     0.16667   0.75001   0.12935   0.00000  Uiso   1.00
N248   N     0.16667   0.74999   0.37066   0.00000  Uiso   1.00
O249   O     0.16667   0.68572   0.29072   0.00000  Uiso   1.00
O250   O     0.16666   0.81427   0.20929   0.00000  Uiso   1.00
O251   O     0.16667   0.68573   0.20928   0.00000  Uiso   1.00
O252   O     0.16666   0.81427   0.29072   0.00000  Uiso   1.00
O253   O     0.09161   0.74999   0.28132   0.00000  Uiso   1.00
O254   O     0.24172   0.75000   0.21868   0.00000  Uiso   1.00
O255   O     0.09161   0.75000   0.19989   0.00000  Uiso   1.00
O256   O     0.24172   0.75000   0.30012   0.00000  Uiso   1.00
I257   I     0.20991   0.51204   0.36430   0.00000  Uiso   1.00
I258   I     0.12342   0.98796   0.13570   0.00000  Uiso   1.00
C259   C     0.17356   0.61207   0.34544   0.00000  Uiso   1.00
H260   H     0.19986   0.63982   0.35767   0.00000  Uiso   1.00
O261   O     0.14189   0.59768   0.37114   0.00000  Uiso   1.00
C262   C     0.15977   0.88793   0.15456   0.00000  Uiso   1.00
H263   H     0.13347   0.86018   0.14233   0.00000  Uiso   1.00
O264   O     0.19145   0.90232   0.12886   0.00000  Uiso   1.00
C265   C     0.21967   0.61999   0.17628   0.00000  Uiso   1.00
H266   H     0.23831   0.65280   0.18186   0.00000  Uiso   1.00
O267   O     0.21903   0.60328   0.13705   0.00000  Uiso   1.00
C268   C     0.11367   0.88001   0.32372   0.00000  Uiso   1.00
H269   H     0.09502   0.84720   0.31814   0.00000  Uiso   1.00
O270   O     0.11431   0.89672   0.36295   0.00000  Uiso   1.00
C271   C     0.24251   0.80591   0.13572   0.00000  Uiso   1.00
H272   H     0.23891   0.81605   0.17137   0.00000  Uiso   1.00
O273   O     0.28064   0.82072   0.11842   0.00000  Uiso   1.00
C274   C     0.09083   0.69409   0.36428   0.00000  Uiso   1.00
H275   H     0.09442   0.68395   0.32863   0.00000  Uiso   1.00
O276   O     0.05269   0.67928   0.38158   0.00000  Uiso   1.00
I277   I     0.07663   0.67723   0.12872   0.00000  Uiso   1.00
I278   I     0.25670   0.82277   0.37128   0.00000  Uiso   1.00
I279   I     0.13133   0.64748   0.02631   0.00000  Uiso   1.00
I280   I     0.20200   0.85252   0.47369   0.00000  Uiso   1.00
C281   C     0.50453   0.66517   0.25153   0.00000  Uiso   1.00
C282   C     0.49547   0.83483   0.24847   0.00000  Uiso   1.00
C283   C     0.53768   0.77399   0.05775   0.00000  Uiso   1.00
C284   C     0.46232   0.72601   0.44225   0.00000  Uiso   1.00
C285   C     0.53645   0.77573   0.10789   0.00000  Uiso   1.00
C286   C     0.46355   0.72427   0.39211   0.00000  Uiso   1.00
C287   C     0.46893   0.71924   0.10143   0.00000  Uiso   1.00
C288   C     0.53107   0.78076   0.39857   0.00000  Uiso   1.00
C289   C     0.47419   0.71425   0.05210   0.00000  Uiso   1.00
C290   C     0.52581   0.78575   0.44790   0.00000  Uiso   1.00
C291   C     0.50190   0.74757   0.02762   0.00000  Uiso   1.00
C292   C     0.49810   0.75243   0.47238   0.00000  Uiso   1.00
C293   C     0.40131   0.74989   0.23761   0.00000  Uiso   1.00
C294   C     0.59869   0.75011   0.26239   0.00000  Uiso   1.00
C295   C     0.34595   0.74974   0.23084   0.00000  Uiso   1.00
C296   C     0.65405   0.75026   0.26916   0.00000  Uiso   1.00
C297   C     0.51165   0.54506   0.29808   0.00000  Uiso   1.00
C298   C     0.48835   0.95494   0.20192   0.00000  Uiso   1.00
C299   C     0.50988   0.59149   0.29861   0.00000  Uiso   1.00
C300   C     0.49012   0.90851   0.20139   0.00000  Uiso   1.00
C301   C     0.51431   0.61705   0.25531   0.00000  Uiso   1.00
C302   C     0.48569   0.88295   0.24469   0.00000  Uiso   1.00
C303   C     0.53014   0.59552   0.21600   0.00000  Uiso   1.00
C304   C     0.46986   0.90448   0.28400   0.00000  Uiso   1.00
C305   C     0.52696   0.54927   0.21579   0.00000  Uiso   1.00
C306   C     0.47304   0.95073   0.28421   0.00000  Uiso   1.00
C307   C     0.50843   0.52403   0.25332   0.00000  Uiso   1.00
C308   C     0.49157   0.97597   0.24668   0.00000  Uiso   1.00
Cu309  Cu    0.50000   0.74999   0.29822   0.00000  Uiso   1.00
Cu310  Cu    0.50000   0.75000   0.20179   0.00000  Uiso   1.00
H311   H     0.65924   0.74914   0.19411   0.00000  Uiso   1.00
H312   H     0.34076   0.75086   0.30589   0.00000  Uiso   1.00
H313   H     0.54062   0.53291   0.18668   0.00000  Uiso   1.00
H314   H     0.45938   0.96709   0.31332   0.00000  Uiso   1.00
H315   H     0.56873   0.79201   0.04273   0.00000  Uiso   1.00
H316   H     0.43127   0.70799   0.45727   0.00000  Uiso   1.00
N317   N     0.50000   0.75001   0.12935   0.00000  Uiso   1.00
N318   N     0.50000   0.74999   0.37066   0.00000  Uiso   1.00
O319   O     0.50000   0.68572   0.29072   0.00000  Uiso   1.00
O320   O     0.50000   0.81427   0.20929   0.00000  Uiso   1.00
O321   O     0.50000   0.68573   0.20928   0.00000  Uiso   1.00
O322   O     0.50000   0.81427   0.29072   0.00000  Uiso   1.00
O323   O     0.42495   0.74999   0.28132   0.00000  Uiso   1.00
O324   O     0.57505   0.75000   0.21868   0.00000  Uiso   1.00
O325   O     0.42495   0.75000   0.19989   0.00000  Uiso   1.00
O326   O     0.57505   0.75000   0.30012   0.00000  Uiso   1.00
I327   I     0.54324   0.51204   0.36430   0.00000  Uiso   1.00
I328   I     0.45676   0.98796   0.13570   0.00000  Uiso   1.00
C329   C     0.50690   0.61207   0.34544   0.00000  Uiso   1.00
H330   H     0.53319   0.63982   0.35767   0.00000  Uiso   1.00
O331   O     0.47522   0.59768   0.37114   0.00000  Uiso   1.00
C332   C     0.49310   0.88793   0.15456   0.00000  Uiso   1.00
H333   H     0.46681   0.86018   0.14233   0.00000  Uiso   1.00
O334   O     0.52478   0.90232   0.12886   0.00000  Uiso   1.00
C335   C     0.55300   0.61999   0.17628   0.00000  Uiso   1.00
H336   H     0.57164   0.65280   0.18186   0.00000  Uiso   1.00
O337   O     0.55236   0.60328   0.13705   0.00000  Uiso   1.00
C338   C     0.44700   0.88001   0.32372   0.00000  Uiso   1.00
H339   H     0.42836   0.84720   0.31814   0.00000  Uiso   1.00
O340   O     0.44764   0.89672   0.36295   0.00000  Uiso   1.00
C341   C     0.57584   0.80591   0.13572   0.00000  Uiso   1.00
H342   H     0.57225   0.81605   0.17137   0.00000  Uiso   1.00
O343   O     0.61398   0.82072   0.11842   0.00000  Uiso   1.00
C344   C     0.42416   0.69409   0.36428   0.00000  Uiso   1.00
H345   H     0.42775   0.68395   0.32863   0.00000  Uiso   1.00
O346   O     0.38602   0.67928   0.38158   0.00000  Uiso   1.00
I347   I     0.40996   0.67723   0.12872   0.00000  Uiso   1.00
I348   I     0.59003   0.82277   0.37128   0.00000  Uiso   1.00
I349   I     0.46466   0.64748   0.02631   0.00000  Uiso   1.00
I350   I     0.53534   0.85252   0.47369   0.00000  Uiso   1.00
C351   C     0.83786   0.66517   0.25153   0.00000  Uiso   1.00
C352   C     0.82880   0.83483   0.24847   0.00000  Uiso   1.00
C353   C     0.87102   0.77399   0.05775   0.00000  Uiso   1.00
C354   C     0.79565   0.72601   0.44225   0.00000  Uiso   1.00
C355   C     0.86978   0.77573   0.10789   0.00000  Uiso   1.00
C356   C     0.79688   0.72427   0.39211   0.00000  Uiso   1.00
C357   C     0.80226   0.71924   0.10143   0.00000  Uiso   1.00
C358   C     0.86440   0.78076   0.39857   0.00000  Uiso   1.00
C359   C     0.80752   0.71425   0.05210   0.00000  Uiso   1.00
C360   C     0.85914   0.78575   0.44790   0.00000  Uiso   1.00
C361   C     0.83524   0.74757   0.02762   0.00000  Uiso   1.00
C362   C     0.83143   0.75243   0.47238   0.00000  Uiso   1.00
C363   C     0.73464   0.74989   0.23761   0.00000  Uiso   1.00
C364   C     0.93202   0.75011   0.26239   0.00000  Uiso   1.00
C365   C     0.67929   0.74974   0.23084   0.00000  Uiso   1.00
C366   C     0.98738   0.75026   0.26916   0.00000  Uiso   1.00
C367   C     0.84498   0.54506   0.29808   0.00000  Uiso   1.00
C368   C     0.82168   0.95494   0.20192   0.00000  Uiso   1.00
C369   C     0.84321   0.59149   0.29861   0.00000  Uiso   1.00
C370   C     0.82345   0.90851   0.20139   0.00000  Uiso   1.00
C371   C     0.84764   0.61705   0.25531   0.00000  Uiso   1.00
C372   C     0.81903   0.88295   0.24469   0.00000  Uiso   1.00
C373   C     0.86347   0.59552   0.21600   0.00000  Uiso   1.00
C374   C     0.80319   0.90448   0.28400   0.00000  Uiso   1.00
C375   C     0.86030   0.54927   0.21579   0.00000  Uiso   1.00
C376   C     0.80637   0.95073   0.28421   0.00000  Uiso   1.00
C377   C     0.84176   0.52403   0.25332   0.00000  Uiso   1.00
C378   C     0.82491   0.97597   0.24668   0.00000  Uiso   1.00
Cu379  Cu    0.83333   0.74999   0.29822   0.00000  Uiso   1.00
Cu380  Cu    0.83333   0.75000   0.20179   0.00000  Uiso   1.00
H381   H     0.99257   0.74914   0.19411   0.00000  Uiso   1.00
H382   H     0.67410   0.75086   0.30589   0.00000  Uiso   1.00
H383   H     0.87395   0.53291   0.18668   0.00000  Uiso   1.00
H384   H     0.79272   0.96709   0.31332   0.00000  Uiso   1.00
H385   H     0.90206   0.79201   0.04273   0.00000  Uiso   1.00
H386   H     0.76461   0.70799   0.45727   0.00000  Uiso   1.00
N387   N     0.83333   0.75001   0.12935   0.00000  Uiso   1.00
N388   N     0.83333   0.74999   0.37066   0.00000  Uiso   1.00
O389   O     0.83334   0.68572   0.29072   0.00000  Uiso   1.00
O390   O     0.83333   0.81427   0.20929   0.00000  Uiso   1.00
O391   O     0.83334   0.68573   0.20928   0.00000  Uiso   1.00
O392   O     0.83333   0.81427   0.29072   0.00000  Uiso   1.00
O393   O     0.75828   0.74999   0.28132   0.00000  Uiso   1.00
O394   O     0.90839   0.75000   0.21868   0.00000  Uiso   1.00
O395   O     0.75828   0.75000   0.19989   0.00000  Uiso   1.00
O396   O     0.90839   0.75000   0.30012   0.00000  Uiso   1.00
I397   I     0.87657   0.51204   0.36430   0.00000  Uiso   1.00
I398   I     0.79009   0.98796   0.13570   0.00000  Uiso   1.00
C399   C     0.84023   0.61207   0.34544   0.00000  Uiso   1.00
H400   H     0.86653   0.63982   0.35767   0.00000  Uiso   1.00
O401   O     0.80855   0.59768   0.37114   0.00000  Uiso   1.00
C402   C     0.82644   0.88793   0.15456   0.00000  Uiso   1.00
H403   H     0.80014   0.86018   0.14233   0.00000  Uiso   1.00
O404   O     0.85811   0.90232   0.12886   0.00000  Uiso   1.00
C405   C     0.88633   0.61999   0.17628   0.00000  Uiso   1.00
H406   H     0.90498   0.65280   0.18186   0.00000  Uiso   1.00
O407   O     0.88569   0.60328   0.13705   0.00000  Uiso   1.00
C408   C     0.78033   0.88001   0.32372   0.00000  Uiso   1.00
H409   H     0.76169   0.84720   0.31814   0.00000  Uiso   1.00
O410   O     0.78097   0.89672   0.36295   0.00000  Uiso   1.00
C411   C     0.90917   0.80591   0.13572   0.00000  Uiso   1.00
H412   H     0.90558   0.81605   0.17137   0.00000  Uiso   1.00
O413   O     0.94731   0.82072   0.11842   0.00000  Uiso   1.00
C414   C     0.75749   0.69409   0.36428   0.00000  Uiso   1.00
H415   H     0.76109   0.68395   0.32863   0.00000  Uiso   1.00
O416   O     0.71936   0.67928   0.38158   0.00000  Uiso   1.00
I417   I     0.74330   0.67723   0.12872   0.00000  Uiso   1.00
I418   I     0.92337   0.82277   0.37128   0.00000  Uiso   1.00
I419   I     0.79799   0.64748   0.02631   0.00000  Uiso   1.00
I420   I     0.86867   0.85252   0.47369   0.00000  Uiso   1.00
C421   C     0.17120   0.16517   0.75153   0.00000  Uiso   1.00
C422   C     0.16214   0.33483   0.74847   0.00000  Uiso   1.00
C423   C     0.20435   0.27399   0.55775   0.00000  Uiso   1.00
C424   C     0.12898   0.22601   0.94225   0.00000  Uiso   1.00
C425   C     0.20312   0.27573   0.60789   0.00000  Uiso   1.00
C426   C     0.13022   0.22427   0.89211   0.00000  Uiso   1.00
C427   C     0.13560   0.21924   0.60143   0.00000  Uiso   1.00
C428   C     0.19774   0.28076   0.89857   0.00000  Uiso   1.00
C429   C     0.14086   0.21425   0.55210   0.00000  Uiso   1.00
C430   C     0.19248   0.28575   0.94790   0.00000  Uiso   1.00
C431   C     0.16857   0.24757   0.52762   0.00000  Uiso   1.00
C432   C     0.16476   0.25243   0.97238   0.00000  Uiso   1.00
C433   C     0.06798   0.24989   0.73761   0.00000  Uiso   1.00
C434   C     0.26536   0.25011   0.76239   0.00000  Uiso   1.00
C435   C     0.01262   0.24974   0.73084   0.00000  Uiso   1.00
C436   C     0.32071   0.25026   0.76916   0.00000  Uiso   1.00
C437   C     0.17832   0.04506   0.79808   0.00000  Uiso   1.00
C438   C     0.15502   0.45494   0.70192   0.00000  Uiso   1.00
C439   C     0.17655   0.09149   0.79861   0.00000  Uiso   1.00
C440   C     0.15679   0.40851   0.70139   0.00000  Uiso   1.00
C441   C     0.18097   0.11705   0.75531   0.00000  Uiso   1.00
C442   C     0.15236   0.38295   0.74469   0.00000  Uiso   1.00
C443   C     0.19680   0.09552   0.71600   0.00000  Uiso   1.00
C444   C     0.13653   0.40448   0.78400   0.00000  Uiso   1.00
C445   C     0.19363   0.04927   0.71579   0.00000  Uiso   1.00
C446   C     0.13970   0.45073   0.78421   0.00000  Uiso   1.00
C447   C     0.17509   0.02403   0.75332   0.00000  Uiso   1.00
C448   C     0.15824   0.47597   0.74668   0.00000  Uiso   1.00
Cu449  Cu    0.16667   0.24999   0.79822   0.00000  Uiso   1.00
Cu450  Cu    0.16667   0.25000   0.70179   0.00000  Uiso   1.00
H451   H     0.32590   0.24914   0.69411   0.00000  Uiso   1.00
H452   H     0.00743   0.25086   0.80589   0.00000  Uiso   1.00
H453   H     0.20728   0.03291   0.68668   0.00000  Uiso   1.00
H454   H     0.12605   0.46709   0.81332   0.00000  Uiso   1.00
H455   H     0.23539   0.29201   0.54273   0.00000  Uiso   1.00
H456   H     0.09794   0.20799   0.95727   0.00000  Uiso   1.00
N457   N     0.16667   0.25001   0.62935   0.00000  Uiso   1.00
N458   N     0.16667   0.24999   0.87066   0.00000  Uiso   1.00
O459   O     0.16667   0.18572   0.79072   0.00000  Uiso   1.00
O460   O     0.16666   0.31427   0.70929   0.00000  Uiso   1.00
O461   O     0.16667   0.18573   0.70928   0.00000  Uiso   1.00
O462   O     0.16666   0.31427   0.79072   0.00000  Uiso   1.00
O463   O     0.09161   0.24999   0.78132   0.00000  Uiso   1.00
O464   O     0.24172   0.25000   0.71868   0.00000  Uiso   1.00
O465   O     0.09161   0.25000   0.69989   0.00000  Uiso   1.00
O466   O     0.24172   0.25000   0.80012   0.00000  Uiso   1.00
I467   I     0.20991   0.01204   0.86430   0.00000  Uiso   1.00
I468   I     0.12342   0.48796   0.63570   0.00000  Uiso   1.00
C469   C     0.17356   0.11207   0.84544   0.00000  Uiso   1.00
H470   H     0.19986   0.13982   0.85767   0.00000  Uiso   1.00
O471   O     0.14189   0.09768   0.87114   0.00000  Uiso   1.00
C472   C     0.15977   0.38793   0.65456   0.00000  Uiso   1.00
H473   H     0.13347   0.36018   0.64233   0.00000  Uiso   1.00
O474   O     0.19145   0.40232   0.62886   0.00000  Uiso   1.00
C475   C     0.21967   0.11999   0.67628   0.00000  Uiso   1.00
H476   H     0.23831   0.15280   0.68186   0.00000  Uiso   1.00
O477   O     0.21903   0.10328   0.63705   0.00000  Uiso   1.00
C478   C     0.11367   0.38001   0.82372   0.00000  Uiso   1.00
H479   H     0.09502   0.34720   0.81814   0.00000  Uiso   1.00
O480   O     0.11431   0.39672   0.86295   0.00000  Uiso   1.00
C481   C     0.24251   0.30591   0.63572   0.00000  Uiso   1.00
H482   H     0.23891   0.31605   0.67137   0.00000  Uiso   1.00
O483   O     0.28064   0.32072   0.61842   0.00000  Uiso   1.00
C484   C     0.09083   0.19409   0.86428   0.00000  Uiso   1.00
H485   H     0.09442   0.18395   0.82863   0.00000  Uiso   1.00
O486   O     0.05269   0.17928   0.88158   0.00000  Uiso   1.00
I487   I     0.07663   0.17723   0.62872   0.00000  Uiso   1.00
I488   I     0.25670   0.32277   0.87128   0.00000  Uiso   1.00
I489   I     0.13133   0.14748   0.52631   0.00000  Uiso   1.00
I490   I     0.20200   0.35252   0.97369   0.00000  Uiso   1.00
C491   C     0.50453   0.16517   0.75153   0.00000  Uiso   1.00
C492   C     0.49547   0.33483   0.74847   0.00000  Uiso   1.00
C493   C     0.53768   0.27399   0.55775   0.00000  Uiso   1.00
C494   C     0.46232   0.22601   0.94225   0.00000  Uiso   1.00
C495   C     0.53645   0.27573   0.60789   0.00000  Uiso   1.00
C496   C     0.46355   0.22427   0.89211   0.00000  Uiso   1.00
C497   C     0.46893   0.21924   0.60143   0.00000  Uiso   1.00
C498   C     0.53107   0.28076   0.89857   0.00000  Uiso   1.00
C499   C     0.47419   0.21425   0.55210   0.00000  Uiso   1.00
C500   C     0.52581   0.28575   0.94790   0.00000  Uiso   1.00
C501   C     0.50190   0.24757   0.52762   0.00000  Uiso   1.00
C502   C     0.49810   0.25243   0.97238   0.00000  Uiso   1.00
C503   C     0.40131   0.24989   0.73761   0.00000  Uiso   1.00
C504   C     0.59869   0.25011   0.76239   0.00000  Uiso   1.00
C505   C     0.34595   0.24974   0.73084   0.00000  Uiso   1.00
C506   C     0.65405   0.25026   0.76916   0.00000  Uiso   1.00
C507   C     0.51165   0.04506   0.79808   0.00000  Uiso   1.00
C508   C     0.48835   0.45494   0.70192   0.00000  Uiso   1.00
C509   C     0.50988   0.09149   0.79861   0.00000  Uiso   1.00
C510   C     0.49012   0.40851   0.70139   0.00000  Uiso   1.00
C511   C     0.51431   0.11705   0.75531   0.00000  Uiso   1.00
C512   C     0.48569   0.38295   0.74469   0.00000  Uiso   1.00
C513   C     0.53014   0.09552   0.71600   0.00000  Uiso   1.00
C514   C     0.46986   0.40448   0.78400   0.00000  Uiso   1.00
C515   C     0.52696   0.04927   0.71579   0.00000  Uiso   1.00
C516   C     0.47304   0.45073   0.78421   0.00000  Uiso   1.00
C517   C     0.50843   0.02403   0.75332   0.00000  Uiso   1.00
C518   C     0.49157   0.47597   0.74668   0.00000  Uiso   1.00
Cu519  Cu    0.50000   0.24999   0.79822   0.00000  Uiso   1.00
Cu520  Cu    0.50000   0.25000   0.70179   0.00000  Uiso   1.00
H521   H     0.65924   0.24914   0.69411   0.00000  Uiso   1.00
H522   H     0.34076   0.25086   0.80589   0.00000  Uiso   1.00
H523   H     0.54062   0.03291   0.68668   0.00000  Uiso   1.00
H524   H     0.45938   0.46709   0.81332   0.00000  Uiso   1.00
H525   H     0.56873   0.29201   0.54273   0.00000  Uiso   1.00
H526   H     0.43127   0.20799   0.95727   0.00000  Uiso   1.00
N527   N     0.50000   0.25001   0.62935   0.00000  Uiso   1.00
N528   N     0.50000   0.24999   0.87066   0.00000  Uiso   1.00
O529   O     0.50000   0.18572   0.79072   0.00000  Uiso   1.00
O530   O     0.50000   0.31427   0.70929   0.00000  Uiso   1.00
O531   O     0.50000   0.18573   0.70928   0.00000  Uiso   1.00
O532   O     0.50000   0.31427   0.79072   0.00000  Uiso   1.00
O533   O     0.42495   0.24999   0.78132   0.00000  Uiso   1.00
O534   O     0.57505   0.25000   0.71868   0.00000  Uiso   1.00
O535   O     0.42495   0.25000   0.69989   0.00000  Uiso   1.00
O536   O     0.57505   0.25000   0.80012   0.00000  Uiso   1.00
I537   I     0.54324   0.01204   0.86430   0.00000  Uiso   1.00
I538   I     0.45676   0.48796   0.63570   0.00000  Uiso   1.00
C539   C     0.50690   0.11207   0.84544   0.00000  Uiso   1.00
H540   H     0.53319   0.13982   0.85767   0.00000  Uiso   1.00
O541   O     0.47522   0.09768   0.87114   0.00000  Uiso   1.00
C542   C     0.49310   0.38793   0.65456   0.00000  Uiso   1.00
H543   H     0.46681   0.36018   0.64233   0.00000  Uiso   1.00
O544   O     0.52478   0.40232   0.62886   0.00000  Uiso   1.00
C545   C     0.55300   0.11999   0.67628   0.00000  Uiso   1.00
H546   H     0.57164   0.15280   0.68186   0.00000  Uiso   1.00
O547   O     0.55236   0.10328   0.63705   0.00000  Uiso   1.00
C548   C     0.44700   0.38001   0.82372   0.00000  Uiso   1.00
H549   H     0.42836   0.34720   0.81814   0.00000  Uiso   1.00
O550   O     0.44764   0.39672   0.86295   0.00000  Uiso   1.00
C551   C     0.57584   0.30591   0.63572   0.00000  Uiso   1.00
H552   H     0.57225   0.31605   0.67137   0.00000  Uiso   1.00
O553   O     0.61398   0.32072   0.61842   0.00000  Uiso   1.00
C554   C     0.42416   0.19409   0.86428   0.00000  Uiso   1.00
H555   H     0.42775   0.18395   0.82863   0.00000  Uiso   1.00
O556   O     0.38602   0.17928   0.88158   0.00000  Uiso   1.00
I557   I     0.40996   0.17723   0.62872   0.00000  Uiso   1.00
I558   I     0.59003   0.32277   0.87128   0.00000  Uiso   1.00
I559   I     0.46466   0.14748   0.52631   0.00000  Uiso   1.00
I560   I     0.53534   0.35252   0.97369   0.00000  Uiso   1.00
C561   C     0.83786   0.16517   0.75153   0.00000  Uiso   1.00
C562   C     0.82880   0.33483   0.74847   0.00000  Uiso   1.00
C563   C     0.87102   0.27399   0.55775   0.00000  Uiso   1.00
C564   C     0.79565   0.22601   0.94225   0.00000  Uiso   1.00
C565   C     0.86978   0.27573   0.60789   0.00000  Uiso   1.00
C566   C     0.79688   0.22427   0.89211   0.00000  Uiso   1.00
C567   C     0.80226   0.21924   0.60143   0.00000  Uiso   1.00
C568   C     0.86440   0.28076   0.89857   0.00000  Uiso   1.00
C569   C     0.80752   0.21425   0.55210   0.00000  Uiso   1.00
C570   C     0.85914   0.28575   0.94790   0.00000  Uiso   1.00
C571   C     0.83524   0.24757   0.52762   0.00000  Uiso   1.00
C572   C     0.83143   0.25243   0.97238   0.00000  Uiso   1.00
C573   C     0.73464   0.24989   0.73761   0.00000  Uiso   1.00
C574   C     0.93202   0.25011   0.76239   0.00000  Uiso   1.00
C575   C     0.67929   0.24974   0.73084   0.00000  Uiso   1.00
C576   C     0.98738   0.25026   0.76916   0.00000  Uiso   1.00
C577   C     0.84498   0.04506   0.79808   0.00000  Uiso   1.00
C578   C     0.82168   0.45494   0.70192   0.00000  Uiso   1.00
C579   C     0.84321   0.09149   0.79861   0.00000  Uiso   1.00
C580   C     0.82345   0.40851   0.70139   0.00000  Uiso   1.00
C581   C     0.84764   0.11705   0.75531   0.00000  Uiso   1.00
C582   C     0.81903   0.38295   0.74469   0.00000  Uiso   1.00
C583   C     0.86347   0.09552   0.71600   0.00000  Uiso   1.00
C584   C     0.80319   0.40448   0.78400   0.00000  Uiso   1.00
C585   C     0.86030   0.04927   0.71579   0.00000  Uiso   1.00
C586   C     0.80637   0.45073   0.78421   0.00000  Uiso   1.00
C587   C     0.84176   0.02403   0.75332   0.00000  Uiso   1.00
C588   C     0.82491   0.47597   0.74668   0.00000  Uiso   1.00
Cu589  Cu    0.83333   0.24999   0.79822   0.00000  Uiso   1.00
Cu590  Cu    0.83333   0.25000   0.70179   0.00000  Uiso   1.00
H591   H     0.99257   0.24914   0.69411   0.00000  Uiso   1.00
H592   H     0.67410   0.25086   0.80589   0.00000  Uiso   1.00
H593   H     0.87395   0.03291   0.68668   0.00000  Uiso   1.00
H594   H     0.79272   0.46709   0.81332   0.00000  Uiso   1.00
H595   H     0.90206   0.29201   0.54273   0.00000  Uiso   1.00
H596   H     0.76461   0.20799   0.95727   0.00000  Uiso   1.00
N597   N     0.83333   0.25001   0.62935   0.00000  Uiso   1.00
N598   N     0.83333   0.24999   0.87066   0.00000  Uiso   1.00
O599   O     0.83334   0.18572   0.79072   0.00000  Uiso   1.00
O600   O     0.83333   0.31427   0.70929   0.00000  Uiso   1.00
O601   O     0.83334   0.18573   0.70928   0.00000  Uiso   1.00
O602   O     0.83333   0.31427   0.79072   0.00000  Uiso   1.00
O603   O     0.75828   0.24999   0.78132   0.00000  Uiso   1.00
O604   O     0.90839   0.25000   0.71868   0.00000  Uiso   1.00
O605   O     0.75828   0.25000   0.69989   0.00000  Uiso   1.00
O606   O     0.90839   0.25000   0.80012   0.00000  Uiso   1.00
I607   I     0.87657   0.01204   0.86430   0.00000  Uiso   1.00
I608   I     0.79009   0.48796   0.63570   0.00000  Uiso   1.00
C609   C     0.84023   0.11207   0.84544   0.00000  Uiso   1.00
H610   H     0.86653   0.13982   0.85767   0.00000  Uiso   1.00
O611   O     0.80855   0.09768   0.87114   0.00000  Uiso   1.00
C612   C     0.82644   0.38793   0.65456   0.00000  Uiso   1.00
H613   H     0.80014   0.36018   0.64233   0.00000  Uiso   1.00
O614   O     0.85811   0.40232   0.62886   0.00000  Uiso   1.00
C615   C     0.88633   0.11999   0.67628   0.00000  Uiso   1.00
H616   H     0.90498   0.15280   0.68186   0.00000  Uiso   1.00
O617   O     0.88569   0.10328   0.63705   0.00000  Uiso   1.00
C618   C     0.78033   0.38001   0.82372   0.00000  Uiso   1.00
H619   H     0.76169   0.34720   0.81814   0.00000  Uiso   1.00
O620   O     0.78097   0.39672   0.86295   0.00000  Uiso   1.00
C621   C     0.90917   0.30591   0.63572   0.00000  Uiso   1.00
H622   H     0.90558   0.31605   0.67137   0.00000  Uiso   1.00
O623   O     0.94731   0.32072   0.61842   0.00000  Uiso   1.00
C624   C     0.75749   0.19409   0.86428   0.00000  Uiso   1.00
H625   H     0.76109   0.18395   0.82863   0.00000  Uiso   1.00
O626   O     0.71936   0.17928   0.88158   0.00000  Uiso   1.00
I627   I     0.74330   0.17723   0.62872   0.00000  Uiso   1.00
I628   I     0.92337   0.32277   0.87128   0.00000  Uiso   1.00
I629   I     0.79799   0.14748   0.52631   0.00000  Uiso   1.00
I630   I     0.86867   0.35252   0.97369   0.00000  Uiso   1.00
C631   C     0.17120   0.66517   0.75153   0.00000  Uiso   1.00
C632   C     0.16214   0.83483   0.74847   0.00000  Uiso   1.00
C633   C     0.20435   0.77399   0.55775   0.00000  Uiso   1.00
C634   C     0.12898   0.72601   0.94225   0.00000  Uiso   1.00
C635   C     0.20312   0.77573   0.60789   0.00000  Uiso   1.00
C636   C     0.13022   0.72427   0.89211   0.00000  Uiso   1.00
C637   C     0.13560   0.71924   0.60143   0.00000  Uiso   1.00
C638   C     0.19774   0.78076   0.89857   0.00000  Uiso   1.00
C639   C     0.14086   0.71425   0.55210   0.00000  Uiso   1.00
C640   C     0.19248   0.78575   0.94790   0.00000  Uiso   1.00
C641   C     0.16857   0.74757   0.52762   0.00000  Uiso   1.00
C642   C     0.16476   0.75243   0.97238   0.00000  Uiso   1.00
C643   C     0.06798   0.74989   0.73761   0.00000  Uiso   1.00
C644   C     0.26536   0.75011   0.76239   0.00000  Uiso   1.00
C645   C     0.01262   0.74974   0.73084   0.00000  Uiso   1.00
C646   C     0.32071   0.75026   0.76916   0.00000  Uiso   1.00
C647   C     0.17832   0.54506   0.79808   0.00000  Uiso   1.00
C648   C     0.15502   0.95494   0.70192   0.00000  Uiso   1.00
C649   C     0.17655   0.59149   0.79861   0.00000  Uiso   1.00
C650   C     0.15679   0.90851   0.70139   0.00000  Uiso   1.00
C651   C     0.18097   0.61705   0.75531   0.00000  Uiso   1.00
C652   C     0.15236   0.88295   0.74469   0.00000  Uiso   1.00
C653   C     0.19680   0.59552   0.71600   0.00000  Uiso   1.00
C654   C     0.13653   0.90448   0.78400   0.00000  Uiso   1.00
C655   C     0.19363   0.54927   0.71579   0.00000  Uiso   1.00
C656   C     0.13970   0.95073   0.78421   0.00000  Uiso   1.00
C657   C     0.17509   0.52403   0.75332   0.00000  Uiso   1.00
C658   C     0.15824   0.97597   0.74668   0.00000  Uiso   1.00
Cu659  Cu    0.16667   0.74999   0.79822   0.00000  Uiso   1.00
Cu660  Cu    0.16667   0.75000   0.70179   0.00000  Uiso   1.00
H661   H     0.32590   0.74914   0.69411   0.00000  Uiso   1.00
H662   H     0.00743   0.75086   0.80589   0.00000  Uiso   1.00
H663   H     0.20728   0.53291   0.68668   0.00000  Uiso   1.00
H664   H     0.12605   0.96709   0.81332   0.00000  Uiso   1.00
H665   H     0.23539   0.79201   0.54273   0.00000  Uiso   1.00
H666   H     0.09794   0.70799   0.95727   0.00000  Uiso   1.00
N667   N     0.16667   0.75001   0.62935   0.00000  Uiso   1.00
N668   N     0.16667   0.74999   0.87066   0.00000  Uiso   1.00
O669   O     0.16667   0.68572   0.79072   0.00000  Uiso   1.00
O670   O     0.16666   0.81427   0.70929   0.00000  Uiso   1.00
O671   O     0.16667   0.68573   0.70928   0.00000  Uiso   1.00
O672   O     0.16666   0.81427   0.79072   0.00000  Uiso   1.00
O673   O     0.09161   0.74999   0.78132   0.00000  Uiso   1.00
O674   O     0.24172   0.75000   0.71868   0.00000  Uiso   1.00
O675   O     0.09161   0.75000   0.69989   0.00000  Uiso   1.00
O676   O     0.24172   0.75000   0.80012   0.00000  Uiso   1.00
I677   I     0.20991   0.51204   0.86430   0.00000  Uiso   1.00
I678   I     0.12342   0.98796   0.63570   0.00000  Uiso   1.00
C679   C     0.17356   0.61207   0.84544   0.00000  Uiso   1.00
H680   H     0.19986   0.63982   0.85767   0.00000  Uiso   1.00
O681   O     0.14189   0.59768   0.87114   0.00000  Uiso   1.00
C682   C     0.15977   0.88793   0.65456   0.00000  Uiso   1.00
H683   H     0.13347   0.86018   0.64233   0.00000  Uiso   1.00
O684   O     0.19145   0.90232   0.62886   0.00000  Uiso   1.00
C685   C     0.21967   0.61999   0.67628   0.00000  Uiso   1.00
H686   H     0.23831   0.65280   0.68186   0.00000  Uiso   1.00
O687   O     0.21903   0.60328   0.63705   0.00000  Uiso   1.00
C688   C     0.11367   0.88001   0.82372   0.00000  Uiso   1.00
H689   H     0.09502   0.84720   0.81814   0.00000  Uiso   1.00
O690   O     0.11431   0.89672   0.86295   0.00000  Uiso   1.00
C691   C     0.24251   0.80591   0.63572   0.00000  Uiso   1.00
H692   H     0.23891   0.81605   0.67137   0.00000  Uiso   1.00
O693   O     0.28064   0.82072   0.61842   0.00000  Uiso   1.00
C694   C     0.09083   0.69409   0.86428   0.00000  Uiso   1.00
H695   H     0.09442   0.68395   0.82863   0.00000  Uiso   1.00
O696   O     0.05269   0.67928   0.88158   0.00000  Uiso   1.00
I697   I     0.07663   0.67723   0.62872   0.00000  Uiso   1.00
I698   I     0.25670   0.82277   0.87128   0.00000  Uiso   1.00
I699   I     0.13133   0.64748   0.52631   0.00000  Uiso   1.00
I700   I     0.20200   0.85252   0.97369   0.00000  Uiso   1.00
C701   C     0.50453   0.66517   0.75153   0.00000  Uiso   1.00
C702   C     0.49547   0.83483   0.74847   0.00000  Uiso   1.00
C703   C     0.53768   0.77399   0.55775   0.00000  Uiso   1.00
C704   C     0.46232   0.72601   0.94225   0.00000  Uiso   1.00
C705   C     0.53645   0.77573   0.60789   0.00000  Uiso   1.00
C706   C     0.46355   0.72427   0.89211   0.00000  Uiso   1.00
C707   C     0.46893   0.71924   0.60143   0.00000  Uiso   1.00
C708   C     0.53107   0.78076   0.89857   0.00000  Uiso   1.00
C709   C     0.47419   0.71425   0.55210   0.00000  Uiso   1.00
C710   C     0.52581   0.78575   0.94790   0.00000  Uiso   1.00
C711   C     0.50190   0.74757   0.52762   0.00000  Uiso   1.00
C712   C     0.49810   0.75243   0.97238   0.00000  Uiso   1.00
C713   C     0.40131   0.74989   0.73761   0.00000  Uiso   1.00
C714   C     0.59869   0.75011   0.76239   0.00000  Uiso   1.00
C715   C     0.34595   0.74974   0.73084   0.00000  Uiso   1.00
C716   C     0.65405   0.75026   0.76916   0.00000  Uiso   1.00
C717   C     0.51165   0.54506   0.79808   0.00000  Uiso   1.00
C718   C     0.48835   0.95494   0.70192   0.00000  Uiso   1.00
C719   C     0.50988   0.59149   0.79861   0.00000  Uiso   1.00
C720   C     0.49012   0.90851   0.70139   0.00000  Uiso   1.00
C721   C     0.51431   0.61705   0.75531   0.00000  Uiso   1.00
C722   C     0.48569   0.88295   0.74469   0.00000  Uiso   1.00
C723   C     0.53014   0.59552   0.71600   0.00000  Uiso   1.00
C724   C     0.46986   0.90448   0.78400   0.00000  Uiso   1.00
C725   C     0.52696   0.54927   0.71579   0.00000  Uiso   1.00
C726   C     0.47304   0.95073   0.78421   0.00000  Uiso   1.00
C727   C     0.50843   0.52403   0.75332   0.00000  Uiso   1.00
C728   C     0.49157   0.97597   0.74668   0.00000  Uiso   1.00
Cu729  Cu    0.50000   0.74999   0.79822   0.00000  Uiso   1.00
Cu730  Cu    0.50000   0.75000   0.70179   0.00000  Uiso   1.00
H731   H     0.65924   0.74914   0.69411   0.00000  Uiso   1.00
H732   H     0.34076   0.75086   0.80589   0.00000  Uiso   1.00
H733   H     0.54062   0.53291   0.68668   0.00000  Uiso   1.00
H734   H     0.45938   0.96709   0.81332   0.00000  Uiso   1.00
H735   H     0.56873   0.79201   0.54273   0.00000  Uiso   1.00
H736   H     0.43127   0.70799   0.95727   0.00000  Uiso   1.00
N737   N     0.50000   0.75001   0.62935   0.00000  Uiso   1.00
N738   N     0.50000   0.74999   0.87066   0.00000  Uiso   1.00
O739   O     0.50000   0.68572   0.79072   0.00000  Uiso   1.00
O740   O     0.50000   0.81427   0.70929   0.00000  Uiso   1.00
O741   O     0.50000   0.68573   0.70928   0.00000  Uiso   1.00
O742   O     0.50000   0.81427   0.79072   0.00000  Uiso   1.00
O743   O     0.42495   0.74999   0.78132   0.00000  Uiso   1.00
O744   O     0.57505   0.75000   0.71868   0.00000  Uiso   1.00
O745   O     0.42495   0.75000   0.69989   0.00000  Uiso   1.00
O746   O     0.57505   0.75000   0.80012   0.00000  Uiso   1.00
I747   I     0.54324   0.51204   0.86430   0.00000  Uiso   1.00
I748   I     0.45676   0.98796   0.63570   0.00000  Uiso   1.00
C749   C     0.50690   0.61207   0.84544   0.00000  Uiso   1.00
H750   H     0.53319   0.63982   0.85767   0.00000  Uiso   1.00
O751   O     0.47522   0.59768   0.87114   0.00000  Uiso   1.00
C752   C     0.49310   0.88793   0.65456   0.00000  Uiso   1.00
H753   H     0.46681   0.86018   0.64233   0.00000  Uiso   1.00
O754   O     0.52478   0.90232   0.62886   0.00000  Uiso   1.00
C755   C     0.55300   0.61999   0.67628   0.00000  Uiso   1.00
H756   H     0.57164   0.65280   0.68186   0.00000  Uiso   1.00
O757   O     0.55236   0.60328   0.63705   0.00000  Uiso   1.00
C758   C     0.44700   0.88001   0.82372   0.00000  Uiso   1.00
H759   H     0.42836   0.84720   0.81814   0.00000  Uiso   1.00
O760   O     0.44764   0.89672   0.86295   0.00000  Uiso   1.00
C761   C     0.57584   0.80591   0.63572   0.00000  Uiso   1.00
H762   H     0.57225   0.81605   0.67137   0.00000  Uiso   1.00
O763   O     0.61398   0.82072   0.61842   0.00000  Uiso   1.00
C764   C     0.42416   0.69409   0.86428   0.00000  Uiso   1.00
H765   H     0.42775   0.68395   0.82863   0.00000  Uiso   1.00
O766   O     0.38602   0.67928   0.88158   0.00000  Uiso   1.00
I767   I     0.40996   0.67723   0.62872   0.00000  Uiso   1.00
I768   I     0.59003   0.82277   0.87128   0.00000  Uiso   1.00
I769   I     0.46466   0.64748   0.52631   0.00000  Uiso   1.00
I770   I     0.53534   0.85252   0.97369   0.00000  Uiso   1.00
C771   C     0.83786   0.66517   0.75153   0.00000  Uiso   1.00
C772   C     0.82880   0.83483   0.74847   0.00000  Uiso   1.00
C773   C     0.87102   0.77399   0.55775   0.00000  Uiso   1.00
C774   C     0.79565   0.72601   0.94225   0.00000  Uiso   1.00
C775   C     0.86978   0.77573   0.60789   0.00000  Uiso   1.00
C776   C     0.79688   0.72427   0.89211   0.00000  Uiso   1.00
C777   C     0.80226   0.71924   0.60143   0.00000  Uiso   1.00
C778   C     0.86440   0.78076   0.89857   0.00000  Uiso   1.00
C779   C     0.80752   0.71425   0.55210   0.00000  Uiso   1.00
C780   C     0.85914   0.78575   0.94790   0.00000  Uiso   1.00
C781   C     0.83524   0.74757   0.52762   0.00000  Uiso   1.00
C782   C     0.83143   0.75243   0.97238   0.00000  Uiso   1.00
C783   C     0.73464   0.74989   0.73761   0.00000  Uiso   1.00
C784   C     0.93202   0.75011   0.76239   0.00000  Uiso   1.00
C785   C     0.67929   0.74974   0.73084   0.00000  Uiso   1.00
C786   C     0.98738   0.75026   0.76916   0.00000  Uiso   1.00
C787   C     0.84498   0.54506   0.79808   0.00000  Uiso   1.00
C788   C     0.82168   0.95494   0.70192   0.00000  Uiso   1.00
C789   C     0.84321   0.59149   0.79861   0.00000  Uiso   1.00
C790   C     0.82345   0.90851   0.70139   0.00000  Uiso   1.00
C791   C     0.84764   0.61705   0.75531   0.00000  Uiso   1.00
C792   C     0.81903   0.88295   0.74469   0.00000  Uiso   1.00
C793   C     0.86347   0.59552   0.71600   0.00000  Uiso   1.00
C794   C     0.80319   0.90448   0.78400   0.00000  Uiso   1.00
C795   C     0.86030   0.54927   0.71579   0.00000  Uiso   1.00
C796   C     0.80637   0.95073   0.78421   0.00000  Uiso   1.00
C797   C     0.84176   0.52403   0.75332   0.00000  Uiso   1.00
C798   C     0.82491   0.97597   0.74668   0.00000  Uiso   1.00
Cu799  Cu    0.83333   0.74999   0.79822   0.00000  Uiso   1.00
Cu800  Cu    0.83333   0.75000   0.70179   0.00000  Uiso   1.00
H801   H     0.99257   0.74914   0.69411   0.00000  Uiso   1.00
H802   H     0.67410   0.75086   0.80589   0.00000  Uiso   1.00
H803   H     0.87395   0.53291   0.68668   0.00000  Uiso   1.00
H804   H     0.79272   0.96709   0.81332   0.00000  Uiso   1.00
H805   H     0.90206   0.79201   0.54273   0.00000  Uiso   1.00
H806   H     0.76461   0.70799   0.95727   0.00000  Uiso   1.00
N807   N     0.83333   0.75001   0.62935   0.00000  Uiso   1.00
N808   N     0.83333   0.74999   0.87066   0.00000  Uiso   1.00
O809   O     0.83334   0.68572   0.79072   0.00000  Uiso   1.00
O810   O     0.83333   0.81427   0.70929   0.00000  Uiso   1.00
O811   O     0.83334   0.68573   0.70928   0.00000  Uiso   1.00
O812   O     0.83333   0.81427   0.79072   0.00000  Uiso   1.00
O813   O     0.75828   0.74999   0.78132   0.00000  Uiso   1.00
O814   O     0.90839   0.75000   0.71868   0.00000  Uiso   1.00
O815   O     0.75828   0.75000   0.69989   0.00000  Uiso   1.00
O816   O     0.90839   0.75000   0.80012   0.00000  Uiso   1.00
I817   I     0.87657   0.51204   0.86430   0.00000  Uiso   1.00
I818   I     0.79009   0.98796   0.63570   0.00000  Uiso   1.00
C819   C     0.84023   0.61207   0.84544   0.00000  Uiso   1.00
H820   H     0.86653   0.63982   0.85767   0.00000  Uiso   1.00
O821   O     0.80855   0.59768   0.87114   0.00000  Uiso   1.00
C822   C     0.82644   0.88793   0.65456   0.00000  Uiso   1.00
H823   H     0.80014   0.86018   0.64233   0.00000  Uiso   1.00
O824   O     0.85811   0.90232   0.62886   0.00000  Uiso   1.00
C825   C     0.88633   0.61999   0.67628   0.00000  Uiso   1.00
H826   H     0.90498   0.65280   0.68186   0.00000  Uiso   1.00
O827   O     0.88569   0.60328   0.63705   0.00000  Uiso   1.00
C828   C     0.78033   0.88001   0.82372   0.00000  Uiso   1.00
H829   H     0.76169   0.84720   0.81814   0.00000  Uiso   1.00
O830   O     0.78097   0.89672   0.86295   0.00000  Uiso   1.00
C831   C     0.90917   0.80591   0.63572   0.00000  Uiso   1.00
H832   H     0.90558   0.81605   0.67137   0.00000  Uiso   1.00
O833   O     0.94731   0.82072   0.61842   0.00000  Uiso   1.00
C834   C     0.75749   0.69409   0.86428   0.00000  Uiso   1.00
H835   H     0.76109   0.68395   0.82863   0.00000  Uiso   1.00
O836   O     0.71936   0.67928   0.88158   0.00000  Uiso   1.00
I837   I     0.74330   0.67723   0.62872   0.00000  Uiso   1.00
I838   I     0.92337   0.82277   0.87128   0.00000  Uiso   1.00
I839   I     0.79799   0.64748   0.52631   0.00000  Uiso   1.00
I840   I     0.86867   0.85252   0.97369   0.00000  Uiso   1.00
loop_
_geom_bond_atom_site_label_1
_geom_bond_atom_site_label_2
_geom_bond_distance
_geom_bond_site_symmetry_2
_ccdc_geom_bond_type
C1     C21     1.490   .     S
C1     O41     1.311   .     A
C1     O39     1.301   .     A
C2     C22     1.490   .     S
C2     O42     1.311   .     A
C2     O40     1.301   .     A
C3     H35     1.075   .     S
C3     C5      1.410   .     A
C3     C11     1.400   .     A
C4     H36     1.076   .     S
C4     C6      1.410   .     A
C4     C12     1.400   .     A
C5     N37     1.382   .     A
C5     C61     1.487   .     S
C6     N38     1.382   .     A
C6     C64     1.487   .     S
C7     N37     1.384   .     A
C7     I67     2.143   .     S
C7     C9      1.420   .     A
C8     N38     1.384   .     A
C8     I68     2.143   .     S
C8     C10     1.420   .     A
C9     C11     1.418   .     A
C9     I69     2.155   .     S
C10    C12     1.418   .     A
C10    I70     2.155   .     S
C11    C432    1.537   1_554 S
C12    C431    1.537   .     S
C13    C15     1.433   .     S
C13    O45     1.294   .     A
C13    O43     1.291   .     A
C14    O44     1.291   .     A
C14    C16     1.433   .     S
C14    O46     1.294   .     A
C15    C156    1.335   1_455 S
C15    H171    1.087   1_455 S
C16    C85     1.335   .     S
C16    H102    1.087   .     S
C17    C19     1.408   .     A
C17    C27     1.413   .     A
C17    I47     2.159   .     S
C18    C28     1.413   .     A
C18    I48     2.159   .     S
C18    C20     1.408   .     A
C19    C49     1.483   .     S
C19    C21     1.429   .     A
C20    C52     1.483   .     S
C20    C22     1.429   .     A
C21    C23     1.419   .     A
C22    C24     1.419   .     A
C23    C55     1.487   .     S
C23    C25     1.396   .     A
C24    C26     1.396   .     A
C24    C58     1.487   .     S
C25    H33     1.079   .     S
C25    C27     1.400   .     A
C26    C28     1.400   .     A
C26    H34     1.079   .     S
C27    C238    1.502   1_545 S
C28    C237    1.502   .     S
Cu29   N38     2.026   .     S
Cu29   Cu30    2.697   .     S
Cu29   O42     1.947   .     S
Cu29   O46     1.956   .     S
Cu29   O39     1.961   .     S
Cu29   O43     1.954   .     S
Cu30   O41     1.947   .     S
Cu30   O45     1.956   .     S
Cu30   O44     1.954   .     S
Cu30   O40     1.961   .     S
Cu30   N37     2.026   .     S
H31    C85     1.087   .     S
H32    C156    1.087   1_455 S
C49    H50     1.085   .     S
C49    O51     1.221   .     D
C52    O54     1.221   .     D
C52    H53     1.085   .     S
C55    H56     1.084   .     S
C55    O57     1.221   .     D
C58    H59     1.084   .     S
C58    O60     1.221   .     D
C61    H62     1.071   .     S
C61    O63     1.222   .     D
C64    H65     1.071   .     S
C64    O66     1.222   .     D
C71    C91     1.490   .     S
C71    O111    1.311   .     A
C71    O109    1.301   .     A
C72    C92     1.490   .     S
C72    O112    1.311   .     A
C72    O110    1.301   .     A
C73    H105    1.075   .     S
C73    C75     1.410   .     A
C73    C81     1.400   .     A
C74    H106    1.076   .     S
C74    C76     1.410   .     A
C74    C82     1.400   .     A
C75    N107    1.382   .     A
C75    C131    1.487   .     S
C76    N108    1.382   .     A
C76    C134    1.487   .     S
C77    N107    1.384   .     A
C77    I137    2.143   .     S
C77    C79     1.420   .     A
C78    N108    1.384   .     A
C78    I138    2.143   .     S
C78    C80     1.420   .     A
C79    C81     1.418   .     A
C79    I139    2.155   .     S
C80    C82     1.418   .     A
C80    I140    2.155   .     S
C81    C502    1.537   1_554 S
C82    C501    1.537   .     S
C83    C85     1.433   .     S
C83    O115    1.294   .     A
C83    O113    1.291   .     A
C84    O114    1.291   .     A
C84    C86     1.433   .     S
C84    O116    1.294   .     A
C86    C155    1.335   .     S
C86    H172    1.087   .     S
C87    C89     1.408   .     A
C87    C97     1.413   .     A
C87    I117    2.159   .     S
C88    C98     1.413   .     A
C88    I118    2.159   .     S
C88    C90     1.408   .     A
C89    C119    1.483   .     S
C89    C91     1.429   .     A
C90    C122    1.483   .     S
C90    C92     1.429   .     A
C91    C93     1.419   .     A
C92    C94     1.419   .     A
C93    C125    1.487   .     S
C93    C95     1.396   .     A
C94    C96     1.396   .     A
C94    C128    1.487   .     S
C95    H103    1.079   .     S
C95    C97     1.400   .     A
C96    C98     1.400   .     A
C96    H104    1.079   .     S
C97    C308    1.502   1_545 S
C98    C307    1.502   .     S
Cu99   N108    2.026   .     S
Cu99   Cu100   2.697   .     S
Cu99   O112    1.947   .     S
Cu99   O116    1.956   .     S
Cu99   O109    1.961   .     S
Cu99   O113    1.954   .     S
Cu100  O111    1.947   .     S
Cu100  O115    1.956   .     S
Cu100  O114    1.954   .     S
Cu100  O110    1.961   .     S
Cu100  N107    2.026   .     S
H101   C155    1.087   .     S
C119   H120    1.085   .     S
C119   O121    1.221   .     D
C122   O124    1.221   .     D
C122   H123    1.085   .     S
C125   H126    1.084   .     S
C125   O127    1.221   .     D
C128   H129    1.084   .     S
C128   O130    1.221   .     D
C131   H132    1.071   .     S
C131   O133    1.222   .     D
C134   H135    1.071   .     S
C134   O136    1.222   .     D
C141   C161    1.490   .     S
C141   O181    1.311   .     A
C141   O179    1.301   .     A
C142   C162    1.490   .     S
C142   O182    1.311   .     A
C142   O180    1.301   .     A
C143   H175    1.075   .     S
C143   C145    1.410   .     A
C143   C151    1.400   .     A
C144   H176    1.076   .     S
C144   C146    1.410   .     A
C144   C152    1.400   .     A
C145   N177    1.382   .     A
C145   C201    1.487   .     S
C146   N178    1.382   .     A
C146   C204    1.487   .     S
C147   N177    1.384   .     A
C147   I207    2.143   .     S
C147   C149    1.420   .     A
C148   N178    1.384   .     A
C148   I208    2.143   .     S
C148   C150    1.420   .     A
C149   C151    1.418   .     A
C149   I209    2.155   .     S
C150   C152    1.418   .     A
C150   I210    2.155   .     S
C151   C572    1.537   1_554 S
C152   C571    1.537   .     S
C153   C155    1.433   .     S
C153   O185    1.294   .     A
C153   O183    1.291   .     A
C154   O184    1.291   .     A
C154   C156    1.433   .     S
C154   O186    1.294   .     A
C156   C15     1.335   1_655 S
C156   H32     1.087   1_655 S
C157   C159    1.408   .     A
C157   C167    1.413   .     A
C157   I187    2.159   .     S
C158   C168    1.413   .     A
C158   I188    2.159   .     S
C158   C160    1.408   .     A
C159   C189    1.483   .     S
C159   C161    1.429   .     A
C160   C192    1.483   .     S
C160   C162    1.429   .     A
C161   C163    1.419   .     A
C162   C164    1.419   .     A
C163   C195    1.487   .     S
C163   C165    1.396   .     A
C164   C166    1.396   .     A
C164   C198    1.487   .     S
C165   H173    1.079   .     S
C165   C167    1.400   .     A
C166   C168    1.400   .     A
C166   H174    1.079   .     S
C167   C378    1.502   1_545 S
C168   C377    1.502   .     S
Cu169  N178    2.026   .     S
Cu169  Cu170   2.697   .     S
Cu169  O182    1.947   .     S
Cu169  O186    1.956   .     S
Cu169  O179    1.961   .     S
Cu169  O183    1.954   .     S
Cu170  O181    1.947   .     S
Cu170  O185    1.956   .     S
Cu170  O184    1.954   .     S
Cu170  O180    1.961   .     S
Cu170  N177    2.026   .     S
H171   C15     1.087   1_655 S
C189   H190    1.085   .     S
C189   O191    1.221   .     D
C192   O194    1.221   .     D
C192   H193    1.085   .     S
C195   H196    1.084   .     S
C195   O197    1.221   .     D
C198   H199    1.084   .     S
C198   O200    1.221   .     D
C201   H202    1.071   .     S
C201   O203    1.222   .     D
C204   H205    1.071   .     S
C204   O206    1.222   .     D
C211   C231    1.490   .     S
C211   O251    1.311   .     A
C211   O249    1.301   .     A
C212   C232    1.490   .     S
C212   O252    1.311   .     A
C212   O250    1.301   .     A
C213   H245    1.075   .     S
C213   C215    1.410   .     A
C213   C221    1.400   .     A
C214   H246    1.076   .     S
C214   C216    1.410   .     A
C214   C222    1.400   .     A
C215   N247    1.382   .     A
C215   C271    1.487   .     S
C216   N248    1.382   .     A
C216   C274    1.487   .     S
C217   N247    1.384   .     A
C217   I277    2.143   .     S
C217   C219    1.420   .     A
C218   N248    1.384   .     A
C218   I278    2.143   .     S
C218   C220    1.420   .     A
C219   C221    1.418   .     A
C219   I279    2.155   .     S
C220   C222    1.418   .     A
C220   I280    2.155   .     S
C221   C642    1.537   1_554 S
C222   C641    1.537   .     S
C223   C225    1.433   .     S
C223   O255    1.294   .     A
C223   O253    1.291   .     A
C224   O254    1.291   .     A
C224   C226    1.433   .     S
C224   O256    1.294   .     A
C225   C366    1.335   1_455 S
C225   H381    1.087   1_455 S
C226   C295    1.335   .     S
C226   H312    1.087   .     S
C227   C229    1.408   .     A
C227   C237    1.413   .     A
C227   I257    2.159   .     S
C228   C238    1.413   .     A
C228   I258    2.159   .     S
C228   C230    1.408   .     A
C229   C259    1.483   .     S
C229   C231    1.429   .     A
C230   C262    1.483   .     S
C230   C232    1.429   .     A
C231   C233    1.419   .     A
C232   C234    1.419   .     A
C233   C265    1.487   .     S
C233   C235    1.396   .     A
C234   C236    1.396   .     A
C234   C268    1.487   .     S
C235   H243    1.079   .     S
C235   C237    1.400   .     A
C236   C238    1.400   .     A
C236   H244    1.079   .     S
C238   C27     1.502   1_565 S
Cu239  N248    2.026   .     S
Cu239  Cu240   2.697   .     S
Cu239  O252    1.947   .     S
Cu239  O256    1.956   .     S
Cu239  O249    1.961   .     S
Cu239  O253    1.954   .     S
Cu240  O251    1.947   .     S
Cu240  O255    1.956   .     S
Cu240  O254    1.954   .     S
Cu240  O250    1.961   .     S
Cu240  N247    2.026   .     S
H241   C295    1.087   .     S
H242   C366    1.087   1_455 S
C259   H260    1.085   .     S
C259   O261    1.221   .     D
C262   O264    1.221   .     D
C262   H263    1.085   .     S
C265   H266    1.084   .     S
C265   O267    1.221   .     D
C268   H269    1.084   .     S
C268   O270    1.221   .     D
C271   H272    1.071   .     S
C271   O273    1.222   .     D
C274   H275    1.071   .     S
C274   O276    1.222   .     D
C281   C301    1.490   .     S
C281   O321    1.311   .     A
C281   O319    1.301   .     A
C282   C302    1.490   .     S
C282   O322    1.311   .     A
C282   O320    1.301   .     A
C283   H315    1.075   .     S
C283   C285    1.410   .     A
C283   C291    1.400   .     A
C284   H316    1.076   .     S
C284   C286    1.410   .     A
C284   C292    1.400   .     A
C285   N317    1.382   .     A
C285   C341    1.487   .     S
C286   N318    1.382   .     A
C286   C344    1.487   .     S
C287   N317    1.384   .     A
C287   I347    2.143   .     S
C287   C289    1.420   .     A
C288   N318    1.384   .     A
C288   I348    2.143   .     S
C288   C290    1.420   .     A
C289   C291    1.418   .     A
C289   I349    2.155   .     S
C290   C292    1.418   .     A
C290   I350    2.155   .     S
C291   C712    1.537   1_554 S
C292   C711    1.537   .     S
C293   C295    1.433   .     S
C293   O325    1.294   .     A
C293   O323    1.291   .     A
C294   O324    1.291   .     A
C294   C296    1.433   .     S
C294   O326    1.294   .     A
C296   C365    1.335   .     S
C296   H382    1.087   .     S
C297   C299    1.408   .     A
C297   C307    1.413   .     A
C297   I327    2.159   .     S
C298   C308    1.413   .     A
C298   I328    2.159   .     S
C298   C300    1.408   .     A
C299   C329    1.483   .     S
C299   C301    1.429   .     A
C300   C332    1.483   .     S
C300   C302    1.429   .     A
C301   C303    1.419   .     A
C302   C304    1.419   .     A
C303   C335    1.487   .     S
C303   C305    1.396   .     A
C304   C306    1.396   .     A
C304   C338    1.487   .     S
C305   H313    1.079   .     S
C305   C307    1.400   .     A
C306   C308    1.400   .     A
C306   H314    1.079   .     S
C308   C97     1.502   1_565 S
Cu309  N318    2.026   .     S
Cu309  Cu310   2.697   .     S
Cu309  O322    1.947   .     S
Cu309  O326    1.956   .     S
Cu309  O319    1.961   .     S
Cu309  O323    1.954   .     S
Cu310  O321    1.947   .     S
Cu310  O325    1.956   .     S
Cu310  O324    1.954   .     S
Cu310  O320    1.961   .     S
Cu310  N317    2.026   .     S
H311   C365    1.087   .     S
C329   H330    1.085   .     S
C329   O331    1.221   .     D
C332   O334    1.221   .     D
C332   H333    1.085   .     S
C335   H336    1.084   .     S
C335   O337    1.221   .     D
C338   H339    1.084   .     S
C338   O340    1.221   .     D
C341   H342    1.071   .     S
C341   O343    1.222   .     D
C344   H345    1.071   .     S
C344   O346    1.222   .     D
C351   C371    1.490   .     S
C351   O391    1.311   .     A
C351   O389    1.301   .     A
C352   C372    1.490   .     S
C352   O392    1.311   .     A
C352   O390    1.301   .     A
C353   H385    1.075   .     S
C353   C355    1.410   .     A
C353   C361    1.400   .     A
C354   H386    1.076   .     S
C354   C356    1.410   .     A
C354   C362    1.400   .     A
C355   N387    1.382   .     A
C355   C411    1.487   .     S
C356   N388    1.382   .     A
C356   C414    1.487   .     S
C357   N387    1.384   .     A
C357   I417    2.143   .     S
C357   C359    1.420   .     A
C358   N388    1.384   .     A
C358   I418    2.143   .     S
C358   C360    1.420   .     A
C359   C361    1.418   .     A
C359   I419    2.155   .     S
C360   C362    1.418   .     A
C360   I420    2.155   .     S
C361   C782    1.537   1_554 S
C362   C781    1.537   .     S
C363   C365    1.433   .     S
C363   O395    1.294   .     A
C363   O393    1.291   .     A
C364   O394    1.291   .     A
C364   C366    1.433   .     S
C364   O396    1.294   .     A
C366   C225    1.335   1_655 S
C366   H242    1.087   1_655 S
C367   C369    1.408   .     A
C367   C377    1.413   .     A
C367   I397    2.159   .     S
C368   C378    1.413   .     A
C368   I398    2.159   .     S
C368   C370    1.408   .     A
C369   C399    1.483   .     S
C369   C371    1.429   .     A
C370   C402    1.483   .     S
C370   C372    1.429   .     A
C371   C373    1.419   .     A
C372   C374    1.419   .     A
C373   C405    1.487   .     S
C373   C375    1.396   .     A
C374   C376    1.396   .     A
C374   C408    1.487   .     S
C375   H383    1.079   .     S
C375   C377    1.400   .     A
C376   C378    1.400   .     A
C376   H384    1.079   .     S
C378   C167    1.502   1_565 S
Cu379  N388    2.026   .     S
Cu379  Cu380   2.697   .     S
Cu379  O392    1.947   .     S
Cu379  O396    1.956   .     S
Cu379  O389    1.961   .     S
Cu379  O393    1.954   .     S
Cu380  O391    1.947   .     S
Cu380  O395    1.956   .     S
Cu380  O394    1.954   .     S
Cu380  O390    1.961   .     S
Cu380  N387    2.026   .     S
H381   C225    1.087   1_655 S
C399   H400    1.085   .     S
C399   O401    1.221   .     D
C402   O404    1.221   .     D
C402   H403    1.085   .     S
C405   H406    1.084   .     S
C405   O407    1.221   .     D
C408   H409    1.084   .     S
C408   O410    1.221   .     D
C411   H412    1.071   .     S
C411   O413    1.222   .     D
C414   H415    1.071   .     S
C414   O416    1.222   .     D
C421   C441    1.490   .     S
C421   O461    1.311   .     A
C421   O459    1.301   .     A
C422   C442    1.490   .     S
C422   O462    1.311   .     A
C422   O460    1.301   .     A
C423   H455    1.075   .     S
C423   C425    1.410   .     A
C423   C431    1.400   .     A
C424   H456    1.076   .     S
C424   C426    1.410   .     A
C424   C432    1.400   .     A
C425   N457    1.382   .     A
C425   C481    1.487   .     S
C426   N458    1.382   .     A
C426   C484    1.487   .     S
C427   N457    1.384   .     A
C427   I487    2.143   .     S
C427   C429    1.420   .     A
C428   N458    1.384   .     A
C428   I488    2.143   .     S
C428   C430    1.420   .     A
C429   C431    1.418   .     A
C429   I489    2.155   .     S
C430   C432    1.418   .     A
C430   I490    2.155   .     S
C432   C11     1.537   1_556 S
C433   C435    1.433   .     S
C433   O465    1.294   .     A
C433   O463    1.291   .     A
C434   O464    1.291   .     A
C434   C436    1.433   .     S
C434   O466    1.294   .     A
C435   C576    1.335   1_455 S
C435   H591    1.087   1_455 S
C436   C505    1.335   .     S
C436   H522    1.087   .     S
C437   C439    1.408   .     A
C437   C447    1.413   .     A
C437   I467    2.159   .     S
C438   C448    1.413   .     A
C438   I468    2.159   .     S
C438   C440    1.408   .     A
C439   C469    1.483   .     S
C439   C441    1.429   .     A
C440   C472    1.483   .     S
C440   C442    1.429   .     A
C441   C443    1.419   .     A
C442   C444    1.419   .     A
C443   C475    1.487   .     S
C443   C445    1.396   .     A
C444   C446    1.396   .     A
C444   C478    1.487   .     S
C445   H453    1.079   .     S
C445   C447    1.400   .     A
C446   C448    1.400   .     A
C446   H454    1.079   .     S
C447   C658    1.502   1_545 S
C448   C657    1.502   .     S
Cu449  N458    2.026   .     S
Cu449  Cu450   2.697   .     S
Cu449  O462    1.947   .     S
Cu449  O466    1.956   .     S
Cu449  O459    1.961   .     S
Cu449  O463    1.954   .     S
Cu450  O461    1.947   .     S
Cu450  O465    1.956   .     S
Cu450  O464    1.954   .     S
Cu450  O460    1.961   .     S
Cu450  N457    2.026   .     S
H451   C505    1.087   .     S
H452   C576    1.087   1_455 S
C469   H470    1.085   .     S
C469   O471    1.221   .     D
C472   O474    1.221   .     D
C472   H473    1.085   .     S
C475   H476    1.084   .     S
C475   O477    1.221   .     D
C478   H479    1.084   .     S
C478   O480    1.221   .     D
C481   H482    1.071   .     S
C481   O483    1.222   .     D
C484   H485    1.071   .     S
C484   O486    1.222   .     D
C491   C511    1.490   .     S
C491   O531    1.311   .     A
C491   O529    1.301   .     A
C492   C512    1.490   .     S
C492   O532    1.311   .     A
C492   O530    1.301   .     A
C493   H525    1.075   .     S
C493   C495    1.410   .     A
C493   C501    1.400   .     A
C494   H526    1.076   .     S
C494   C496    1.410   .     A
C494   C502    1.400   .     A
C495   N527    1.382   .     A
C495   C551    1.487   .     S
C496   N528    1.382   .     A
C496   C554    1.487   .     S
C497   N527    1.384   .     A
C497   I557    2.143   .     S
C497   C499    1.420   .     A
C498   N528    1.384   .     A
C498   I558    2.143   .     S
C498   C500    1.420   .     A
C499   C501    1.418   .     A
C499   I559    2.155   .     S
C500   C502    1.418   .     A
C500   I560    2.155   .     S
C502   C81     1.537   1_556 S
C503   C505    1.433   .     S
C503   O535    1.294   .     A
C503   O533    1.291   .     A
C504   O534    1.291   .     A
C504   C506    1.433   .     S
C504   O536    1.294   .     A
C506   C575    1.335   .     S
C506   H592    1.087   .     S
C507   C509    1.408   .     A
C507   C517    1.413   .     A
C507   I537    2.159   .     S
C508   C518    1.413   .     A
C508   I538    2.159   .     S
C508   C510    1.408   .     A
C509   C539    1.483   .     S
C509   C511    1.429   .     A
C510   C542    1.483   .     S
C510   C512    1.429   .     A
C511   C513    1.419   .     A
C512   C514    1.419   .     A
C513   C545    1.487   .     S
C513   C515    1.396   .     A
C514   C516    1.396   .     A
C514   C548    1.487   .     S
C515   H523    1.079   .     S
C515   C517    1.400   .     A
C516   C518    1.400   .     A
C516   H524    1.079   .     S
C517   C728    1.502   1_545 S
C518   C727    1.502   .     S
Cu519  N528    2.026   .     S
Cu519  Cu520   2.697   .     S
Cu519  O532    1.947   .     S
Cu519  O536    1.956   .     S
Cu519  O529    1.961   .     S
Cu519  O533    1.954   .     S
Cu520  O531    1.947   .     S
Cu520  O535    1.956   .     S
Cu520  O534    1.954   .     S
Cu520  O530    1.961   .     S
Cu520  N527    2.026   .     S
H521   C575    1.087   .     S
C539   H540    1.085   .     S
C539   O541    1.221   .     D
C542   O544    1.221   .     D
C542   H543    1.085   .     S
C545   H546    1.084   .     S
C545   O547    1.221   .     D
C548   H549    1.084   .     S
C548   O550    1.221   .     D
C551   H552    1.071   .     S
C551   O553    1.222   .     D
C554   H555    1.071   .     S
C554   O556    1.222   .     D
C561   C581    1.490   .     S
C561   O601    1.311   .     A
C561   O599    1.301   .     A
C562   C582    1.490   .     S
C562   O602    1.311   .     A
C562   O600    1.301   .     A
C563   H595    1.075   .     S
C563   C565    1.410   .     A
C563   C571    1.400   .     A
C564   H596    1.076   .     S
C564   C566    1.410   .     A
C564   C572    1.400   .     A
C565   N597    1.382   .     A
C565   C621    1.487   .     S
C566   N598    1.382   .     A
C566   C624    1.487   .     S
C567   N597    1.384   .     A
C567   I627    2.143   .     S
C567   C569    1.420   .     A
C568   N598    1.384   .     A
C568   I628    2.143   .     S
C568   C570    1.420   .     A
C569   C571    1.418   .     A
C569   I629    2.155   .     S
C570   C572    1.418   .     A
C570   I630    2.155   .     S
C572   C151    1.537   1_556 S
C573   C575    1.433   .     S
C573   O605    1.294   .     A
C573   O603    1.291   .     A
C574   O604    1.291   .     A
C574   C576    1.433   .     S
C574   O606    1.294   .     A
C576   C435    1.335   1_655 S
C576   H452    1.087   1_655 S
C577   C579    1.408   .     A
C577   C587    1.413   .     A
C577   I607    2.159   .     S
C578   C588    1.413   .     A
C578   I608    2.159   .     S
C578   C580    1.408   .     A
C579   C609    1.483   .     S
C579   C581    1.429   .     A
C580   C612    1.483   .     S
C580   C582    1.429   .     A
C581   C583    1.419   .     A
C582   C584    1.419   .     A
C583   C615    1.487   .     S
C583   C585    1.396   .     A
C584   C586    1.396   .     A
C584   C618    1.487   .     S
C585   H593    1.079   .     S
C585   C587    1.400   .     A
C586   C588    1.400   .     A
C586   H594    1.079   .     S
C587   C798    1.502   1_545 S
C588   C797    1.502   .     S
Cu589  N598    2.026   .     S
Cu589  Cu590   2.697   .     S
Cu589  O602    1.947   .     S
Cu589  O606    1.956   .     S
Cu589  O599    1.961   .     S
Cu589  O603    1.954   .     S
Cu590  O601    1.947   .     S
Cu590  O605    1.956   .     S
Cu590  O604    1.954   .     S
Cu590  O600    1.961   .     S
Cu590  N597    2.026   .     S
H591   C435    1.087   1_655 S
C609   H610    1.085   .     S
C609   O611    1.221   .     D
C612   O614    1.221   .     D
C612   H613    1.085   .     S
C615   H616    1.084   .     S
C615   O617    1.221   .     D
C618   H619    1.084   .     S
C618   O620    1.221   .     D
C621   H622    1.071   .     S
C621   O623    1.222   .     D
C624   H625    1.071   .     S
C624   O626    1.222   .     D
C631   C651    1.490   .     S
C631   O671    1.311   .     A
C631   O669    1.301   .     A
C632   C652    1.490   .     S
C632   O672    1.311   .     A
C632   O670    1.301   .     A
C633   H665    1.075   .     S
C633   C635    1.410   .     A
C633   C641    1.400   .     A
C634   H666    1.076   .     S
C634   C636    1.410   .     A
C634   C642    1.400   .     A
C635   N667    1.382   .     A
C635   C691    1.487   .     S
C636   N668    1.382   .     A
C636   C694    1.487   .     S
C637   N667    1.384   .     A
C637   I697    2.143   .     S
C637   C639    1.420   .     A
C638   N668    1.384   .     A
C638   I698    2.143   .     S
C638   C640    1.420   .     A
C639   C641    1.418   .     A
C639   I699    2.155   .     S
C640   C642    1.418   .     A
C640   I700    2.155   .     S
C642   C221    1.537   1_556 S
C643   C645    1.433   .     S
C643   O675    1.294   .     A
C643   O673    1.291   .     A
C644   O674    1.291   .     A
C644   C646    1.433   .     S
C644   O676    1.294   .     A
C645   C786    1.335   1_455 S
C645   H801    1.087   1_455 S
C646   C715    1.335   .     S
C646   H732    1.087   .     S
C647   C649    1.408   .     A
C647   C657    1.413   .     A
C647   I677    2.159   .     S
C648   C658    1.413   .     A
C648   I678    2.159   .     S
C648   C650    1.408   .     A
C649   C679    1.483   .     S
C649   C651    1.429   .     A
C650   C682    1.483   .     S
C650   C652    1.429   .     A
C651   C653    1.419   .     A
C652   C654    1.419   .     A
C653   C685    1.487   .     S
C653   C655    1.396   .     A
C654   C656    1.396   .     A
C654   C688    1.487   .     S
C655   H663    1.079   .     S
C655   C657    1.400   .     A
C656   C658    1.400   .     A
C656   H664    1.079   .     S
C658   C447    1.502   1_565 S
Cu659  N668    2.026   .     S
Cu659  Cu660   2.697   .     S
Cu659  O672    1.947   .     S
Cu659  O676    1.956   .     S
Cu659  O669    1.961   .     S
Cu659  O673    1.954   .     S
Cu660  O671    1.947   .     S
Cu660  O675    1.956   .     S
Cu660  O674    1.954   .     S
Cu660  O670    1.961   .     S
Cu660  N667    2.026   .     S
H661   C715    1.087   .     S
H662   C786    1.087   1_455 S
C679   H680    1.085   .     S
C679   O681    1.221   .     D
C682   O684    1.221   .     D
C682   H683    1.085   .     S
C685   H686    1.084   .     S
C685   O687    1.221   .     D
C688   H689    1.084   .     S
C688   O690    1.221   .     D
C691   H692    1.071   .     S
C691   O693    1.222   .     D
C694   H695    1.071   .     S
C694   O696    1.222   .     D
C701   C721    1.490   .     S
C701   O741    1.311   .     A
C701   O739    1.301   .     A
C702   C722    1.490   .     S
C702   O742    1.311   .     A
C702   O740    1.301   .     A
C703   H735    1.075   .     S
C703   C705    1.410   .     A
C703   C711    1.400   .     A
C704   H736    1.076   .     S
C704   C706    1.410   .     A
C704   C712    1.400   .     A
C705   N737    1.382   .     A
C705   C761    1.487   .     S
C706   N738    1.382   .     A
C706   C764    1.487   .     S
C707   N737    1.384   .     A
C707   I767    2.143   .     S
C707   C709    1.420   .     A
C708   N738    1.384   .     A
C708   I768    2.143   .     S
C708   C710    1.420   .     A
C709   C711    1.418   .     A
C709   I769    2.155   .     S
C710   C712    1.418   .     A
C710   I770    2.155   .     S
C712   C291    1.537   1_556 S
C713   C715    1.433   .     S
C713   O745    1.294   .     A
C713   O743    1.291   .     A
C714   O744    1.291   .     A
C714   C716    1.433   .     S
C714   O746    1.294   .     A
C716   C785    1.335   .     S
C716   H802    1.087   .     S
C717   C719    1.408   .     A
C717   C727    1.413   .     A
C717   I747    2.159   .     S
C718   C728    1.413   .     A
C718   I748    2.159   .     S
C718   C720    1.408   .     A
C719   C749    1.483   .     S
C719   C721    1.429   .     A
C720   C752    1.483   .     S
C720   C722    1.429   .     A
C721   C723    1.419   .     A
C722   C724    1.419   .     A
C723   C755    1.487   .     S
C723   C725    1.396   .     A
C724   C726    1.396   .     A
C724   C758    1.487   .     S
C725   H733    1.079   .     S
C725   C727    1.400   .     A
C726   C728    1.400   .     A
C726   H734    1.079   .     S
C728   C517    1.502   1_565 S
Cu729  N738    2.026   .     S
Cu729  Cu730   2.697   .     S
Cu729  O742    1.947   .     S
Cu729  O746    1.956   .     S
Cu729  O739    1.961   .     S
Cu729  O743    1.954   .     S
Cu730  O741    1.947   .     S
Cu730  O745    1.956   .     S
Cu730  O744    1.954   .     S
Cu730  O740    1.961   .     S
Cu730  N737    2.026   .     S
H731   C785    1.087   .     S
C749   H750    1.085   .     S
C749   O751    1.221   .     D
C752   O754    1.221   .     D
C752   H753    1.085   .     S
C755   H756    1.084   .     S
C755   O757    1.221   .     D
C758   H759    1.084   .     S
C758   O760    1.221   .     D
C761   H762    1.071   .     S
C761   O763    1.222   .     D
C764   H765    1.071   .     S
C764   O766    1.222   .     D
C771   C791    1.490   .     S
C771   O811    1.311   .     A
C771   O809    1.301   .     A
C772   C792    1.490   .     S
C772   O812    1.311   .     A
C772   O810    1.301   .     A
C773   H805    1.075   .     S
C773   C775    1.410   .     A
C773   C781    1.400   .     A
C774   H806    1.076   .     S
C774   C776    1.410   .     A
C774   C782    1.400   .     A
C775   N807    1.382   .     A
C775   C831    1.487   .     S
C776   N808    1.382   .     A
C776   C834    1.487   .     S
C777   N807    1.384   .     A
C777   I837    2.143   .     S
C777   C779    1.420   .     A
C778   N808    1.384   .     A
C778   I838    2.143   .     S
C778   C780    1.420   .     A
C779   C781    1.418   .     A
C779   I839    2.155   .     S
C780   C782    1.418   .     A
C780   I840    2.155   .     S
C782   C361    1.537   1_556 S
C783   C785    1.433   .     S
C783   O815    1.294   .     A
C783   O813    1.291   .     A
C784   O814    1.291   .     A
C784   C786    1.433   .     S
C784   O816    1.294   .     A
C786   C645    1.335   1_655 S
C786   H662    1.087   1_655 S
C787   C789    1.408   .     A
C787   C797    1.413   .     A
C787   I817    2.159   .     S
C788   C798    1.413   .     A
C788   I818    2.159   .     S
C788   C790    1.408   .     A
C789   C819    1.483   .     S
C789   C791    1.429   .     A
C790   C822    1.483   .     S
C790   C792    1.429   .     A
C791   C793    1.419   .     A
C792   C794    1.419   .     A
C793   C825    1.487   .     S
C793   C795    1.396   .     A
C794   C796    1.396   .     A
C794   C828    1.487   .     S
C795   H803    1.079   .     S
C795   C797    1.400   .     A
C796   C798    1.400   .     A
C796   H804    1.079   .     S
C798   C587    1.502   1_565 S
Cu799  N808    2.026   .     S
Cu799  Cu800   2.697   .     S
Cu799  O812    1.947   .     S
Cu799  O816    1.956   .     S
Cu799  O809    1.961   .     S
Cu799  O813    1.954   .     S
Cu800  O811    1.947   .     S
Cu800  O815    1.956   .     S
Cu800  O814    1.954   .     S
Cu800  O810    1.961   .     S
Cu800  N807    2.026   .     S
H801   C645    1.087   1_655 S
C819   H820    1.085   .     S
C819   O821    1.221   .     D
C822   O824    1.221   .     D
C822   H823    1.085   .     S
C825   H826    1.084   .     S
C825   O827    1.221   .     D
C828   H829    1.084   .     S
C828   O830    1.221   .     D
C831   H832    1.071   .     S
C831   O833    1.222   .     D
C834   H835    1.071   .     S
C834   O836    1.222   .     D
