data_str_m2_o2_o5_pcu_sym.4
_audit_creation_date              2020-01-03
_audit_creation_method            'Materials Studio'
_symmetry_space_group_name_H-M    'P1'
_symmetry_Int_Tables_number       1
_symmetry_cell_setting            triclinic
loop_
_symmetry_equiv_pos_as_xyz
  x,y,z
_cell_length_a                    30.2693
_cell_length_b                    27.9808
_cell_length_c                    27.2335
_cell_angle_alpha                 90.0000
_cell_angle_beta                  91.9604
_cell_angle_gamma                 90.0000
loop_
_atom_site_label
_atom_site_type_symbol
_atom_site_fract_x
_atom_site_fract_y
_atom_site_fract_z
_atom_site_U_iso_or_equiv
_atom_site_adp_type
_atom_site_occupancy
C1     C     0.16504   0.25000   0.16654   0.00000  Uiso   1.00
C2     C     0.28815   0.44619   0.18142   0.00000  Uiso   1.00
C3     C     0.24991   0.25000   0.07360   0.00000  Uiso   1.00
C4     C     0.25009   0.25000   0.25973   0.00000  Uiso   1.00
C5     C     0.25000   0.02724   0.16667   0.00000  Uiso   1.00
C6     C     0.25000   0.47276   0.16667   0.00000  Uiso   1.00
C7     C     0.24997   0.24999   0.02186   0.00000  Uiso   1.00
C8     C     0.25003   0.24999   0.31147   0.00000  Uiso   1.00
C9     C     0.04812   0.29090   0.18152   0.00000  Uiso   1.00
C10    C     0.45286   0.20924   0.18176   0.00000  Uiso   1.00
C11    C     0.45188   0.29090   0.15181   0.00000  Uiso   1.00
C12    C     0.33496   0.25000   0.16679   0.00000  Uiso   1.00
C13    C     0.04714   0.20924   0.15157   0.00000  Uiso   1.00
C14    C     0.09403   0.29100   0.18113   0.00000  Uiso   1.00
C15    C     0.40692   0.20912   0.18150   0.00000  Uiso   1.00
C16    C     0.40597   0.29100   0.15220   0.00000  Uiso   1.00
C17    C     0.09308   0.20912   0.15183   0.00000  Uiso   1.00
C18    C     0.11677   0.25004   0.16649   0.00000  Uiso   1.00
C19    C     0.38323   0.25004   0.16685   0.00000  Uiso   1.00
C20    C     0.02429   0.25007   0.16661   0.00000  Uiso   1.00
C21    C     0.47571   0.25007   0.16673   0.00000  Uiso   1.00
C22    C     0.26729   0.10397   0.20631   0.00000  Uiso   1.00
C23    C     0.21431   0.39603   0.14752   0.00000  Uiso   1.00
C24    C     0.23271   0.10397   0.12703   0.00000  Uiso   1.00
C25    C     0.28569   0.39603   0.18581   0.00000  Uiso   1.00
C26    C     0.26331   0.05382   0.20906   0.00000  Uiso   1.00
C27    C     0.21185   0.44619   0.15191   0.00000  Uiso   1.00
C28    C     0.23669   0.05382   0.12428   0.00000  Uiso   1.00
Cu29   Cu    0.25000   0.29822   0.16667   0.00000  Uiso   1.00
Cu30   Cu    0.25000   0.20179   0.16667   0.00000  Uiso   1.00
H31    H     0.03131   0.32256   0.19409   0.00000  Uiso   1.00
H32    H     0.19199   0.34825   0.10327   0.00000  Uiso   1.00
H33    H     0.19285   0.15174   0.10229   0.00000  Uiso   1.00
H34    H     0.30801   0.34825   0.23007   0.00000  Uiso   1.00
H35    H     0.26049   0.00054   0.25480   0.00000  Uiso   1.00
H36    H     0.17072   0.49948   0.15505   0.00000  Uiso   1.00
H37    H     0.23951   0.00054   0.07854   0.00000  Uiso   1.00
H38    H     0.32928   0.49948   0.17829   0.00000  Uiso   1.00
H39    H     0.47048   0.17759   0.19428   0.00000  Uiso   1.00
H40    H     0.46869   0.32256   0.13925   0.00000  Uiso   1.00
H41    H     0.02952   0.17759   0.13906   0.00000  Uiso   1.00
H42    H     0.11171   0.32286   0.19296   0.00000  Uiso   1.00
H43    H     0.38999   0.17725   0.19339   0.00000  Uiso   1.00
H44    H     0.38829   0.32286   0.14037   0.00000  Uiso   1.00
H45    H     0.11000   0.17725   0.13995   0.00000  Uiso   1.00
H46    H     0.30715   0.15174   0.23104   0.00000  Uiso   1.00
N47    N     0.25000   0.12935   0.16667   0.00000  Uiso   1.00
N48    N     0.25000   0.37066   0.16667   0.00000  Uiso   1.00
O49    O     0.18573   0.29072   0.16667   0.00000  Uiso   1.00
O50    O     0.17940   0.37369   0.12363   0.00000  Uiso   1.00
O51    O     0.21117   0.12633   0.08826   0.00000  Uiso   1.00
O52    O     0.32060   0.37369   0.20971   0.00000  Uiso   1.00
O53    O     0.27460   0.03239   0.25345   0.00000  Uiso   1.00
O54    O     0.17191   0.46762   0.13939   0.00000  Uiso   1.00
O55    O     0.22540   0.03239   0.07988   0.00000  Uiso   1.00
O56    O     0.32809   0.46762   0.19395   0.00000  Uiso   1.00
O57    O     0.31427   0.20929   0.16666   0.00000  Uiso   1.00
O58    O     0.31427   0.29072   0.16666   0.00000  Uiso   1.00
O59    O     0.18573   0.20929   0.16667   0.00000  Uiso   1.00
O60    O     0.25000   0.29071   0.09613   0.00000  Uiso   1.00
O61    O     0.25000   0.20929   0.23720   0.00000  Uiso   1.00
O62    O     0.25000   0.29071   0.23720   0.00000  Uiso   1.00
O63    O     0.25000   0.20929   0.09613   0.00000  Uiso   1.00
O64    O     0.28883   0.12633   0.24507   0.00000  Uiso   1.00
C65    C     0.66504   0.25000   0.16654   0.00000  Uiso   1.00
C66    C     0.78815   0.44619   0.18142   0.00000  Uiso   1.00
C67    C     0.74991   0.25000   0.07360   0.00000  Uiso   1.00
C68    C     0.75009   0.25000   0.25973   0.00000  Uiso   1.00
C69    C     0.75000   0.02724   0.16667   0.00000  Uiso   1.00
C70    C     0.75000   0.47276   0.16667   0.00000  Uiso   1.00
C71    C     0.74997   0.24999   0.02186   0.00000  Uiso   1.00
C72    C     0.75003   0.24999   0.31147   0.00000  Uiso   1.00
C73    C     0.54812   0.29090   0.18152   0.00000  Uiso   1.00
C74    C     0.95286   0.20924   0.18176   0.00000  Uiso   1.00
C75    C     0.95188   0.29090   0.15181   0.00000  Uiso   1.00
C76    C     0.83496   0.25000   0.16679   0.00000  Uiso   1.00
C77    C     0.54714   0.20924   0.15157   0.00000  Uiso   1.00
C78    C     0.59403   0.29100   0.18113   0.00000  Uiso   1.00
C79    C     0.90692   0.20912   0.18150   0.00000  Uiso   1.00
C80    C     0.90597   0.29100   0.15220   0.00000  Uiso   1.00
C81    C     0.59308   0.20912   0.15183   0.00000  Uiso   1.00
C82    C     0.61677   0.25004   0.16649   0.00000  Uiso   1.00
C83    C     0.88323   0.25004   0.16685   0.00000  Uiso   1.00
C84    C     0.52429   0.25007   0.16661   0.00000  Uiso   1.00
C85    C     0.97571   0.25007   0.16673   0.00000  Uiso   1.00
C86    C     0.76729   0.10397   0.20631   0.00000  Uiso   1.00
C87    C     0.71431   0.39603   0.14752   0.00000  Uiso   1.00
C88    C     0.73271   0.10397   0.12703   0.00000  Uiso   1.00
C89    C     0.78569   0.39603   0.18581   0.00000  Uiso   1.00
C90    C     0.76331   0.05382   0.20906   0.00000  Uiso   1.00
C91    C     0.71185   0.44619   0.15191   0.00000  Uiso   1.00
C92    C     0.73669   0.05382   0.12428   0.00000  Uiso   1.00
Cu93   Cu    0.75000   0.29822   0.16667   0.00000  Uiso   1.00
Cu94   Cu    0.75000   0.20179   0.16667   0.00000  Uiso   1.00
H95    H     0.53131   0.32256   0.19409   0.00000  Uiso   1.00
H96    H     0.69199   0.34825   0.10327   0.00000  Uiso   1.00
H97    H     0.69285   0.15174   0.10229   0.00000  Uiso   1.00
H98    H     0.80801   0.34825   0.23007   0.00000  Uiso   1.00
H99    H     0.76049   0.00054   0.25480   0.00000  Uiso   1.00
H100   H     0.67072   0.49948   0.15505   0.00000  Uiso   1.00
H101   H     0.73951   0.00054   0.07854   0.00000  Uiso   1.00
H102   H     0.82928   0.49948   0.17829   0.00000  Uiso   1.00
H103   H     0.97048   0.17759   0.19428   0.00000  Uiso   1.00
H104   H     0.96869   0.32256   0.13925   0.00000  Uiso   1.00
H105   H     0.52952   0.17759   0.13906   0.00000  Uiso   1.00
H106   H     0.61171   0.32286   0.19296   0.00000  Uiso   1.00
H107   H     0.88999   0.17725   0.19339   0.00000  Uiso   1.00
H108   H     0.88829   0.32286   0.14037   0.00000  Uiso   1.00
H109   H     0.61000   0.17725   0.13995   0.00000  Uiso   1.00
H110   H     0.80715   0.15174   0.23104   0.00000  Uiso   1.00
N111   N     0.75000   0.12935   0.16667   0.00000  Uiso   1.00
N112   N     0.75000   0.37066   0.16667   0.00000  Uiso   1.00
O113   O     0.68573   0.29072   0.16667   0.00000  Uiso   1.00
O114   O     0.67940   0.37369   0.12363   0.00000  Uiso   1.00
O115   O     0.71117   0.12633   0.08826   0.00000  Uiso   1.00
O116   O     0.82060   0.37369   0.20971   0.00000  Uiso   1.00
O117   O     0.77460   0.03239   0.25345   0.00000  Uiso   1.00
O118   O     0.67191   0.46762   0.13939   0.00000  Uiso   1.00
O119   O     0.72540   0.03239   0.07988   0.00000  Uiso   1.00
O120   O     0.82809   0.46762   0.19395   0.00000  Uiso   1.00
O121   O     0.81427   0.20929   0.16666   0.00000  Uiso   1.00
O122   O     0.81427   0.29072   0.16666   0.00000  Uiso   1.00
O123   O     0.68573   0.20929   0.16667   0.00000  Uiso   1.00
O124   O     0.75000   0.29071   0.09613   0.00000  Uiso   1.00
O125   O     0.75000   0.20929   0.23720   0.00000  Uiso   1.00
O126   O     0.75000   0.29071   0.23720   0.00000  Uiso   1.00
O127   O     0.75000   0.20929   0.09613   0.00000  Uiso   1.00
O128   O     0.78883   0.12633   0.24507   0.00000  Uiso   1.00
C129   C     0.16504   0.75000   0.16654   0.00000  Uiso   1.00
C130   C     0.28815   0.94619   0.18142   0.00000  Uiso   1.00
C131   C     0.24991   0.75000   0.07360   0.00000  Uiso   1.00
C132   C     0.25009   0.75000   0.25973   0.00000  Uiso   1.00
C133   C     0.25000   0.52724   0.16667   0.00000  Uiso   1.00
C134   C     0.25000   0.97276   0.16667   0.00000  Uiso   1.00
C135   C     0.24997   0.74999   0.02186   0.00000  Uiso   1.00
C136   C     0.25003   0.74999   0.31147   0.00000  Uiso   1.00
C137   C     0.04812   0.79090   0.18152   0.00000  Uiso   1.00
C138   C     0.45286   0.70924   0.18176   0.00000  Uiso   1.00
C139   C     0.45188   0.79090   0.15181   0.00000  Uiso   1.00
C140   C     0.33496   0.75000   0.16679   0.00000  Uiso   1.00
C141   C     0.04714   0.70924   0.15157   0.00000  Uiso   1.00
C142   C     0.09403   0.79100   0.18113   0.00000  Uiso   1.00
C143   C     0.40692   0.70912   0.18150   0.00000  Uiso   1.00
C144   C     0.40597   0.79100   0.15220   0.00000  Uiso   1.00
C145   C     0.09308   0.70912   0.15183   0.00000  Uiso   1.00
C146   C     0.11677   0.75004   0.16649   0.00000  Uiso   1.00
C147   C     0.38323   0.75004   0.16685   0.00000  Uiso   1.00
C148   C     0.02429   0.75007   0.16661   0.00000  Uiso   1.00
C149   C     0.47571   0.75007   0.16673   0.00000  Uiso   1.00
C150   C     0.26729   0.60397   0.20631   0.00000  Uiso   1.00
C151   C     0.21431   0.89603   0.14752   0.00000  Uiso   1.00
C152   C     0.23271   0.60397   0.12703   0.00000  Uiso   1.00
C153   C     0.28569   0.89603   0.18581   0.00000  Uiso   1.00
C154   C     0.26331   0.55382   0.20906   0.00000  Uiso   1.00
C155   C     0.21185   0.94619   0.15191   0.00000  Uiso   1.00
C156   C     0.23669   0.55382   0.12428   0.00000  Uiso   1.00
Cu157  Cu    0.25000   0.79822   0.16667   0.00000  Uiso   1.00
Cu158  Cu    0.25000   0.70179   0.16667   0.00000  Uiso   1.00
H159   H     0.03131   0.82256   0.19409   0.00000  Uiso   1.00
H160   H     0.19199   0.84825   0.10327   0.00000  Uiso   1.00
H161   H     0.19285   0.65174   0.10229   0.00000  Uiso   1.00
H162   H     0.30801   0.84825   0.23007   0.00000  Uiso   1.00
H163   H     0.26049   0.50054   0.25480   0.00000  Uiso   1.00
H164   H     0.17072   0.99948   0.15505   0.00000  Uiso   1.00
H165   H     0.23951   0.50054   0.07854   0.00000  Uiso   1.00
H166   H     0.32928   0.99948   0.17829   0.00000  Uiso   1.00
H167   H     0.47048   0.67759   0.19428   0.00000  Uiso   1.00
H168   H     0.46869   0.82256   0.13925   0.00000  Uiso   1.00
H169   H     0.02952   0.67759   0.13906   0.00000  Uiso   1.00
H170   H     0.11171   0.82286   0.19296   0.00000  Uiso   1.00
H171   H     0.38999   0.67725   0.19339   0.00000  Uiso   1.00
H172   H     0.38829   0.82286   0.14037   0.00000  Uiso   1.00
H173   H     0.11000   0.67725   0.13995   0.00000  Uiso   1.00
H174   H     0.30715   0.65174   0.23104   0.00000  Uiso   1.00
N175   N     0.25000   0.62935   0.16667   0.00000  Uiso   1.00
N176   N     0.25000   0.87066   0.16667   0.00000  Uiso   1.00
O177   O     0.18573   0.79072   0.16667   0.00000  Uiso   1.00
O178   O     0.17940   0.87369   0.12363   0.00000  Uiso   1.00
O179   O     0.21117   0.62633   0.08826   0.00000  Uiso   1.00
O180   O     0.32060   0.87369   0.20971   0.00000  Uiso   1.00
O181   O     0.27460   0.53239   0.25345   0.00000  Uiso   1.00
O182   O     0.17191   0.96762   0.13939   0.00000  Uiso   1.00
O183   O     0.22540   0.53239   0.07988   0.00000  Uiso   1.00
O184   O     0.32809   0.96762   0.19395   0.00000  Uiso   1.00
O185   O     0.31427   0.70929   0.16666   0.00000  Uiso   1.00
O186   O     0.31427   0.79072   0.16666   0.00000  Uiso   1.00
O187   O     0.18573   0.70929   0.16667   0.00000  Uiso   1.00
O188   O     0.25000   0.79071   0.09613   0.00000  Uiso   1.00
O189   O     0.25000   0.70929   0.23720   0.00000  Uiso   1.00
O190   O     0.25000   0.79071   0.23720   0.00000  Uiso   1.00
O191   O     0.25000   0.70929   0.09613   0.00000  Uiso   1.00
O192   O     0.28883   0.62633   0.24507   0.00000  Uiso   1.00
C193   C     0.66504   0.75000   0.16654   0.00000  Uiso   1.00
C194   C     0.78815   0.94619   0.18142   0.00000  Uiso   1.00
C195   C     0.74991   0.75000   0.07360   0.00000  Uiso   1.00
C196   C     0.75009   0.75000   0.25973   0.00000  Uiso   1.00
C197   C     0.75000   0.52724   0.16667   0.00000  Uiso   1.00
C198   C     0.75000   0.97276   0.16667   0.00000  Uiso   1.00
C199   C     0.74997   0.74999   0.02186   0.00000  Uiso   1.00
C200   C     0.75003   0.74999   0.31147   0.00000  Uiso   1.00
C201   C     0.54812   0.79090   0.18152   0.00000  Uiso   1.00
C202   C     0.95286   0.70924   0.18176   0.00000  Uiso   1.00
C203   C     0.95188   0.79090   0.15181   0.00000  Uiso   1.00
C204   C     0.83496   0.75000   0.16679   0.00000  Uiso   1.00
C205   C     0.54714   0.70924   0.15157   0.00000  Uiso   1.00
C206   C     0.59403   0.79100   0.18113   0.00000  Uiso   1.00
C207   C     0.90692   0.70912   0.18150   0.00000  Uiso   1.00
C208   C     0.90597   0.79100   0.15220   0.00000  Uiso   1.00
C209   C     0.59308   0.70912   0.15183   0.00000  Uiso   1.00
C210   C     0.61677   0.75004   0.16649   0.00000  Uiso   1.00
C211   C     0.88323   0.75004   0.16685   0.00000  Uiso   1.00
C212   C     0.52429   0.75007   0.16661   0.00000  Uiso   1.00
C213   C     0.97571   0.75007   0.16673   0.00000  Uiso   1.00
C214   C     0.76729   0.60397   0.20631   0.00000  Uiso   1.00
C215   C     0.71431   0.89603   0.14752   0.00000  Uiso   1.00
C216   C     0.73271   0.60397   0.12703   0.00000  Uiso   1.00
C217   C     0.78569   0.89603   0.18581   0.00000  Uiso   1.00
C218   C     0.76331   0.55382   0.20906   0.00000  Uiso   1.00
C219   C     0.71185   0.94619   0.15191   0.00000  Uiso   1.00
C220   C     0.73669   0.55382   0.12428   0.00000  Uiso   1.00
Cu221  Cu    0.75000   0.79822   0.16667   0.00000  Uiso   1.00
Cu222  Cu    0.75000   0.70179   0.16667   0.00000  Uiso   1.00
H223   H     0.53131   0.82256   0.19409   0.00000  Uiso   1.00
H224   H     0.69199   0.84825   0.10327   0.00000  Uiso   1.00
H225   H     0.69285   0.65174   0.10229   0.00000  Uiso   1.00
H226   H     0.80801   0.84825   0.23007   0.00000  Uiso   1.00
H227   H     0.76049   0.50054   0.25480   0.00000  Uiso   1.00
H228   H     0.67072   0.99948   0.15505   0.00000  Uiso   1.00
H229   H     0.73951   0.50054   0.07854   0.00000  Uiso   1.00
H230   H     0.82928   0.99948   0.17829   0.00000  Uiso   1.00
H231   H     0.97048   0.67759   0.19428   0.00000  Uiso   1.00
H232   H     0.96869   0.82256   0.13925   0.00000  Uiso   1.00
H233   H     0.52952   0.67759   0.13906   0.00000  Uiso   1.00
H234   H     0.61171   0.82286   0.19296   0.00000  Uiso   1.00
H235   H     0.88999   0.67725   0.19339   0.00000  Uiso   1.00
H236   H     0.88829   0.82286   0.14037   0.00000  Uiso   1.00
H237   H     0.61000   0.67725   0.13995   0.00000  Uiso   1.00
H238   H     0.80715   0.65174   0.23104   0.00000  Uiso   1.00
N239   N     0.75000   0.62935   0.16667   0.00000  Uiso   1.00
N240   N     0.75000   0.87066   0.16667   0.00000  Uiso   1.00
O241   O     0.68573   0.79072   0.16667   0.00000  Uiso   1.00
O242   O     0.67940   0.87369   0.12363   0.00000  Uiso   1.00
O243   O     0.71117   0.62633   0.08826   0.00000  Uiso   1.00
O244   O     0.82060   0.87369   0.20971   0.00000  Uiso   1.00
O245   O     0.77460   0.53239   0.25345   0.00000  Uiso   1.00
O246   O     0.67191   0.96762   0.13939   0.00000  Uiso   1.00
O247   O     0.72540   0.53239   0.07988   0.00000  Uiso   1.00
O248   O     0.82809   0.96762   0.19395   0.00000  Uiso   1.00
O249   O     0.81427   0.70929   0.16666   0.00000  Uiso   1.00
O250   O     0.81427   0.79072   0.16666   0.00000  Uiso   1.00
O251   O     0.68573   0.70929   0.16667   0.00000  Uiso   1.00
O252   O     0.75000   0.79071   0.09613   0.00000  Uiso   1.00
O253   O     0.75000   0.70929   0.23720   0.00000  Uiso   1.00
O254   O     0.75000   0.79071   0.23720   0.00000  Uiso   1.00
O255   O     0.75000   0.70929   0.09613   0.00000  Uiso   1.00
O256   O     0.78883   0.62633   0.24507   0.00000  Uiso   1.00
C257   C     0.16504   0.25000   0.49987   0.00000  Uiso   1.00
C258   C     0.28815   0.44619   0.51475   0.00000  Uiso   1.00
C259   C     0.24991   0.25000   0.40693   0.00000  Uiso   1.00
C260   C     0.25009   0.25000   0.59307   0.00000  Uiso   1.00
C261   C     0.25000   0.02724   0.50000   0.00000  Uiso   1.00
C262   C     0.25000   0.47276   0.50000   0.00000  Uiso   1.00
C263   C     0.24997   0.24999   0.35519   0.00000  Uiso   1.00
C264   C     0.25003   0.24999   0.64481   0.00000  Uiso   1.00
C265   C     0.04812   0.29090   0.51486   0.00000  Uiso   1.00
C266   C     0.45286   0.20924   0.51510   0.00000  Uiso   1.00
C267   C     0.45188   0.29090   0.48514   0.00000  Uiso   1.00
C268   C     0.33496   0.25000   0.50013   0.00000  Uiso   1.00
C269   C     0.04714   0.20924   0.48491   0.00000  Uiso   1.00
C270   C     0.09403   0.29100   0.51446   0.00000  Uiso   1.00
C271   C     0.40692   0.20912   0.51484   0.00000  Uiso   1.00
C272   C     0.40597   0.29100   0.48553   0.00000  Uiso   1.00
C273   C     0.09308   0.20912   0.48517   0.00000  Uiso   1.00
C274   C     0.11677   0.25004   0.49982   0.00000  Uiso   1.00
C275   C     0.38323   0.25004   0.50018   0.00000  Uiso   1.00
C276   C     0.02429   0.25007   0.49994   0.00000  Uiso   1.00
C277   C     0.47571   0.25007   0.50006   0.00000  Uiso   1.00
C278   C     0.26729   0.10397   0.53964   0.00000  Uiso   1.00
C279   C     0.21431   0.39603   0.48085   0.00000  Uiso   1.00
C280   C     0.23271   0.10397   0.46036   0.00000  Uiso   1.00
C281   C     0.28569   0.39603   0.51915   0.00000  Uiso   1.00
C282   C     0.26331   0.05382   0.54239   0.00000  Uiso   1.00
C283   C     0.21185   0.44619   0.48525   0.00000  Uiso   1.00
C284   C     0.23669   0.05382   0.45761   0.00000  Uiso   1.00
Cu285  Cu    0.25000   0.29822   0.50000   0.00000  Uiso   1.00
Cu286  Cu    0.25000   0.20179   0.50000   0.00000  Uiso   1.00
H287   H     0.03131   0.32256   0.52742   0.00000  Uiso   1.00
H288   H     0.19199   0.34825   0.43660   0.00000  Uiso   1.00
H289   H     0.19285   0.15174   0.43562   0.00000  Uiso   1.00
H290   H     0.30801   0.34825   0.56340   0.00000  Uiso   1.00
H291   H     0.26049   0.00054   0.58813   0.00000  Uiso   1.00
H292   H     0.17072   0.49948   0.48838   0.00000  Uiso   1.00
H293   H     0.23951   0.00054   0.41187   0.00000  Uiso   1.00
H294   H     0.32928   0.49948   0.51162   0.00000  Uiso   1.00
H295   H     0.47048   0.17759   0.52761   0.00000  Uiso   1.00
H296   H     0.46869   0.32256   0.47258   0.00000  Uiso   1.00
H297   H     0.02952   0.17759   0.47239   0.00000  Uiso   1.00
H298   H     0.11171   0.32286   0.52630   0.00000  Uiso   1.00
H299   H     0.38999   0.17725   0.52672   0.00000  Uiso   1.00
H300   H     0.38829   0.32286   0.47370   0.00000  Uiso   1.00
H301   H     0.11000   0.17725   0.47328   0.00000  Uiso   1.00
H302   H     0.30715   0.15174   0.56438   0.00000  Uiso   1.00
N303   N     0.25000   0.12935   0.50000   0.00000  Uiso   1.00
N304   N     0.25000   0.37066   0.50000   0.00000  Uiso   1.00
O305   O     0.18573   0.29072   0.50000   0.00000  Uiso   1.00
O306   O     0.17940   0.37369   0.45696   0.00000  Uiso   1.00
O307   O     0.21117   0.12633   0.42160   0.00000  Uiso   1.00
O308   O     0.32060   0.37369   0.54304   0.00000  Uiso   1.00
O309   O     0.27460   0.03239   0.58678   0.00000  Uiso   1.00
O310   O     0.17191   0.46762   0.47272   0.00000  Uiso   1.00
O311   O     0.22540   0.03239   0.41322   0.00000  Uiso   1.00
O312   O     0.32809   0.46762   0.52728   0.00000  Uiso   1.00
O313   O     0.31427   0.20929   0.50000   0.00000  Uiso   1.00
O314   O     0.31427   0.29072   0.50000   0.00000  Uiso   1.00
O315   O     0.18573   0.20929   0.50000   0.00000  Uiso   1.00
O316   O     0.25000   0.29071   0.42946   0.00000  Uiso   1.00
O317   O     0.25000   0.20929   0.57054   0.00000  Uiso   1.00
O318   O     0.25000   0.29071   0.57054   0.00000  Uiso   1.00
O319   O     0.25000   0.20929   0.42946   0.00000  Uiso   1.00
O320   O     0.28883   0.12633   0.57840   0.00000  Uiso   1.00
C321   C     0.66504   0.25000   0.49987   0.00000  Uiso   1.00
C322   C     0.78815   0.44619   0.51475   0.00000  Uiso   1.00
C323   C     0.74991   0.25000   0.40693   0.00000  Uiso   1.00
C324   C     0.75009   0.25000   0.59307   0.00000  Uiso   1.00
C325   C     0.75000   0.02724   0.50000   0.00000  Uiso   1.00
C326   C     0.75000   0.47276   0.50000   0.00000  Uiso   1.00
C327   C     0.74997   0.24999   0.35519   0.00000  Uiso   1.00
C328   C     0.75003   0.24999   0.64481   0.00000  Uiso   1.00
C329   C     0.54812   0.29090   0.51486   0.00000  Uiso   1.00
C330   C     0.95286   0.20924   0.51510   0.00000  Uiso   1.00
C331   C     0.95188   0.29090   0.48514   0.00000  Uiso   1.00
C332   C     0.83496   0.25000   0.50013   0.00000  Uiso   1.00
C333   C     0.54714   0.20924   0.48491   0.00000  Uiso   1.00
C334   C     0.59403   0.29100   0.51446   0.00000  Uiso   1.00
C335   C     0.90692   0.20912   0.51484   0.00000  Uiso   1.00
C336   C     0.90597   0.29100   0.48553   0.00000  Uiso   1.00
C337   C     0.59308   0.20912   0.48517   0.00000  Uiso   1.00
C338   C     0.61677   0.25004   0.49982   0.00000  Uiso   1.00
C339   C     0.88323   0.25004   0.50018   0.00000  Uiso   1.00
C340   C     0.52429   0.25007   0.49994   0.00000  Uiso   1.00
C341   C     0.97571   0.25007   0.50006   0.00000  Uiso   1.00
C342   C     0.76729   0.10397   0.53964   0.00000  Uiso   1.00
C343   C     0.71431   0.39603   0.48085   0.00000  Uiso   1.00
C344   C     0.73271   0.10397   0.46036   0.00000  Uiso   1.00
C345   C     0.78569   0.39603   0.51915   0.00000  Uiso   1.00
C346   C     0.76331   0.05382   0.54239   0.00000  Uiso   1.00
C347   C     0.71185   0.44619   0.48525   0.00000  Uiso   1.00
C348   C     0.73669   0.05382   0.45761   0.00000  Uiso   1.00
Cu349  Cu    0.75000   0.29822   0.50000   0.00000  Uiso   1.00
Cu350  Cu    0.75000   0.20179   0.50000   0.00000  Uiso   1.00
H351   H     0.53131   0.32256   0.52742   0.00000  Uiso   1.00
H352   H     0.69199   0.34825   0.43660   0.00000  Uiso   1.00
H353   H     0.69285   0.15174   0.43562   0.00000  Uiso   1.00
H354   H     0.80801   0.34825   0.56340   0.00000  Uiso   1.00
H355   H     0.76049   0.00054   0.58813   0.00000  Uiso   1.00
H356   H     0.67072   0.49948   0.48838   0.00000  Uiso   1.00
H357   H     0.73951   0.00054   0.41187   0.00000  Uiso   1.00
H358   H     0.82928   0.49948   0.51162   0.00000  Uiso   1.00
H359   H     0.97048   0.17759   0.52761   0.00000  Uiso   1.00
H360   H     0.96869   0.32256   0.47258   0.00000  Uiso   1.00
H361   H     0.52952   0.17759   0.47239   0.00000  Uiso   1.00
H362   H     0.61171   0.32286   0.52630   0.00000  Uiso   1.00
H363   H     0.88999   0.17725   0.52672   0.00000  Uiso   1.00
H364   H     0.88829   0.32286   0.47370   0.00000  Uiso   1.00
H365   H     0.61000   0.17725   0.47328   0.00000  Uiso   1.00
H366   H     0.80715   0.15174   0.56438   0.00000  Uiso   1.00
N367   N     0.75000   0.12935   0.50000   0.00000  Uiso   1.00
N368   N     0.75000   0.37066   0.50000   0.00000  Uiso   1.00
O369   O     0.68573   0.29072   0.50000   0.00000  Uiso   1.00
O370   O     0.67940   0.37369   0.45696   0.00000  Uiso   1.00
O371   O     0.71117   0.12633   0.42160   0.00000  Uiso   1.00
O372   O     0.82060   0.37369   0.54304   0.00000  Uiso   1.00
O373   O     0.77460   0.03239   0.58678   0.00000  Uiso   1.00
O374   O     0.67191   0.46762   0.47272   0.00000  Uiso   1.00
O375   O     0.72540   0.03239   0.41322   0.00000  Uiso   1.00
O376   O     0.82809   0.46762   0.52728   0.00000  Uiso   1.00
O377   O     0.81427   0.20929   0.50000   0.00000  Uiso   1.00
O378   O     0.81427   0.29072   0.50000   0.00000  Uiso   1.00
O379   O     0.68573   0.20929   0.50000   0.00000  Uiso   1.00
O380   O     0.75000   0.29071   0.42946   0.00000  Uiso   1.00
O381   O     0.75000   0.20929   0.57054   0.00000  Uiso   1.00
O382   O     0.75000   0.29071   0.57054   0.00000  Uiso   1.00
O383   O     0.75000   0.20929   0.42946   0.00000  Uiso   1.00
O384   O     0.78883   0.12633   0.57840   0.00000  Uiso   1.00
C385   C     0.16504   0.75000   0.49987   0.00000  Uiso   1.00
C386   C     0.28815   0.94619   0.51475   0.00000  Uiso   1.00
C387   C     0.24991   0.75000   0.40693   0.00000  Uiso   1.00
C388   C     0.25009   0.75000   0.59307   0.00000  Uiso   1.00
C389   C     0.25000   0.52724   0.50000   0.00000  Uiso   1.00
C390   C     0.25000   0.97276   0.50000   0.00000  Uiso   1.00
C391   C     0.24997   0.74999   0.35519   0.00000  Uiso   1.00
C392   C     0.25003   0.74999   0.64481   0.00000  Uiso   1.00
C393   C     0.04812   0.79090   0.51486   0.00000  Uiso   1.00
C394   C     0.45286   0.70924   0.51510   0.00000  Uiso   1.00
C395   C     0.45188   0.79090   0.48514   0.00000  Uiso   1.00
C396   C     0.33496   0.75000   0.50013   0.00000  Uiso   1.00
C397   C     0.04714   0.70924   0.48491   0.00000  Uiso   1.00
C398   C     0.09403   0.79100   0.51446   0.00000  Uiso   1.00
C399   C     0.40692   0.70912   0.51484   0.00000  Uiso   1.00
C400   C     0.40597   0.79100   0.48553   0.00000  Uiso   1.00
C401   C     0.09308   0.70912   0.48517   0.00000  Uiso   1.00
C402   C     0.11677   0.75004   0.49982   0.00000  Uiso   1.00
C403   C     0.38323   0.75004   0.50018   0.00000  Uiso   1.00
C404   C     0.02429   0.75007   0.49994   0.00000  Uiso   1.00
C405   C     0.47571   0.75007   0.50006   0.00000  Uiso   1.00
C406   C     0.26729   0.60397   0.53964   0.00000  Uiso   1.00
C407   C     0.21431   0.89603   0.48085   0.00000  Uiso   1.00
C408   C     0.23271   0.60397   0.46036   0.00000  Uiso   1.00
C409   C     0.28569   0.89603   0.51915   0.00000  Uiso   1.00
C410   C     0.26331   0.55382   0.54239   0.00000  Uiso   1.00
C411   C     0.21185   0.94619   0.48525   0.00000  Uiso   1.00
C412   C     0.23669   0.55382   0.45761   0.00000  Uiso   1.00
Cu413  Cu    0.25000   0.79822   0.50000   0.00000  Uiso   1.00
Cu414  Cu    0.25000   0.70179   0.50000   0.00000  Uiso   1.00
H415   H     0.03131   0.82256   0.52742   0.00000  Uiso   1.00
H416   H     0.19199   0.84825   0.43660   0.00000  Uiso   1.00
H417   H     0.19285   0.65174   0.43562   0.00000  Uiso   1.00
H418   H     0.30801   0.84825   0.56340   0.00000  Uiso   1.00
H419   H     0.26049   0.50054   0.58813   0.00000  Uiso   1.00
H420   H     0.17072   0.99948   0.48838   0.00000  Uiso   1.00
H421   H     0.23951   0.50054   0.41187   0.00000  Uiso   1.00
H422   H     0.32928   0.99948   0.51162   0.00000  Uiso   1.00
H423   H     0.47048   0.67759   0.52761   0.00000  Uiso   1.00
H424   H     0.46869   0.82256   0.47258   0.00000  Uiso   1.00
H425   H     0.02952   0.67759   0.47239   0.00000  Uiso   1.00
H426   H     0.11171   0.82286   0.52630   0.00000  Uiso   1.00
H427   H     0.38999   0.67725   0.52672   0.00000  Uiso   1.00
H428   H     0.38829   0.82286   0.47370   0.00000  Uiso   1.00
H429   H     0.11000   0.67725   0.47328   0.00000  Uiso   1.00
H430   H     0.30715   0.65174   0.56438   0.00000  Uiso   1.00
N431   N     0.25000   0.62935   0.50000   0.00000  Uiso   1.00
N432   N     0.25000   0.87066   0.50000   0.00000  Uiso   1.00
O433   O     0.18573   0.79072   0.50000   0.00000  Uiso   1.00
O434   O     0.17940   0.87369   0.45696   0.00000  Uiso   1.00
O435   O     0.21117   0.62633   0.42160   0.00000  Uiso   1.00
O436   O     0.32060   0.87369   0.54304   0.00000  Uiso   1.00
O437   O     0.27460   0.53239   0.58678   0.00000  Uiso   1.00
O438   O     0.17191   0.96762   0.47272   0.00000  Uiso   1.00
O439   O     0.22540   0.53239   0.41322   0.00000  Uiso   1.00
O440   O     0.32809   0.96762   0.52728   0.00000  Uiso   1.00
O441   O     0.31427   0.70929   0.50000   0.00000  Uiso   1.00
O442   O     0.31427   0.79072   0.50000   0.00000  Uiso   1.00
O443   O     0.18573   0.70929   0.50000   0.00000  Uiso   1.00
O444   O     0.25000   0.79071   0.42946   0.00000  Uiso   1.00
O445   O     0.25000   0.70929   0.57054   0.00000  Uiso   1.00
O446   O     0.25000   0.79071   0.57054   0.00000  Uiso   1.00
O447   O     0.25000   0.70929   0.42946   0.00000  Uiso   1.00
O448   O     0.28883   0.62633   0.57840   0.00000  Uiso   1.00
C449   C     0.66504   0.75000   0.49987   0.00000  Uiso   1.00
C450   C     0.78815   0.94619   0.51475   0.00000  Uiso   1.00
C451   C     0.74991   0.75000   0.40693   0.00000  Uiso   1.00
C452   C     0.75009   0.75000   0.59307   0.00000  Uiso   1.00
C453   C     0.75000   0.52724   0.50000   0.00000  Uiso   1.00
C454   C     0.75000   0.97276   0.50000   0.00000  Uiso   1.00
C455   C     0.74997   0.74999   0.35519   0.00000  Uiso   1.00
C456   C     0.75003   0.74999   0.64481   0.00000  Uiso   1.00
C457   C     0.54812   0.79090   0.51486   0.00000  Uiso   1.00
C458   C     0.95286   0.70924   0.51510   0.00000  Uiso   1.00
C459   C     0.95188   0.79090   0.48514   0.00000  Uiso   1.00
C460   C     0.83496   0.75000   0.50013   0.00000  Uiso   1.00
C461   C     0.54714   0.70924   0.48491   0.00000  Uiso   1.00
C462   C     0.59403   0.79100   0.51446   0.00000  Uiso   1.00
C463   C     0.90692   0.70912   0.51484   0.00000  Uiso   1.00
C464   C     0.90597   0.79100   0.48553   0.00000  Uiso   1.00
C465   C     0.59308   0.70912   0.48517   0.00000  Uiso   1.00
C466   C     0.61677   0.75004   0.49982   0.00000  Uiso   1.00
C467   C     0.88323   0.75004   0.50018   0.00000  Uiso   1.00
C468   C     0.52429   0.75007   0.49994   0.00000  Uiso   1.00
C469   C     0.97571   0.75007   0.50006   0.00000  Uiso   1.00
C470   C     0.76729   0.60397   0.53964   0.00000  Uiso   1.00
C471   C     0.71431   0.89603   0.48085   0.00000  Uiso   1.00
C472   C     0.73271   0.60397   0.46036   0.00000  Uiso   1.00
C473   C     0.78569   0.89603   0.51915   0.00000  Uiso   1.00
C474   C     0.76331   0.55382   0.54239   0.00000  Uiso   1.00
C475   C     0.71185   0.94619   0.48525   0.00000  Uiso   1.00
C476   C     0.73669   0.55382   0.45761   0.00000  Uiso   1.00
Cu477  Cu    0.75000   0.79822   0.50000   0.00000  Uiso   1.00
Cu478  Cu    0.75000   0.70179   0.50000   0.00000  Uiso   1.00
H479   H     0.53131   0.82256   0.52742   0.00000  Uiso   1.00
H480   H     0.69199   0.84825   0.43660   0.00000  Uiso   1.00
H481   H     0.69285   0.65174   0.43562   0.00000  Uiso   1.00
H482   H     0.80801   0.84825   0.56340   0.00000  Uiso   1.00
H483   H     0.76049   0.50054   0.58813   0.00000  Uiso   1.00
H484   H     0.67072   0.99948   0.48838   0.00000  Uiso   1.00
H485   H     0.73951   0.50054   0.41187   0.00000  Uiso   1.00
H486   H     0.82928   0.99948   0.51162   0.00000  Uiso   1.00
H487   H     0.97048   0.67759   0.52761   0.00000  Uiso   1.00
H488   H     0.96869   0.82256   0.47258   0.00000  Uiso   1.00
H489   H     0.52952   0.67759   0.47239   0.00000  Uiso   1.00
H490   H     0.61171   0.82286   0.52630   0.00000  Uiso   1.00
H491   H     0.88999   0.67725   0.52672   0.00000  Uiso   1.00
H492   H     0.88829   0.82286   0.47370   0.00000  Uiso   1.00
H493   H     0.61000   0.67725   0.47328   0.00000  Uiso   1.00
H494   H     0.80715   0.65174   0.56438   0.00000  Uiso   1.00
N495   N     0.75000   0.62935   0.50000   0.00000  Uiso   1.00
N496   N     0.75000   0.87066   0.50000   0.00000  Uiso   1.00
O497   O     0.68573   0.79072   0.50000   0.00000  Uiso   1.00
O498   O     0.67940   0.87369   0.45696   0.00000  Uiso   1.00
O499   O     0.71117   0.62633   0.42160   0.00000  Uiso   1.00
O500   O     0.82060   0.87369   0.54304   0.00000  Uiso   1.00
O501   O     0.77460   0.53239   0.58678   0.00000  Uiso   1.00
O502   O     0.67191   0.96762   0.47272   0.00000  Uiso   1.00
O503   O     0.72540   0.53239   0.41322   0.00000  Uiso   1.00
O504   O     0.82809   0.96762   0.52728   0.00000  Uiso   1.00
O505   O     0.81427   0.70929   0.50000   0.00000  Uiso   1.00
O506   O     0.81427   0.79072   0.50000   0.00000  Uiso   1.00
O507   O     0.68573   0.70929   0.50000   0.00000  Uiso   1.00
O508   O     0.75000   0.79071   0.42946   0.00000  Uiso   1.00
O509   O     0.75000   0.70929   0.57054   0.00000  Uiso   1.00
O510   O     0.75000   0.79071   0.57054   0.00000  Uiso   1.00
O511   O     0.75000   0.70929   0.42946   0.00000  Uiso   1.00
O512   O     0.78883   0.62633   0.57840   0.00000  Uiso   1.00
C513   C     0.16504   0.25000   0.83321   0.00000  Uiso   1.00
C514   C     0.28815   0.44619   0.84809   0.00000  Uiso   1.00
C515   C     0.24991   0.25000   0.74027   0.00000  Uiso   1.00
C516   C     0.25009   0.25000   0.92640   0.00000  Uiso   1.00
C517   C     0.25000   0.02724   0.83333   0.00000  Uiso   1.00
C518   C     0.25000   0.47276   0.83333   0.00000  Uiso   1.00
C519   C     0.24997   0.24999   0.68853   0.00000  Uiso   1.00
C520   C     0.25003   0.24999   0.97814   0.00000  Uiso   1.00
C521   C     0.04812   0.29090   0.84819   0.00000  Uiso   1.00
C522   C     0.45286   0.20924   0.84843   0.00000  Uiso   1.00
C523   C     0.45188   0.29090   0.81848   0.00000  Uiso   1.00
C524   C     0.33496   0.25000   0.83346   0.00000  Uiso   1.00
C525   C     0.04714   0.20924   0.81824   0.00000  Uiso   1.00
C526   C     0.09403   0.29100   0.84780   0.00000  Uiso   1.00
C527   C     0.40692   0.20912   0.84817   0.00000  Uiso   1.00
C528   C     0.40597   0.29100   0.81887   0.00000  Uiso   1.00
C529   C     0.09308   0.20912   0.81850   0.00000  Uiso   1.00
C530   C     0.11677   0.25004   0.83316   0.00000  Uiso   1.00
C531   C     0.38323   0.25004   0.83351   0.00000  Uiso   1.00
C532   C     0.02429   0.25007   0.83327   0.00000  Uiso   1.00
C533   C     0.47571   0.25007   0.83340   0.00000  Uiso   1.00
C534   C     0.26729   0.10397   0.87297   0.00000  Uiso   1.00
C535   C     0.21431   0.39603   0.81419   0.00000  Uiso   1.00
C536   C     0.23271   0.10397   0.79369   0.00000  Uiso   1.00
C537   C     0.28569   0.39603   0.85248   0.00000  Uiso   1.00
C538   C     0.26331   0.05382   0.87572   0.00000  Uiso   1.00
C539   C     0.21185   0.44619   0.81858   0.00000  Uiso   1.00
C540   C     0.23669   0.05382   0.79094   0.00000  Uiso   1.00
Cu541  Cu    0.25000   0.29822   0.83333   0.00000  Uiso   1.00
Cu542  Cu    0.25000   0.20179   0.83333   0.00000  Uiso   1.00
H543   H     0.03131   0.32256   0.86075   0.00000  Uiso   1.00
H544   H     0.19199   0.34825   0.76993   0.00000  Uiso   1.00
H545   H     0.19285   0.15174   0.76896   0.00000  Uiso   1.00
H546   H     0.30801   0.34825   0.89673   0.00000  Uiso   1.00
H547   H     0.26049   0.00054   0.92146   0.00000  Uiso   1.00
H548   H     0.17072   0.49948   0.82171   0.00000  Uiso   1.00
H549   H     0.23951   0.00054   0.74520   0.00000  Uiso   1.00
H550   H     0.32928   0.49948   0.84495   0.00000  Uiso   1.00
H551   H     0.47048   0.17759   0.86095   0.00000  Uiso   1.00
H552   H     0.46869   0.32256   0.80591   0.00000  Uiso   1.00
H553   H     0.02952   0.17759   0.80573   0.00000  Uiso   1.00
H554   H     0.11171   0.32286   0.85963   0.00000  Uiso   1.00
H555   H     0.38999   0.17725   0.86005   0.00000  Uiso   1.00
H556   H     0.38829   0.32286   0.80703   0.00000  Uiso   1.00
H557   H     0.11000   0.17725   0.80662   0.00000  Uiso   1.00
H558   H     0.30715   0.15174   0.89771   0.00000  Uiso   1.00
N559   N     0.25000   0.12935   0.83333   0.00000  Uiso   1.00
N560   N     0.25000   0.37066   0.83333   0.00000  Uiso   1.00
O561   O     0.18573   0.29072   0.83334   0.00000  Uiso   1.00
O562   O     0.17940   0.37369   0.79029   0.00000  Uiso   1.00
O563   O     0.21117   0.12633   0.75493   0.00000  Uiso   1.00
O564   O     0.32060   0.37369   0.87637   0.00000  Uiso   1.00
O565   O     0.27460   0.03239   0.92012   0.00000  Uiso   1.00
O566   O     0.17191   0.46762   0.80605   0.00000  Uiso   1.00
O567   O     0.22540   0.03239   0.74655   0.00000  Uiso   1.00
O568   O     0.32809   0.46762   0.86061   0.00000  Uiso   1.00
O569   O     0.31427   0.20929   0.83333   0.00000  Uiso   1.00
O570   O     0.31427   0.29072   0.83333   0.00000  Uiso   1.00
O571   O     0.18573   0.20929   0.83334   0.00000  Uiso   1.00
O572   O     0.25000   0.29071   0.76280   0.00000  Uiso   1.00
O573   O     0.25000   0.20929   0.90387   0.00000  Uiso   1.00
O574   O     0.25000   0.29071   0.90387   0.00000  Uiso   1.00
O575   O     0.25000   0.20929   0.76280   0.00000  Uiso   1.00
O576   O     0.28883   0.12633   0.91174   0.00000  Uiso   1.00
C577   C     0.66504   0.25000   0.83321   0.00000  Uiso   1.00
C578   C     0.78815   0.44619   0.84809   0.00000  Uiso   1.00
C579   C     0.74991   0.25000   0.74027   0.00000  Uiso   1.00
C580   C     0.75009   0.25000   0.92640   0.00000  Uiso   1.00
C581   C     0.75000   0.02724   0.83333   0.00000  Uiso   1.00
C582   C     0.75000   0.47276   0.83333   0.00000  Uiso   1.00
C583   C     0.74997   0.24999   0.68853   0.00000  Uiso   1.00
C584   C     0.75003   0.24999   0.97814   0.00000  Uiso   1.00
C585   C     0.54812   0.29090   0.84819   0.00000  Uiso   1.00
C586   C     0.95286   0.20924   0.84843   0.00000  Uiso   1.00
C587   C     0.95188   0.29090   0.81848   0.00000  Uiso   1.00
C588   C     0.83496   0.25000   0.83346   0.00000  Uiso   1.00
C589   C     0.54714   0.20924   0.81824   0.00000  Uiso   1.00
C590   C     0.59403   0.29100   0.84780   0.00000  Uiso   1.00
C591   C     0.90692   0.20912   0.84817   0.00000  Uiso   1.00
C592   C     0.90597   0.29100   0.81887   0.00000  Uiso   1.00
C593   C     0.59308   0.20912   0.81850   0.00000  Uiso   1.00
C594   C     0.61677   0.25004   0.83316   0.00000  Uiso   1.00
C595   C     0.88323   0.25004   0.83351   0.00000  Uiso   1.00
C596   C     0.52429   0.25007   0.83327   0.00000  Uiso   1.00
C597   C     0.97571   0.25007   0.83340   0.00000  Uiso   1.00
C598   C     0.76729   0.10397   0.87297   0.00000  Uiso   1.00
C599   C     0.71431   0.39603   0.81419   0.00000  Uiso   1.00
C600   C     0.73271   0.10397   0.79369   0.00000  Uiso   1.00
C601   C     0.78569   0.39603   0.85248   0.00000  Uiso   1.00
C602   C     0.76331   0.05382   0.87572   0.00000  Uiso   1.00
C603   C     0.71185   0.44619   0.81858   0.00000  Uiso   1.00
C604   C     0.73669   0.05382   0.79094   0.00000  Uiso   1.00
Cu605  Cu    0.75000   0.29822   0.83333   0.00000  Uiso   1.00
Cu606  Cu    0.75000   0.20179   0.83333   0.00000  Uiso   1.00
H607   H     0.53131   0.32256   0.86075   0.00000  Uiso   1.00
H608   H     0.69199   0.34825   0.76993   0.00000  Uiso   1.00
H609   H     0.69285   0.15174   0.76896   0.00000  Uiso   1.00
H610   H     0.80801   0.34825   0.89673   0.00000  Uiso   1.00
H611   H     0.76049   0.00054   0.92146   0.00000  Uiso   1.00
H612   H     0.67072   0.49948   0.82171   0.00000  Uiso   1.00
H613   H     0.73951   0.00054   0.74520   0.00000  Uiso   1.00
H614   H     0.82928   0.49948   0.84495   0.00000  Uiso   1.00
H615   H     0.97048   0.17759   0.86095   0.00000  Uiso   1.00
H616   H     0.96869   0.32256   0.80591   0.00000  Uiso   1.00
H617   H     0.52952   0.17759   0.80573   0.00000  Uiso   1.00
H618   H     0.61171   0.32286   0.85963   0.00000  Uiso   1.00
H619   H     0.88999   0.17725   0.86005   0.00000  Uiso   1.00
H620   H     0.88829   0.32286   0.80703   0.00000  Uiso   1.00
H621   H     0.61000   0.17725   0.80662   0.00000  Uiso   1.00
H622   H     0.80715   0.15174   0.89771   0.00000  Uiso   1.00
N623   N     0.75000   0.12935   0.83333   0.00000  Uiso   1.00
N624   N     0.75000   0.37066   0.83333   0.00000  Uiso   1.00
O625   O     0.68573   0.29072   0.83334   0.00000  Uiso   1.00
O626   O     0.67940   0.37369   0.79029   0.00000  Uiso   1.00
O627   O     0.71117   0.12633   0.75493   0.00000  Uiso   1.00
O628   O     0.82060   0.37369   0.87637   0.00000  Uiso   1.00
O629   O     0.77460   0.03239   0.92012   0.00000  Uiso   1.00
O630   O     0.67191   0.46762   0.80605   0.00000  Uiso   1.00
O631   O     0.72540   0.03239   0.74655   0.00000  Uiso   1.00
O632   O     0.82809   0.46762   0.86061   0.00000  Uiso   1.00
O633   O     0.81427   0.20929   0.83333   0.00000  Uiso   1.00
O634   O     0.81427   0.29072   0.83333   0.00000  Uiso   1.00
O635   O     0.68573   0.20929   0.83334   0.00000  Uiso   1.00
O636   O     0.75000   0.29071   0.76280   0.00000  Uiso   1.00
O637   O     0.75000   0.20929   0.90387   0.00000  Uiso   1.00
O638   O     0.75000   0.29071   0.90387   0.00000  Uiso   1.00
O639   O     0.75000   0.20929   0.76280   0.00000  Uiso   1.00
O640   O     0.78883   0.12633   0.91174   0.00000  Uiso   1.00
C641   C     0.16504   0.75000   0.83321   0.00000  Uiso   1.00
C642   C     0.28815   0.94619   0.84809   0.00000  Uiso   1.00
C643   C     0.24991   0.75000   0.74027   0.00000  Uiso   1.00
C644   C     0.25009   0.75000   0.92640   0.00000  Uiso   1.00
C645   C     0.25000   0.52724   0.83333   0.00000  Uiso   1.00
C646   C     0.25000   0.97276   0.83333   0.00000  Uiso   1.00
C647   C     0.24997   0.74999   0.68853   0.00000  Uiso   1.00
C648   C     0.25003   0.74999   0.97814   0.00000  Uiso   1.00
C649   C     0.04812   0.79090   0.84819   0.00000  Uiso   1.00
C650   C     0.45286   0.70924   0.84843   0.00000  Uiso   1.00
C651   C     0.45188   0.79090   0.81848   0.00000  Uiso   1.00
C652   C     0.33496   0.75000   0.83346   0.00000  Uiso   1.00
C653   C     0.04714   0.70924   0.81824   0.00000  Uiso   1.00
C654   C     0.09403   0.79100   0.84780   0.00000  Uiso   1.00
C655   C     0.40692   0.70912   0.84817   0.00000  Uiso   1.00
C656   C     0.40597   0.79100   0.81887   0.00000  Uiso   1.00
C657   C     0.09308   0.70912   0.81850   0.00000  Uiso   1.00
C658   C     0.11677   0.75004   0.83316   0.00000  Uiso   1.00
C659   C     0.38323   0.75004   0.83351   0.00000  Uiso   1.00
C660   C     0.02429   0.75007   0.83327   0.00000  Uiso   1.00
C661   C     0.47571   0.75007   0.83340   0.00000  Uiso   1.00
C662   C     0.26729   0.60397   0.87297   0.00000  Uiso   1.00
C663   C     0.21431   0.89603   0.81419   0.00000  Uiso   1.00
C664   C     0.23271   0.60397   0.79369   0.00000  Uiso   1.00
C665   C     0.28569   0.89603   0.85248   0.00000  Uiso   1.00
C666   C     0.26331   0.55382   0.87572   0.00000  Uiso   1.00
C667   C     0.21185   0.94619   0.81858   0.00000  Uiso   1.00
C668   C     0.23669   0.55382   0.79094   0.00000  Uiso   1.00
Cu669  Cu    0.25000   0.79822   0.83333   0.00000  Uiso   1.00
Cu670  Cu    0.25000   0.70179   0.83333   0.00000  Uiso   1.00
H671   H     0.03131   0.82256   0.86075   0.00000  Uiso   1.00
H672   H     0.19199   0.84825   0.76993   0.00000  Uiso   1.00
H673   H     0.19285   0.65174   0.76896   0.00000  Uiso   1.00
H674   H     0.30801   0.84825   0.89673   0.00000  Uiso   1.00
H675   H     0.26049   0.50054   0.92146   0.00000  Uiso   1.00
H676   H     0.17072   0.99948   0.82171   0.00000  Uiso   1.00
H677   H     0.23951   0.50054   0.74520   0.00000  Uiso   1.00
H678   H     0.32928   0.99948   0.84495   0.00000  Uiso   1.00
H679   H     0.47048   0.67759   0.86095   0.00000  Uiso   1.00
H680   H     0.46869   0.82256   0.80591   0.00000  Uiso   1.00
H681   H     0.02952   0.67759   0.80573   0.00000  Uiso   1.00
H682   H     0.11171   0.82286   0.85963   0.00000  Uiso   1.00
H683   H     0.38999   0.67725   0.86005   0.00000  Uiso   1.00
H684   H     0.38829   0.82286   0.80703   0.00000  Uiso   1.00
H685   H     0.11000   0.67725   0.80662   0.00000  Uiso   1.00
H686   H     0.30715   0.65174   0.89771   0.00000  Uiso   1.00
N687   N     0.25000   0.62935   0.83333   0.00000  Uiso   1.00
N688   N     0.25000   0.87066   0.83333   0.00000  Uiso   1.00
O689   O     0.18573   0.79072   0.83334   0.00000  Uiso   1.00
O690   O     0.17940   0.87369   0.79029   0.00000  Uiso   1.00
O691   O     0.21117   0.62633   0.75493   0.00000  Uiso   1.00
O692   O     0.32060   0.87369   0.87637   0.00000  Uiso   1.00
O693   O     0.27460   0.53239   0.92012   0.00000  Uiso   1.00
O694   O     0.17191   0.96762   0.80605   0.00000  Uiso   1.00
O695   O     0.22540   0.53239   0.74655   0.00000  Uiso   1.00
O696   O     0.32809   0.96762   0.86061   0.00000  Uiso   1.00
O697   O     0.31427   0.70929   0.83333   0.00000  Uiso   1.00
O698   O     0.31427   0.79072   0.83333   0.00000  Uiso   1.00
O699   O     0.18573   0.70929   0.83334   0.00000  Uiso   1.00
O700   O     0.25000   0.79071   0.76280   0.00000  Uiso   1.00
O701   O     0.25000   0.70929   0.90387   0.00000  Uiso   1.00
O702   O     0.25000   0.79071   0.90387   0.00000  Uiso   1.00
O703   O     0.25000   0.70929   0.76280   0.00000  Uiso   1.00
O704   O     0.28883   0.62633   0.91174   0.00000  Uiso   1.00
C705   C     0.66504   0.75000   0.83321   0.00000  Uiso   1.00
C706   C     0.78815   0.94619   0.84809   0.00000  Uiso   1.00
C707   C     0.74991   0.75000   0.74027   0.00000  Uiso   1.00
C708   C     0.75009   0.75000   0.92640   0.00000  Uiso   1.00
C709   C     0.75000   0.52724   0.83333   0.00000  Uiso   1.00
C710   C     0.75000   0.97276   0.83333   0.00000  Uiso   1.00
C711   C     0.74997   0.74999   0.68853   0.00000  Uiso   1.00
C712   C     0.75003   0.74999   0.97814   0.00000  Uiso   1.00
C713   C     0.54812   0.79090   0.84819   0.00000  Uiso   1.00
C714   C     0.95286   0.70924   0.84843   0.00000  Uiso   1.00
C715   C     0.95188   0.79090   0.81848   0.00000  Uiso   1.00
C716   C     0.83496   0.75000   0.83346   0.00000  Uiso   1.00
C717   C     0.54714   0.70924   0.81824   0.00000  Uiso   1.00
C718   C     0.59403   0.79100   0.84780   0.00000  Uiso   1.00
C719   C     0.90692   0.70912   0.84817   0.00000  Uiso   1.00
C720   C     0.90597   0.79100   0.81887   0.00000  Uiso   1.00
C721   C     0.59308   0.70912   0.81850   0.00000  Uiso   1.00
C722   C     0.61677   0.75004   0.83316   0.00000  Uiso   1.00
C723   C     0.88323   0.75004   0.83351   0.00000  Uiso   1.00
C724   C     0.52429   0.75007   0.83327   0.00000  Uiso   1.00
C725   C     0.97571   0.75007   0.83340   0.00000  Uiso   1.00
C726   C     0.76729   0.60397   0.87297   0.00000  Uiso   1.00
C727   C     0.71431   0.89603   0.81419   0.00000  Uiso   1.00
C728   C     0.73271   0.60397   0.79369   0.00000  Uiso   1.00
C729   C     0.78569   0.89603   0.85248   0.00000  Uiso   1.00
C730   C     0.76331   0.55382   0.87572   0.00000  Uiso   1.00
C731   C     0.71185   0.94619   0.81858   0.00000  Uiso   1.00
C732   C     0.73669   0.55382   0.79094   0.00000  Uiso   1.00
Cu733  Cu    0.75000   0.79822   0.83333   0.00000  Uiso   1.00
Cu734  Cu    0.75000   0.70179   0.83333   0.00000  Uiso   1.00
H735   H     0.53131   0.82256   0.86075   0.00000  Uiso   1.00
H736   H     0.69199   0.84825   0.76993   0.00000  Uiso   1.00
H737   H     0.69285   0.65174   0.76896   0.00000  Uiso   1.00
H738   H     0.80801   0.84825   0.89673   0.00000  Uiso   1.00
H739   H     0.76049   0.50054   0.92146   0.00000  Uiso   1.00
H740   H     0.67072   0.99948   0.82171   0.00000  Uiso   1.00
H741   H     0.73951   0.50054   0.74520   0.00000  Uiso   1.00
H742   H     0.82928   0.99948   0.84495   0.00000  Uiso   1.00
H743   H     0.97048   0.67759   0.86095   0.00000  Uiso   1.00
H744   H     0.96869   0.82256   0.80591   0.00000  Uiso   1.00
H745   H     0.52952   0.67759   0.80573   0.00000  Uiso   1.00
H746   H     0.61171   0.82286   0.85963   0.00000  Uiso   1.00
H747   H     0.88999   0.67725   0.86005   0.00000  Uiso   1.00
H748   H     0.88829   0.82286   0.80703   0.00000  Uiso   1.00
H749   H     0.61000   0.67725   0.80662   0.00000  Uiso   1.00
H750   H     0.80715   0.65174   0.89771   0.00000  Uiso   1.00
N751   N     0.75000   0.62935   0.83333   0.00000  Uiso   1.00
N752   N     0.75000   0.87066   0.83333   0.00000  Uiso   1.00
O753   O     0.68573   0.79072   0.83334   0.00000  Uiso   1.00
O754   O     0.67940   0.87369   0.79029   0.00000  Uiso   1.00
O755   O     0.71117   0.62633   0.75493   0.00000  Uiso   1.00
O756   O     0.82060   0.87369   0.87637   0.00000  Uiso   1.00
O757   O     0.77460   0.53239   0.92012   0.00000  Uiso   1.00
O758   O     0.67191   0.96762   0.80605   0.00000  Uiso   1.00
O759   O     0.72540   0.53239   0.74655   0.00000  Uiso   1.00
O760   O     0.82809   0.96762   0.86061   0.00000  Uiso   1.00
O761   O     0.81427   0.70929   0.83333   0.00000  Uiso   1.00
O762   O     0.81427   0.79072   0.83333   0.00000  Uiso   1.00
O763   O     0.68573   0.70929   0.83334   0.00000  Uiso   1.00
O764   O     0.75000   0.79071   0.76280   0.00000  Uiso   1.00
O765   O     0.75000   0.70929   0.90387   0.00000  Uiso   1.00
O766   O     0.75000   0.79071   0.90387   0.00000  Uiso   1.00
O767   O     0.75000   0.70929   0.76280   0.00000  Uiso   1.00
O768   O     0.78883   0.62633   0.91174   0.00000  Uiso   1.00
loop_
_geom_bond_atom_site_label_1
_geom_bond_atom_site_label_2
_geom_bond_distance
_geom_bond_site_symmetry_2
_ccdc_geom_bond_type
C1     C18     1.461   .     S
C1     O59     1.300   .     A
C1     O49     1.300   .     A
C2     C6      1.420   .     A
C2     C25     1.411   .     A
C2     O56     1.382   .     S
C3     O63     1.294   .     A
C3     O60     1.294   .     A
C3     C7      1.409   .     S
C4     C8      1.409   .     S
C4     O62     1.294   .     A
C4     O61     1.294   .     A
C5     C28     1.420   .     A
C5     C26     1.420   .     A
C5     C134    1.524   1_545 S
C6     C27     1.420   .     A
C6     C133    1.524   .     S
C7     C520    1.191   1_554 S
C8     C263    1.191   .     S
C9     C14     1.390   .     A
C9     C20     1.404   .     A
C9     H31     1.083   .     S
C10    C21     1.404   .     A
C10    C15     1.390   .     A
C10    H39     1.083   .     S
C11    C16     1.390   .     A
C11    H40     1.083   .     S
C11    C21     1.404   .     A
C12    O58     1.300   .     A
C12    O57     1.300   .     A
C12    C19     1.461   .     S
C13    C17     1.390   .     A
C13    H41     1.083   .     S
C13    C20     1.404   .     A
C14    C18     1.402   .     A
C14    H42     1.083   .     S
C15    H43     1.083   .     S
C15    C19     1.402   .     A
C16    C19     1.402   .     A
C16    H44     1.083   .     S
C17    C18     1.402   .     A
C17    H45     1.083   .     S
C20    C85     1.471   1_455 S
C21    C84     1.471   .     S
C22    N47     1.380   .     A
C22    O64     1.373   .     S
C22    C26     1.411   .     A
C23    C27     1.411   .     A
C23    O50     1.373   .     S
C23    N48     1.380   .     A
C24    O51     1.373   .     S
C24    N47     1.380   .     A
C24    C28     1.411   .     A
C25    N48     1.380   .     A
C25    O52     1.373   .     S
C26    O53     1.382   .     S
C27    O54     1.382   .     S
C28    O55     1.382   .     S
Cu29   Cu30    2.698   .     S
Cu29   O60     1.932   .     S
Cu29   O49     1.957   .     S
Cu29   O58     1.957   .     S
Cu29   N48     2.027   .     S
Cu29   O62     1.932   .     S
Cu30   O57     1.957   .     S
Cu30   N47     2.027   .     S
Cu30   O61     1.932   .     S
Cu30   O59     1.957   .     S
Cu30   O63     1.932   .     S
H32    O50     0.987   .     S
H33    O51     0.987   .     S
H34    O52     0.987   .     S
H35    O53     0.989   .     S
H36    O54     0.989   .     S
H37    O55     0.989   .     S
H38    O56     0.989   .     S
H46    O64     0.987   .     S
C65    C82     1.461   .     S
C65    O123    1.300   .     A
C65    O113    1.300   .     A
C66    C70     1.420   .     A
C66    C89     1.411   .     A
C66    O120    1.382   .     S
C67    O127    1.294   .     A
C67    O124    1.294   .     A
C67    C71     1.409   .     S
C68    C72     1.409   .     S
C68    O126    1.294   .     A
C68    O125    1.294   .     A
C69    C92     1.420   .     A
C69    C90     1.420   .     A
C69    C198    1.524   1_545 S
C70    C91     1.420   .     A
C70    C197    1.524   .     S
C71    C584    1.191   1_554 S
C72    C327    1.191   .     S
C73    C78     1.390   .     A
C73    C84     1.404   .     A
C73    H95     1.083   .     S
C74    C85     1.404   .     A
C74    C79     1.390   .     A
C74    H103    1.083   .     S
C75    C80     1.390   .     A
C75    H104    1.083   .     S
C75    C85     1.404   .     A
C76    O122    1.300   .     A
C76    O121    1.300   .     A
C76    C83     1.461   .     S
C77    C81     1.390   .     A
C77    H105    1.083   .     S
C77    C84     1.404   .     A
C78    C82     1.402   .     A
C78    H106    1.083   .     S
C79    H107    1.083   .     S
C79    C83     1.402   .     A
C80    C83     1.402   .     A
C80    H108    1.083   .     S
C81    C82     1.402   .     A
C81    H109    1.083   .     S
C85    C20     1.471   1_655 S
C86    N111    1.380   .     A
C86    O128    1.373   .     S
C86    C90     1.411   .     A
C87    C91     1.411   .     A
C87    O114    1.373   .     S
C87    N112    1.380   .     A
C88    O115    1.373   .     S
C88    N111    1.380   .     A
C88    C92     1.411   .     A
C89    N112    1.380   .     A
C89    O116    1.373   .     S
C90    O117    1.382   .     S
C91    O118    1.382   .     S
C92    O119    1.382   .     S
Cu93   Cu94    2.698   .     S
Cu93   O124    1.932   .     S
Cu93   O113    1.957   .     S
Cu93   O122    1.957   .     S
Cu93   N112    2.027   .     S
Cu93   O126    1.932   .     S
Cu94   O121    1.957   .     S
Cu94   N111    2.027   .     S
Cu94   O125    1.932   .     S
Cu94   O123    1.957   .     S
Cu94   O127    1.932   .     S
H96    O114    0.987   .     S
H97    O115    0.987   .     S
H98    O116    0.987   .     S
H99    O117    0.989   .     S
H100   O118    0.989   .     S
H101   O119    0.989   .     S
H102   O120    0.989   .     S
H110   O128    0.987   .     S
C129   C146    1.461   .     S
C129   O187    1.300   .     A
C129   O177    1.300   .     A
C130   C134    1.420   .     A
C130   C153    1.411   .     A
C130   O184    1.382   .     S
C131   O191    1.294   .     A
C131   O188    1.294   .     A
C131   C135    1.409   .     S
C132   C136    1.409   .     S
C132   O190    1.294   .     A
C132   O189    1.294   .     A
C133   C156    1.420   .     A
C133   C154    1.420   .     A
C134   C155    1.420   .     A
C134   C5      1.524   1_565 S
C135   C648    1.191   1_554 S
C136   C391    1.191   .     S
C137   C142    1.390   .     A
C137   C148    1.404   .     A
C137   H159    1.083   .     S
C138   C149    1.404   .     A
C138   C143    1.390   .     A
C138   H167    1.083   .     S
C139   C144    1.390   .     A
C139   H168    1.083   .     S
C139   C149    1.404   .     A
C140   O186    1.300   .     A
C140   O185    1.300   .     A
C140   C147    1.461   .     S
C141   C145    1.390   .     A
C141   H169    1.083   .     S
C141   C148    1.404   .     A
C142   C146    1.402   .     A
C142   H170    1.083   .     S
C143   H171    1.083   .     S
C143   C147    1.402   .     A
C144   C147    1.402   .     A
C144   H172    1.083   .     S
C145   C146    1.402   .     A
C145   H173    1.083   .     S
C148   C213    1.471   1_455 S
C149   C212    1.471   .     S
C150   N175    1.380   .     A
C150   O192    1.373   .     S
C150   C154    1.411   .     A
C151   C155    1.411   .     A
C151   O178    1.373   .     S
C151   N176    1.380   .     A
C152   O179    1.373   .     S
C152   N175    1.380   .     A
C152   C156    1.411   .     A
C153   N176    1.380   .     A
C153   O180    1.373   .     S
C154   O181    1.382   .     S
C155   O182    1.382   .     S
C156   O183    1.382   .     S
Cu157  Cu158   2.698   .     S
Cu157  O188    1.932   .     S
Cu157  O177    1.957   .     S
Cu157  O186    1.957   .     S
Cu157  N176    2.027   .     S
Cu157  O190    1.932   .     S
Cu158  O185    1.957   .     S
Cu158  N175    2.027   .     S
Cu158  O189    1.932   .     S
Cu158  O187    1.957   .     S
Cu158  O191    1.932   .     S
H160   O178    0.987   .     S
H161   O179    0.987   .     S
H162   O180    0.987   .     S
H163   O181    0.989   .     S
H164   O182    0.989   .     S
H165   O183    0.989   .     S
H166   O184    0.989   .     S
H174   O192    0.987   .     S
C193   C210    1.461   .     S
C193   O251    1.300   .     A
C193   O241    1.300   .     A
C194   C198    1.420   .     A
C194   C217    1.411   .     A
C194   O248    1.382   .     S
C195   O255    1.294   .     A
C195   O252    1.294   .     A
C195   C199    1.409   .     S
C196   C200    1.409   .     S
C196   O254    1.294   .     A
C196   O253    1.294   .     A
C197   C220    1.420   .     A
C197   C218    1.420   .     A
C198   C219    1.420   .     A
C198   C69     1.524   1_565 S
C199   C712    1.191   1_554 S
C200   C455    1.191   .     S
C201   C206    1.390   .     A
C201   C212    1.404   .     A
C201   H223    1.083   .     S
C202   C213    1.404   .     A
C202   C207    1.390   .     A
C202   H231    1.083   .     S
C203   C208    1.390   .     A
C203   H232    1.083   .     S
C203   C213    1.404   .     A
C204   O250    1.300   .     A
C204   O249    1.300   .     A
C204   C211    1.461   .     S
C205   C209    1.390   .     A
C205   H233    1.083   .     S
C205   C212    1.404   .     A
C206   C210    1.402   .     A
C206   H234    1.083   .     S
C207   H235    1.083   .     S
C207   C211    1.402   .     A
C208   C211    1.402   .     A
C208   H236    1.083   .     S
C209   C210    1.402   .     A
C209   H237    1.083   .     S
C213   C148    1.471   1_655 S
C214   N239    1.380   .     A
C214   O256    1.373   .     S
C214   C218    1.411   .     A
C215   C219    1.411   .     A
C215   O242    1.373   .     S
C215   N240    1.380   .     A
C216   O243    1.373   .     S
C216   N239    1.380   .     A
C216   C220    1.411   .     A
C217   N240    1.380   .     A
C217   O244    1.373   .     S
C218   O245    1.382   .     S
C219   O246    1.382   .     S
C220   O247    1.382   .     S
Cu221  Cu222   2.698   .     S
Cu221  O252    1.932   .     S
Cu221  O241    1.957   .     S
Cu221  O250    1.957   .     S
Cu221  N240    2.027   .     S
Cu221  O254    1.932   .     S
Cu222  O249    1.957   .     S
Cu222  N239    2.027   .     S
Cu222  O253    1.932   .     S
Cu222  O251    1.957   .     S
Cu222  O255    1.932   .     S
H224   O242    0.987   .     S
H225   O243    0.987   .     S
H226   O244    0.987   .     S
H227   O245    0.989   .     S
H228   O246    0.989   .     S
H229   O247    0.989   .     S
H230   O248    0.989   .     S
H238   O256    0.987   .     S
C257   C274    1.461   .     S
C257   O315    1.300   .     A
C257   O305    1.300   .     A
C258   C262    1.420   .     A
C258   C281    1.411   .     A
C258   O312    1.382   .     S
C259   O319    1.294   .     A
C259   O316    1.294   .     A
C259   C263    1.409   .     S
C260   C264    1.409   .     S
C260   O318    1.294   .     A
C260   O317    1.294   .     A
C261   C284    1.420   .     A
C261   C282    1.420   .     A
C261   C390    1.524   1_545 S
C262   C283    1.420   .     A
C262   C389    1.524   .     S
C264   C519    1.191   .     S
C265   C270    1.390   .     A
C265   C276    1.404   .     A
C265   H287    1.083   .     S
C266   C277    1.404   .     A
C266   C271    1.390   .     A
C266   H295    1.083   .     S
C267   C272    1.390   .     A
C267   H296    1.083   .     S
C267   C277    1.404   .     A
C268   O314    1.300   .     A
C268   O313    1.300   .     A
C268   C275    1.461   .     S
C269   C273    1.390   .     A
C269   H297    1.083   .     S
C269   C276    1.404   .     A
C270   C274    1.402   .     A
C270   H298    1.083   .     S
C271   H299    1.083   .     S
C271   C275    1.402   .     A
C272   C275    1.402   .     A
C272   H300    1.083   .     S
C273   C274    1.402   .     A
C273   H301    1.083   .     S
C276   C341    1.471   1_455 S
C277   C340    1.471   .     S
C278   N303    1.380   .     A
C278   O320    1.373   .     S
C278   C282    1.411   .     A
C279   C283    1.411   .     A
C279   O306    1.373   .     S
C279   N304    1.380   .     A
C280   O307    1.373   .     S
C280   N303    1.380   .     A
C280   C284    1.411   .     A
C281   N304    1.380   .     A
C281   O308    1.373   .     S
C282   O309    1.382   .     S
C283   O310    1.382   .     S
C284   O311    1.382   .     S
Cu285  Cu286   2.698   .     S
Cu285  O316    1.932   .     S
Cu285  O305    1.957   .     S
Cu285  O314    1.957   .     S
Cu285  N304    2.027   .     S
Cu285  O318    1.932   .     S
Cu286  O313    1.957   .     S
Cu286  N303    2.027   .     S
Cu286  O317    1.932   .     S
Cu286  O315    1.957   .     S
Cu286  O319    1.932   .     S
H288   O306    0.987   .     S
H289   O307    0.987   .     S
H290   O308    0.987   .     S
H291   O309    0.989   .     S
H292   O310    0.989   .     S
H293   O311    0.989   .     S
H294   O312    0.989   .     S
H302   O320    0.987   .     S
C321   C338    1.461   .     S
C321   O379    1.300   .     A
C321   O369    1.300   .     A
C322   C326    1.420   .     A
C322   C345    1.411   .     A
C322   O376    1.382   .     S
C323   O383    1.294   .     A
C323   O380    1.294   .     A
C323   C327    1.409   .     S
C324   C328    1.409   .     S
C324   O382    1.294   .     A
C324   O381    1.294   .     A
C325   C348    1.420   .     A
C325   C346    1.420   .     A
C325   C454    1.524   1_545 S
C326   C347    1.420   .     A
C326   C453    1.524   .     S
C328   C583    1.191   .     S
C329   C334    1.390   .     A
C329   C340    1.404   .     A
C329   H351    1.083   .     S
C330   C341    1.404   .     A
C330   C335    1.390   .     A
C330   H359    1.083   .     S
C331   C336    1.390   .     A
C331   H360    1.083   .     S
C331   C341    1.404   .     A
C332   O378    1.300   .     A
C332   O377    1.300   .     A
C332   C339    1.461   .     S
C333   C337    1.390   .     A
C333   H361    1.083   .     S
C333   C340    1.404   .     A
C334   C338    1.402   .     A
C334   H362    1.083   .     S
C335   H363    1.083   .     S
C335   C339    1.402   .     A
C336   C339    1.402   .     A
C336   H364    1.083   .     S
C337   C338    1.402   .     A
C337   H365    1.083   .     S
C341   C276    1.471   1_655 S
C342   N367    1.380   .     A
C342   O384    1.373   .     S
C342   C346    1.411   .     A
C343   C347    1.411   .     A
C343   O370    1.373   .     S
C343   N368    1.380   .     A
C344   O371    1.373   .     S
C344   N367    1.380   .     A
C344   C348    1.411   .     A
C345   N368    1.380   .     A
C345   O372    1.373   .     S
C346   O373    1.382   .     S
C347   O374    1.382   .     S
C348   O375    1.382   .     S
Cu349  Cu350   2.698   .     S
Cu349  O380    1.932   .     S
Cu349  O369    1.957   .     S
Cu349  O378    1.957   .     S
Cu349  N368    2.027   .     S
Cu349  O382    1.932   .     S
Cu350  O377    1.957   .     S
Cu350  N367    2.027   .     S
Cu350  O381    1.932   .     S
Cu350  O379    1.957   .     S
Cu350  O383    1.932   .     S
H352   O370    0.987   .     S
H353   O371    0.987   .     S
H354   O372    0.987   .     S
H355   O373    0.989   .     S
H356   O374    0.989   .     S
H357   O375    0.989   .     S
H358   O376    0.989   .     S
H366   O384    0.987   .     S
C385   C402    1.461   .     S
C385   O443    1.300   .     A
C385   O433    1.300   .     A
C386   C390    1.420   .     A
C386   C409    1.411   .     A
C386   O440    1.382   .     S
C387   O447    1.294   .     A
C387   O444    1.294   .     A
C387   C391    1.409   .     S
C388   C392    1.409   .     S
C388   O446    1.294   .     A
C388   O445    1.294   .     A
C389   C412    1.420   .     A
C389   C410    1.420   .     A
C390   C411    1.420   .     A
C390   C261    1.524   1_565 S
C392   C647    1.191   .     S
C393   C398    1.390   .     A
C393   C404    1.404   .     A
C393   H415    1.083   .     S
C394   C405    1.404   .     A
C394   C399    1.390   .     A
C394   H423    1.083   .     S
C395   C400    1.390   .     A
C395   H424    1.083   .     S
C395   C405    1.404   .     A
C396   O442    1.300   .     A
C396   O441    1.300   .     A
C396   C403    1.461   .     S
C397   C401    1.390   .     A
C397   H425    1.083   .     S
C397   C404    1.404   .     A
C398   C402    1.402   .     A
C398   H426    1.083   .     S
C399   H427    1.083   .     S
C399   C403    1.402   .     A
C400   C403    1.402   .     A
C400   H428    1.083   .     S
C401   C402    1.402   .     A
C401   H429    1.083   .     S
C404   C469    1.471   1_455 S
C405   C468    1.471   .     S
C406   N431    1.380   .     A
C406   O448    1.373   .     S
C406   C410    1.411   .     A
C407   C411    1.411   .     A
C407   O434    1.373   .     S
C407   N432    1.380   .     A
C408   O435    1.373   .     S
C408   N431    1.380   .     A
C408   C412    1.411   .     A
C409   N432    1.380   .     A
C409   O436    1.373   .     S
C410   O437    1.382   .     S
C411   O438    1.382   .     S
C412   O439    1.382   .     S
Cu413  Cu414   2.698   .     S
Cu413  O444    1.932   .     S
Cu413  O433    1.957   .     S
Cu413  O442    1.957   .     S
Cu413  N432    2.027   .     S
Cu413  O446    1.932   .     S
Cu414  O441    1.957   .     S
Cu414  N431    2.027   .     S
Cu414  O445    1.932   .     S
Cu414  O443    1.957   .     S
Cu414  O447    1.932   .     S
H416   O434    0.987   .     S
H417   O435    0.987   .     S
H418   O436    0.987   .     S
H419   O437    0.989   .     S
H420   O438    0.989   .     S
H421   O439    0.989   .     S
H422   O440    0.989   .     S
H430   O448    0.987   .     S
C449   C466    1.461   .     S
C449   O507    1.300   .     A
C449   O497    1.300   .     A
C450   C454    1.420   .     A
C450   C473    1.411   .     A
C450   O504    1.382   .     S
C451   O511    1.294   .     A
C451   O508    1.294   .     A
C451   C455    1.409   .     S
C452   C456    1.409   .     S
C452   O510    1.294   .     A
C452   O509    1.294   .     A
C453   C476    1.420   .     A
C453   C474    1.420   .     A
C454   C475    1.420   .     A
C454   C325    1.524   1_565 S
C456   C711    1.191   .     S
C457   C462    1.390   .     A
C457   C468    1.404   .     A
C457   H479    1.083   .     S
C458   C469    1.404   .     A
C458   C463    1.390   .     A
C458   H487    1.083   .     S
C459   C464    1.390   .     A
C459   H488    1.083   .     S
C459   C469    1.404   .     A
C460   O506    1.300   .     A
C460   O505    1.300   .     A
C460   C467    1.461   .     S
C461   C465    1.390   .     A
C461   H489    1.083   .     S
C461   C468    1.404   .     A
C462   C466    1.402   .     A
C462   H490    1.083   .     S
C463   H491    1.083   .     S
C463   C467    1.402   .     A
C464   C467    1.402   .     A
C464   H492    1.083   .     S
C465   C466    1.402   .     A
C465   H493    1.083   .     S
C469   C404    1.471   1_655 S
C470   N495    1.380   .     A
C470   O512    1.373   .     S
C470   C474    1.411   .     A
C471   C475    1.411   .     A
C471   O498    1.373   .     S
C471   N496    1.380   .     A
C472   O499    1.373   .     S
C472   N495    1.380   .     A
C472   C476    1.411   .     A
C473   N496    1.380   .     A
C473   O500    1.373   .     S
C474   O501    1.382   .     S
C475   O502    1.382   .     S
C476   O503    1.382   .     S
Cu477  Cu478   2.698   .     S
Cu477  O508    1.932   .     S
Cu477  O497    1.957   .     S
Cu477  O506    1.957   .     S
Cu477  N496    2.027   .     S
Cu477  O510    1.932   .     S
Cu478  O505    1.957   .     S
Cu478  N495    2.027   .     S
Cu478  O509    1.932   .     S
Cu478  O507    1.957   .     S
Cu478  O511    1.932   .     S
H480   O498    0.987   .     S
H481   O499    0.987   .     S
H482   O500    0.987   .     S
H483   O501    0.989   .     S
H484   O502    0.989   .     S
H485   O503    0.989   .     S
H486   O504    0.989   .     S
H494   O512    0.987   .     S
C513   C530    1.461   .     S
C513   O571    1.300   .     A
C513   O561    1.300   .     A
C514   C518    1.420   .     A
C514   C537    1.411   .     A
C514   O568    1.382   .     S
C515   O575    1.294   .     A
C515   O572    1.294   .     A
C515   C519    1.409   .     S
C516   C520    1.409   .     S
C516   O574    1.294   .     A
C516   O573    1.294   .     A
C517   C540    1.420   .     A
C517   C538    1.420   .     A
C517   C646    1.524   1_545 S
C518   C539    1.420   .     A
C518   C645    1.524   .     S
C520   C7      1.191   1_556 S
C521   C526    1.390   .     A
C521   C532    1.404   .     A
C521   H543    1.083   .     S
C522   C533    1.404   .     A
C522   C527    1.390   .     A
C522   H551    1.083   .     S
C523   C528    1.390   .     A
C523   H552    1.083   .     S
C523   C533    1.404   .     A
C524   O570    1.300   .     A
C524   O569    1.300   .     A
C524   C531    1.461   .     S
C525   C529    1.390   .     A
C525   H553    1.083   .     S
C525   C532    1.404   .     A
C526   C530    1.402   .     A
C526   H554    1.083   .     S
C527   H555    1.083   .     S
C527   C531    1.402   .     A
C528   C531    1.402   .     A
C528   H556    1.083   .     S
C529   C530    1.402   .     A
C529   H557    1.083   .     S
C532   C597    1.471   1_455 S
C533   C596    1.471   .     S
C534   N559    1.380   .     A
C534   O576    1.373   .     S
C534   C538    1.411   .     A
C535   C539    1.411   .     A
C535   O562    1.373   .     S
C535   N560    1.380   .     A
C536   O563    1.373   .     S
C536   N559    1.380   .     A
C536   C540    1.411   .     A
C537   N560    1.380   .     A
C537   O564    1.373   .     S
C538   O565    1.382   .     S
C539   O566    1.382   .     S
C540   O567    1.382   .     S
Cu541  Cu542   2.698   .     S
Cu541  O572    1.932   .     S
Cu541  O561    1.957   .     S
Cu541  O570    1.957   .     S
Cu541  N560    2.027   .     S
Cu541  O574    1.932   .     S
Cu542  O569    1.957   .     S
Cu542  N559    2.027   .     S
Cu542  O573    1.932   .     S
Cu542  O571    1.957   .     S
Cu542  O575    1.932   .     S
H544   O562    0.987   .     S
H545   O563    0.987   .     S
H546   O564    0.987   .     S
H547   O565    0.989   .     S
H548   O566    0.989   .     S
H549   O567    0.989   .     S
H550   O568    0.989   .     S
H558   O576    0.987   .     S
C577   C594    1.461   .     S
C577   O635    1.300   .     A
C577   O625    1.300   .     A
C578   C582    1.420   .     A
C578   C601    1.411   .     A
C578   O632    1.382   .     S
C579   O639    1.294   .     A
C579   O636    1.294   .     A
C579   C583    1.409   .     S
C580   C584    1.409   .     S
C580   O638    1.294   .     A
C580   O637    1.294   .     A
C581   C604    1.420   .     A
C581   C602    1.420   .     A
C581   C710    1.524   1_545 S
C582   C603    1.420   .     A
C582   C709    1.524   .     S
C584   C71     1.191   1_556 S
C585   C590    1.390   .     A
C585   C596    1.404   .     A
C585   H607    1.083   .     S
C586   C597    1.404   .     A
C586   C591    1.390   .     A
C586   H615    1.083   .     S
C587   C592    1.390   .     A
C587   H616    1.083   .     S
C587   C597    1.404   .     A
C588   O634    1.300   .     A
C588   O633    1.300   .     A
C588   C595    1.461   .     S
C589   C593    1.390   .     A
C589   H617    1.083   .     S
C589   C596    1.404   .     A
C590   C594    1.402   .     A
C590   H618    1.083   .     S
C591   H619    1.083   .     S
C591   C595    1.402   .     A
C592   C595    1.402   .     A
C592   H620    1.083   .     S
C593   C594    1.402   .     A
C593   H621    1.083   .     S
C597   C532    1.471   1_655 S
C598   N623    1.380   .     A
C598   O640    1.373   .     S
C598   C602    1.411   .     A
C599   C603    1.411   .     A
C599   O626    1.373   .     S
C599   N624    1.380   .     A
C600   O627    1.373   .     S
C600   N623    1.380   .     A
C600   C604    1.411   .     A
C601   N624    1.380   .     A
C601   O628    1.373   .     S
C602   O629    1.382   .     S
C603   O630    1.382   .     S
C604   O631    1.382   .     S
Cu605  Cu606   2.698   .     S
Cu605  O636    1.932   .     S
Cu605  O625    1.957   .     S
Cu605  O634    1.957   .     S
Cu605  N624    2.027   .     S
Cu605  O638    1.932   .     S
Cu606  O633    1.957   .     S
Cu606  N623    2.027   .     S
Cu606  O637    1.932   .     S
Cu606  O635    1.957   .     S
Cu606  O639    1.932   .     S
H608   O626    0.987   .     S
H609   O627    0.987   .     S
H610   O628    0.987   .     S
H611   O629    0.989   .     S
H612   O630    0.989   .     S
H613   O631    0.989   .     S
H614   O632    0.989   .     S
H622   O640    0.987   .     S
C641   C658    1.461   .     S
C641   O699    1.300   .     A
C641   O689    1.300   .     A
C642   C646    1.420   .     A
C642   C665    1.411   .     A
C642   O696    1.382   .     S
C643   O703    1.294   .     A
C643   O700    1.294   .     A
C643   C647    1.409   .     S
C644   C648    1.409   .     S
C644   O702    1.294   .     A
C644   O701    1.294   .     A
C645   C668    1.420   .     A
C645   C666    1.420   .     A
C646   C667    1.420   .     A
C646   C517    1.524   1_565 S
C648   C135    1.191   1_556 S
C649   C654    1.390   .     A
C649   C660    1.404   .     A
C649   H671    1.083   .     S
C650   C661    1.404   .     A
C650   C655    1.390   .     A
C650   H679    1.083   .     S
C651   C656    1.390   .     A
C651   H680    1.083   .     S
C651   C661    1.404   .     A
C652   O698    1.300   .     A
C652   O697    1.300   .     A
C652   C659    1.461   .     S
C653   C657    1.390   .     A
C653   H681    1.083   .     S
C653   C660    1.404   .     A
C654   C658    1.402   .     A
C654   H682    1.083   .     S
C655   H683    1.083   .     S
C655   C659    1.402   .     A
C656   C659    1.402   .     A
C656   H684    1.083   .     S
C657   C658    1.402   .     A
C657   H685    1.083   .     S
C660   C725    1.471   1_455 S
C661   C724    1.471   .     S
C662   N687    1.380   .     A
C662   O704    1.373   .     S
C662   C666    1.411   .     A
C663   C667    1.411   .     A
C663   O690    1.373   .     S
C663   N688    1.380   .     A
C664   O691    1.373   .     S
C664   N687    1.380   .     A
C664   C668    1.411   .     A
C665   N688    1.380   .     A
C665   O692    1.373   .     S
C666   O693    1.382   .     S
C667   O694    1.382   .     S
C668   O695    1.382   .     S
Cu669  Cu670   2.698   .     S
Cu669  O700    1.932   .     S
Cu669  O689    1.957   .     S
Cu669  O698    1.957   .     S
Cu669  N688    2.027   .     S
Cu669  O702    1.932   .     S
Cu670  O697    1.957   .     S
Cu670  N687    2.027   .     S
Cu670  O701    1.932   .     S
Cu670  O699    1.957   .     S
Cu670  O703    1.932   .     S
H672   O690    0.987   .     S
H673   O691    0.987   .     S
H674   O692    0.987   .     S
H675   O693    0.989   .     S
H676   O694    0.989   .     S
H677   O695    0.989   .     S
H678   O696    0.989   .     S
H686   O704    0.987   .     S
C705   C722    1.461   .     S
C705   O763    1.300   .     A
C705   O753    1.300   .     A
C706   C710    1.420   .     A
C706   C729    1.411   .     A
C706   O760    1.382   .     S
C707   O767    1.294   .     A
C707   O764    1.294   .     A
C707   C711    1.409   .     S
C708   C712    1.409   .     S
C708   O766    1.294   .     A
C708   O765    1.294   .     A
C709   C732    1.420   .     A
C709   C730    1.420   .     A
C710   C731    1.420   .     A
C710   C581    1.524   1_565 S
C712   C199    1.191   1_556 S
C713   C718    1.390   .     A
C713   C724    1.404   .     A
C713   H735    1.083   .     S
C714   C725    1.404   .     A
C714   C719    1.390   .     A
C714   H743    1.083   .     S
C715   C720    1.390   .     A
C715   H744    1.083   .     S
C715   C725    1.404   .     A
C716   O762    1.300   .     A
C716   O761    1.300   .     A
C716   C723    1.461   .     S
C717   C721    1.390   .     A
C717   H745    1.083   .     S
C717   C724    1.404   .     A
C718   C722    1.402   .     A
C718   H746    1.083   .     S
C719   H747    1.083   .     S
C719   C723    1.402   .     A
C720   C723    1.402   .     A
C720   H748    1.083   .     S
C721   C722    1.402   .     A
C721   H749    1.083   .     S
C725   C660    1.471   1_655 S
C726   N751    1.380   .     A
C726   O768    1.373   .     S
C726   C730    1.411   .     A
C727   C731    1.411   .     A
C727   O754    1.373   .     S
C727   N752    1.380   .     A
C728   O755    1.373   .     S
C728   N751    1.380   .     A
C728   C732    1.411   .     A
C729   N752    1.380   .     A
C729   O756    1.373   .     S
C730   O757    1.382   .     S
C731   O758    1.382   .     S
C732   O759    1.382   .     S
Cu733  Cu734   2.698   .     S
Cu733  O764    1.932   .     S
Cu733  O753    1.957   .     S
Cu733  O762    1.957   .     S
Cu733  N752    2.027   .     S
Cu733  O766    1.932   .     S
Cu734  O761    1.957   .     S
Cu734  N751    2.027   .     S
Cu734  O765    1.932   .     S
Cu734  O763    1.957   .     S
Cu734  O767    1.932   .     S
H736   O754    0.987   .     S
H737   O755    0.987   .     S
H738   O756    0.987   .     S
H739   O757    0.989   .     S
H740   O758    0.989   .     S
H741   O759    0.989   .     S
H742   O760    0.989   .     S
H750   O768    0.987   .     S
