data_str_m2_o1_o18_pcu_sym.175
_audit_creation_date              2020-01-03
_audit_creation_method            'Materials Studio'
_symmetry_space_group_name_H-M    'P1'
_symmetry_Int_Tables_number       1
_symmetry_cell_setting            triclinic
loop_
_symmetry_equiv_pos_as_xyz
  x,y,z
_cell_length_a                    28.7566
_cell_length_b                    32.2109
_cell_length_c                    30.7582
_cell_angle_alpha                 89.1921
_cell_angle_beta                  74.8130
_cell_angle_gamma                 91.5659
loop_
_atom_site_label
_atom_site_type_symbol
_atom_site_fract_x
_atom_site_fract_y
_atom_site_fract_z
_atom_site_U_iso_or_equiv
_atom_site_adp_type
_atom_site_occupancy
C1     C     0.33303   0.08755   0.24947   0.00000  Uiso   1.00
C2     C     0.00051   0.24583   0.24997   0.00000  Uiso   1.00
C3     C     0.18986   0.14187   0.04663   0.00000  Uiso   1.00
C4     C     0.14072   0.17470   0.45122   0.00000  Uiso   1.00
C5     C     0.23753   0.13500   0.02469   0.00000  Uiso   1.00
C6     C     0.09257   0.17983   0.47277   0.00000  Uiso   1.00
C7     C     0.30527   0.02082   0.28652   0.00000  Uiso   1.00
C8     C     0.02823   0.31266   0.21268   0.00000  Uiso   1.00
C9     C     0.30605   0.31100   0.28792   0.00000  Uiso   1.00
C10    C     0.02794   0.02254   0.21161   0.00000  Uiso   1.00
C11    C     0.00118   0.29048   0.25070   0.00000  Uiso   1.00
C12    C     0.33272   0.04297   0.24878   0.00000  Uiso   1.00
C13    C     0.18328   0.13573   0.27232   0.00000  Uiso   1.00
C14    C     0.15007   0.19753   0.22765   0.00000  Uiso   1.00
C15    C     0.13407   0.13640   0.27221   0.00000  Uiso   1.00
C16    C     0.19928   0.19689   0.22772   0.00000  Uiso   1.00
C17    C     0.30638   0.16518   0.33626   0.00000  Uiso   1.00
C18    C     0.02694   0.16700   0.16363   0.00000  Uiso   1.00
C19    C     0.29183   0.16021   0.38592   0.00000  Uiso   1.00
C20    C     0.04130   0.16804   0.11366   0.00000  Uiso   1.00
C21    C     0.30309   0.13575   0.45742   0.00000  Uiso   1.00
C22    C     0.02741   0.18119   0.04016   0.00000  Uiso   1.00
C23    C     0.32180   0.14328   0.41128   0.00000  Uiso   1.00
C24    C     0.00935   0.17715   0.08679   0.00000  Uiso   1.00
C25    C     0.24412   0.16912   0.40796   0.00000  Uiso   1.00
C26    C     0.08996   0.16163   0.09229   0.00000  Uiso   1.00
C27    C     0.22410   0.15919   0.45386   0.00000  Uiso   1.00
C28    C     0.10810   0.16410   0.04515   0.00000  Uiso   1.00
C29    C     0.25497   0.14350   0.47876   0.00000  Uiso   1.00
C30    C     0.07603   0.17506   0.01932   0.00000  Uiso   1.00
C31    C     0.17434   0.16419   0.47560   0.00000  Uiso   1.00
C32    C     0.15735   0.15696   0.02308   0.00000  Uiso   1.00
Cu33   Cu    0.04689   0.16667   0.25000   0.00000  Uiso   1.00
Cu34   Cu    0.28645   0.16666   0.25000   0.00000  Uiso   1.00
H35    H     0.11353   0.15586   0.11347   0.00000  Uiso   1.00
H36    H     0.22324   0.18411   0.38829   0.00000  Uiso   1.00
H37    H     0.32627   0.12286   0.47655   0.00000  Uiso   1.00
H38    H     0.00300   0.18931   0.02006   0.00000  Uiso   1.00
H39    H     0.17947   0.13349   0.08192   0.00000  Uiso   1.00
H40    H     0.14995   0.17800   0.41506   0.00000  Uiso   1.00
H41    H     0.28426   0.03718   0.31528   0.00000  Uiso   1.00
H42    H     0.04884   0.29636   0.18369   0.00000  Uiso   1.00
H43    H     0.10900   0.11264   0.29041   0.00000  Uiso   1.00
H44    H     0.22430   0.22072   0.20956   0.00000  Uiso   1.00
N45    N     0.11736   0.16668   0.24999   0.00000  Uiso   1.00
N46    N     0.21597   0.16666   0.25001   0.00000  Uiso   1.00
O47    O     0.03958   0.10655   0.25000   0.00000  Uiso   1.00
O48    O     0.29375   0.22678   0.25000   0.00000  Uiso   1.00
O49    O     0.29372   0.10654   0.25000   0.00000  Uiso   1.00
O50    O     0.03961   0.22679   0.24999   0.00000  Uiso   1.00
O51    O     0.01852   0.16668   0.31491   0.00000  Uiso   1.00
O52    O     0.31481   0.16666   0.18508   0.00000  Uiso   1.00
O53    O     0.27267   0.16667   0.31492   0.00000  Uiso   1.00
O54    O     0.06067   0.16667   0.18508   0.00000  Uiso   1.00
H55    H     0.26096   0.12278   0.04394   0.00000  Uiso   1.00
H56    H     0.06808   0.18787   0.45274   0.00000  Uiso   1.00
N57    N     0.29255   0.18295   0.10504   0.00000  Uiso   1.00
H58    H     0.27421   0.16129   0.12871   0.00000  Uiso   1.00
C59    C     0.27936   0.22553   0.11431   0.00000  Uiso   1.00
H60    H     0.29287   0.24535   0.08346   0.00000  Uiso   1.00
H61    H     0.29463   0.23754   0.14151   0.00000  Uiso   1.00
H62    H     0.23948   0.22722   0.12509   0.00000  Uiso   1.00
N63    N     0.03687   0.13218   0.39177   0.00000  Uiso   1.00
H64    H     0.05871   0.15404   0.37072   0.00000  Uiso   1.00
C65    C     0.04239   0.08990   0.37652   0.00000  Uiso   1.00
H66    H     0.02397   0.06779   0.40412   0.00000  Uiso   1.00
H67    H     0.08125   0.08277   0.36638   0.00000  Uiso   1.00
H68    H     0.02703   0.08565   0.34723   0.00000  Uiso   1.00
N69    N     0.27842   0.28843   0.32665   0.00000  Uiso   1.00
H70    H     0.24698   0.30257   0.34279   0.00000  Uiso   1.00
C71    C     0.30577   0.27614   0.35777   0.00000  Uiso   1.00
H72    H     0.31972   0.30405   0.37176   0.00000  Uiso   1.00
H73    H     0.00311   0.25691   0.34075   0.00000  Uiso   1.00
H74    H     0.28215   0.25743   0.38599   0.00000  Uiso   1.00
N75    N     0.05343   0.04532   0.17218   0.00000  Uiso   1.00
H76    H     0.04832   0.03305   0.14291   0.00000  Uiso   1.00
C77    C     0.10393   0.05367   0.16889   0.00000  Uiso   1.00
H78    H     0.12439   0.02481   0.16102   0.00000  Uiso   1.00
H79    H     0.10905   0.06641   0.20073   0.00000  Uiso   1.00
H80    H     0.11865   0.07684   0.14132   0.00000  Uiso   1.00
N81    N     0.19682   0.10292   0.29748   0.00000  Uiso   1.00
H82    H     0.22497   0.10816   0.31148   0.00000  Uiso   1.00
C83    C     0.19325   0.06143   0.28074   0.00000  Uiso   1.00
H84    H     0.20168   0.03835   0.30447   0.00000  Uiso   1.00
H85    H     0.21901   0.05846   0.24711   0.00000  Uiso   1.00
H86    H     0.15618   0.05404   0.27811   0.00000  Uiso   1.00
N87    N     0.13645   0.23052   0.20285   0.00000  Uiso   1.00
H88    H     0.10843   0.22529   0.18866   0.00000  Uiso   1.00
C89    C     0.13937   0.27166   0.22055   0.00000  Uiso   1.00
H90    H     0.13026   0.29493   0.19753   0.00000  Uiso   1.00
H91    H     0.17645   0.27936   0.22300   0.00000  Uiso   1.00
H92    H     0.11379   0.27384   0.25440   0.00000  Uiso   1.00
C93    C     0.66636   0.08755   0.24947   0.00000  Uiso   1.00
C94    C     0.33385   0.24583   0.24997   0.00000  Uiso   1.00
C95    C     0.52320   0.14187   0.04663   0.00000  Uiso   1.00
C96    C     0.47405   0.17470   0.45122   0.00000  Uiso   1.00
C97    C     0.57086   0.13500   0.02469   0.00000  Uiso   1.00
C98    C     0.42591   0.17983   0.47277   0.00000  Uiso   1.00
C99    C     0.63860   0.02082   0.28652   0.00000  Uiso   1.00
C100   C     0.36156   0.31266   0.21268   0.00000  Uiso   1.00
C101   C     0.63939   0.31100   0.28792   0.00000  Uiso   1.00
C102   C     0.36127   0.02254   0.21161   0.00000  Uiso   1.00
C103   C     0.33451   0.29048   0.25070   0.00000  Uiso   1.00
C104   C     0.66605   0.04297   0.24878   0.00000  Uiso   1.00
C105   C     0.51662   0.13573   0.27232   0.00000  Uiso   1.00
C106   C     0.48340   0.19753   0.22765   0.00000  Uiso   1.00
C107   C     0.46740   0.13640   0.27221   0.00000  Uiso   1.00
C108   C     0.53261   0.19689   0.22772   0.00000  Uiso   1.00
C109   C     0.63971   0.16518   0.33626   0.00000  Uiso   1.00
C110   C     0.36027   0.16700   0.16363   0.00000  Uiso   1.00
C111   C     0.62516   0.16021   0.38592   0.00000  Uiso   1.00
C112   C     0.37464   0.16804   0.11366   0.00000  Uiso   1.00
C113   C     0.63642   0.13575   0.45742   0.00000  Uiso   1.00
C114   C     0.36074   0.18119   0.04016   0.00000  Uiso   1.00
C115   C     0.65513   0.14328   0.41128   0.00000  Uiso   1.00
C116   C     0.34269   0.17715   0.08679   0.00000  Uiso   1.00
C117   C     0.57745   0.16912   0.40796   0.00000  Uiso   1.00
C118   C     0.42329   0.16163   0.09229   0.00000  Uiso   1.00
C119   C     0.55743   0.15919   0.45386   0.00000  Uiso   1.00
C120   C     0.44144   0.16410   0.04515   0.00000  Uiso   1.00
C121   C     0.58830   0.14350   0.47876   0.00000  Uiso   1.00
C122   C     0.40937   0.17506   0.01932   0.00000  Uiso   1.00
C123   C     0.50767   0.16419   0.47560   0.00000  Uiso   1.00
C124   C     0.49068   0.15696   0.02308   0.00000  Uiso   1.00
Cu125  Cu    0.38022   0.16667   0.25000   0.00000  Uiso   1.00
Cu126  Cu    0.61978   0.16666   0.25000   0.00000  Uiso   1.00
H127   H     0.44686   0.15586   0.11347   0.00000  Uiso   1.00
H128   H     0.55657   0.18411   0.38829   0.00000  Uiso   1.00
H129   H     0.65960   0.12286   0.47655   0.00000  Uiso   1.00
H130   H     0.33634   0.18931   0.02006   0.00000  Uiso   1.00
H131   H     0.51280   0.13349   0.08192   0.00000  Uiso   1.00
H132   H     0.48329   0.17800   0.41506   0.00000  Uiso   1.00
H133   H     0.61759   0.03718   0.31528   0.00000  Uiso   1.00
H134   H     0.38218   0.29636   0.18369   0.00000  Uiso   1.00
H135   H     0.44234   0.11264   0.29041   0.00000  Uiso   1.00
H136   H     0.55764   0.22072   0.20956   0.00000  Uiso   1.00
N137   N     0.45069   0.16668   0.24999   0.00000  Uiso   1.00
N138   N     0.54931   0.16666   0.25001   0.00000  Uiso   1.00
O139   O     0.37291   0.10655   0.25000   0.00000  Uiso   1.00
O140   O     0.62709   0.22678   0.25000   0.00000  Uiso   1.00
O141   O     0.62706   0.10654   0.25000   0.00000  Uiso   1.00
O142   O     0.37294   0.22679   0.24999   0.00000  Uiso   1.00
O143   O     0.35186   0.16668   0.31491   0.00000  Uiso   1.00
O144   O     0.64814   0.16666   0.18508   0.00000  Uiso   1.00
O145   O     0.60600   0.16667   0.31492   0.00000  Uiso   1.00
O146   O     0.39400   0.16667   0.18508   0.00000  Uiso   1.00
H147   H     0.59429   0.12278   0.04394   0.00000  Uiso   1.00
H148   H     0.40142   0.18787   0.45274   0.00000  Uiso   1.00
N149   N     0.62589   0.18295   0.10504   0.00000  Uiso   1.00
H150   H     0.60754   0.16129   0.12871   0.00000  Uiso   1.00
C151   C     0.61270   0.22553   0.11431   0.00000  Uiso   1.00
H152   H     0.62620   0.24535   0.08346   0.00000  Uiso   1.00
H153   H     0.62797   0.23754   0.14151   0.00000  Uiso   1.00
H154   H     0.57282   0.22722   0.12509   0.00000  Uiso   1.00
N155   N     0.37021   0.13218   0.39177   0.00000  Uiso   1.00
H156   H     0.39205   0.15404   0.37072   0.00000  Uiso   1.00
C157   C     0.37572   0.08990   0.37652   0.00000  Uiso   1.00
H158   H     0.35731   0.06779   0.40412   0.00000  Uiso   1.00
H159   H     0.41458   0.08277   0.36638   0.00000  Uiso   1.00
H160   H     0.36036   0.08565   0.34723   0.00000  Uiso   1.00
N161   N     0.61175   0.28843   0.32665   0.00000  Uiso   1.00
H162   H     0.58032   0.30257   0.34279   0.00000  Uiso   1.00
C163   C     0.63911   0.27614   0.35777   0.00000  Uiso   1.00
H164   H     0.65305   0.30405   0.37176   0.00000  Uiso   1.00
H165   H     0.33645   0.25691   0.34075   0.00000  Uiso   1.00
H166   H     0.61548   0.25743   0.38599   0.00000  Uiso   1.00
N167   N     0.38676   0.04532   0.17218   0.00000  Uiso   1.00
H168   H     0.38165   0.03305   0.14291   0.00000  Uiso   1.00
C169   C     0.43727   0.05367   0.16889   0.00000  Uiso   1.00
H170   H     0.45772   0.02481   0.16102   0.00000  Uiso   1.00
H171   H     0.44238   0.06641   0.20073   0.00000  Uiso   1.00
H172   H     0.45199   0.07684   0.14132   0.00000  Uiso   1.00
N173   N     0.53015   0.10292   0.29748   0.00000  Uiso   1.00
H174   H     0.55830   0.10816   0.31148   0.00000  Uiso   1.00
C175   C     0.52659   0.06143   0.28074   0.00000  Uiso   1.00
H176   H     0.53501   0.03835   0.30447   0.00000  Uiso   1.00
H177   H     0.55234   0.05846   0.24711   0.00000  Uiso   1.00
H178   H     0.48951   0.05404   0.27811   0.00000  Uiso   1.00
N179   N     0.46978   0.23052   0.20285   0.00000  Uiso   1.00
H180   H     0.44176   0.22529   0.18866   0.00000  Uiso   1.00
C181   C     0.47270   0.27166   0.22055   0.00000  Uiso   1.00
H182   H     0.46360   0.29493   0.19753   0.00000  Uiso   1.00
H183   H     0.50978   0.27936   0.22300   0.00000  Uiso   1.00
H184   H     0.44712   0.27384   0.25440   0.00000  Uiso   1.00
C185   C     0.99970   0.08755   0.24947   0.00000  Uiso   1.00
C186   C     0.66718   0.24583   0.24997   0.00000  Uiso   1.00
C187   C     0.85653   0.14187   0.04663   0.00000  Uiso   1.00
C188   C     0.80738   0.17470   0.45122   0.00000  Uiso   1.00
C189   C     0.90420   0.13500   0.02469   0.00000  Uiso   1.00
C190   C     0.75924   0.17983   0.47277   0.00000  Uiso   1.00
C191   C     0.97194   0.02082   0.28652   0.00000  Uiso   1.00
C192   C     0.69490   0.31266   0.21268   0.00000  Uiso   1.00
C193   C     0.97272   0.31100   0.28792   0.00000  Uiso   1.00
C194   C     0.69460   0.02254   0.21161   0.00000  Uiso   1.00
C195   C     0.66785   0.29048   0.25070   0.00000  Uiso   1.00
C196   C     0.99939   0.04297   0.24878   0.00000  Uiso   1.00
C197   C     0.84995   0.13573   0.27232   0.00000  Uiso   1.00
C198   C     0.81674   0.19753   0.22765   0.00000  Uiso   1.00
C199   C     0.80073   0.13640   0.27221   0.00000  Uiso   1.00
C200   C     0.86595   0.19689   0.22772   0.00000  Uiso   1.00
C201   C     0.97304   0.16518   0.33626   0.00000  Uiso   1.00
C202   C     0.69360   0.16700   0.16363   0.00000  Uiso   1.00
C203   C     0.95849   0.16021   0.38592   0.00000  Uiso   1.00
C204   C     0.70797   0.16804   0.11366   0.00000  Uiso   1.00
C205   C     0.96975   0.13575   0.45742   0.00000  Uiso   1.00
C206   C     0.69407   0.18119   0.04016   0.00000  Uiso   1.00
C207   C     0.98847   0.14328   0.41128   0.00000  Uiso   1.00
C208   C     0.67602   0.17715   0.08679   0.00000  Uiso   1.00
C209   C     0.91079   0.16912   0.40796   0.00000  Uiso   1.00
C210   C     0.75662   0.16163   0.09229   0.00000  Uiso   1.00
C211   C     0.89076   0.15919   0.45386   0.00000  Uiso   1.00
C212   C     0.77477   0.16410   0.04515   0.00000  Uiso   1.00
C213   C     0.92164   0.14350   0.47876   0.00000  Uiso   1.00
C214   C     0.74270   0.17506   0.01932   0.00000  Uiso   1.00
C215   C     0.84101   0.16419   0.47560   0.00000  Uiso   1.00
C216   C     0.82401   0.15696   0.02308   0.00000  Uiso   1.00
Cu217  Cu    0.71355   0.16667   0.25000   0.00000  Uiso   1.00
Cu218  Cu    0.95311   0.16666   0.25000   0.00000  Uiso   1.00
H219   H     0.78020   0.15586   0.11347   0.00000  Uiso   1.00
H220   H     0.88991   0.18411   0.38829   0.00000  Uiso   1.00
H221   H     0.99294   0.12286   0.47655   0.00000  Uiso   1.00
H222   H     0.66967   0.18931   0.02006   0.00000  Uiso   1.00
H223   H     0.84613   0.13349   0.08192   0.00000  Uiso   1.00
H224   H     0.81662   0.17800   0.41506   0.00000  Uiso   1.00
H225   H     0.95092   0.03718   0.31528   0.00000  Uiso   1.00
H226   H     0.71551   0.29636   0.18369   0.00000  Uiso   1.00
H227   H     0.77567   0.11264   0.29041   0.00000  Uiso   1.00
H228   H     0.89097   0.22072   0.20956   0.00000  Uiso   1.00
N229   N     0.78403   0.16668   0.24999   0.00000  Uiso   1.00
N230   N     0.88264   0.16666   0.25001   0.00000  Uiso   1.00
O231   O     0.70625   0.10655   0.25000   0.00000  Uiso   1.00
O232   O     0.96042   0.22678   0.25000   0.00000  Uiso   1.00
O233   O     0.96039   0.10654   0.25000   0.00000  Uiso   1.00
O234   O     0.70628   0.22679   0.24999   0.00000  Uiso   1.00
O235   O     0.68519   0.16668   0.31491   0.00000  Uiso   1.00
O236   O     0.98148   0.16666   0.18508   0.00000  Uiso   1.00
O237   O     0.93933   0.16667   0.31492   0.00000  Uiso   1.00
O238   O     0.72733   0.16667   0.18508   0.00000  Uiso   1.00
H239   H     0.92762   0.12278   0.04394   0.00000  Uiso   1.00
H240   H     0.73475   0.18787   0.45274   0.00000  Uiso   1.00
N241   N     0.95922   0.18295   0.10504   0.00000  Uiso   1.00
H242   H     0.94088   0.16129   0.12871   0.00000  Uiso   1.00
C243   C     0.94603   0.22553   0.11431   0.00000  Uiso   1.00
H244   H     0.95954   0.24535   0.08346   0.00000  Uiso   1.00
H245   H     0.96130   0.23754   0.14151   0.00000  Uiso   1.00
H246   H     0.90615   0.22722   0.12509   0.00000  Uiso   1.00
N247   N     0.70354   0.13218   0.39177   0.00000  Uiso   1.00
H248   H     0.72538   0.15404   0.37072   0.00000  Uiso   1.00
C249   C     0.70906   0.08990   0.37652   0.00000  Uiso   1.00
H250   H     0.69064   0.06779   0.40412   0.00000  Uiso   1.00
H251   H     0.74792   0.08277   0.36638   0.00000  Uiso   1.00
H252   H     0.69369   0.08565   0.34723   0.00000  Uiso   1.00
N253   N     0.94508   0.28843   0.32665   0.00000  Uiso   1.00
H254   H     0.91365   0.30257   0.34279   0.00000  Uiso   1.00
C255   C     0.97244   0.27614   0.35777   0.00000  Uiso   1.00
H256   H     0.98638   0.30405   0.37176   0.00000  Uiso   1.00
H257   H     0.66978   0.25691   0.34075   0.00000  Uiso   1.00
H258   H     0.94881   0.25743   0.38599   0.00000  Uiso   1.00
N259   N     0.72009   0.04532   0.17218   0.00000  Uiso   1.00
H260   H     0.71498   0.03305   0.14291   0.00000  Uiso   1.00
C261   C     0.77060   0.05367   0.16889   0.00000  Uiso   1.00
H262   H     0.79106   0.02481   0.16102   0.00000  Uiso   1.00
H263   H     0.77572   0.06641   0.20073   0.00000  Uiso   1.00
H264   H     0.78532   0.07684   0.14132   0.00000  Uiso   1.00
N265   N     0.86348   0.10292   0.29748   0.00000  Uiso   1.00
H266   H     0.89164   0.10816   0.31148   0.00000  Uiso   1.00
C267   C     0.85992   0.06143   0.28074   0.00000  Uiso   1.00
H268   H     0.86835   0.03835   0.30447   0.00000  Uiso   1.00
H269   H     0.88568   0.05846   0.24711   0.00000  Uiso   1.00
H270   H     0.82285   0.05404   0.27811   0.00000  Uiso   1.00
N271   N     0.80311   0.23052   0.20285   0.00000  Uiso   1.00
H272   H     0.77509   0.22529   0.18866   0.00000  Uiso   1.00
C273   C     0.80604   0.27166   0.22055   0.00000  Uiso   1.00
H274   H     0.79693   0.29493   0.19753   0.00000  Uiso   1.00
H275   H     0.84311   0.27936   0.22300   0.00000  Uiso   1.00
H276   H     0.78045   0.27384   0.25440   0.00000  Uiso   1.00
C277   C     0.33303   0.42088   0.24947   0.00000  Uiso   1.00
C278   C     0.00051   0.57916   0.24997   0.00000  Uiso   1.00
C279   C     0.18986   0.47520   0.04663   0.00000  Uiso   1.00
C280   C     0.14072   0.50804   0.45122   0.00000  Uiso   1.00
C281   C     0.23753   0.46834   0.02469   0.00000  Uiso   1.00
C282   C     0.09257   0.51316   0.47277   0.00000  Uiso   1.00
C283   C     0.30527   0.35415   0.28652   0.00000  Uiso   1.00
C284   C     0.02823   0.64599   0.21268   0.00000  Uiso   1.00
C285   C     0.30605   0.64433   0.28792   0.00000  Uiso   1.00
C286   C     0.02794   0.35587   0.21161   0.00000  Uiso   1.00
C287   C     0.00118   0.62381   0.25070   0.00000  Uiso   1.00
C288   C     0.33272   0.37630   0.24878   0.00000  Uiso   1.00
C289   C     0.18328   0.46906   0.27232   0.00000  Uiso   1.00
C290   C     0.15007   0.53087   0.22765   0.00000  Uiso   1.00
C291   C     0.13407   0.46973   0.27221   0.00000  Uiso   1.00
C292   C     0.19928   0.53022   0.22772   0.00000  Uiso   1.00
C293   C     0.30638   0.49852   0.33626   0.00000  Uiso   1.00
C294   C     0.02694   0.50033   0.16363   0.00000  Uiso   1.00
C295   C     0.29183   0.49355   0.38592   0.00000  Uiso   1.00
C296   C     0.04130   0.50137   0.11366   0.00000  Uiso   1.00
C297   C     0.30309   0.46908   0.45742   0.00000  Uiso   1.00
C298   C     0.02741   0.51453   0.04016   0.00000  Uiso   1.00
C299   C     0.32180   0.47661   0.41128   0.00000  Uiso   1.00
C300   C     0.00935   0.51048   0.08679   0.00000  Uiso   1.00
C301   C     0.24412   0.50245   0.40796   0.00000  Uiso   1.00
C302   C     0.08996   0.49496   0.09229   0.00000  Uiso   1.00
C303   C     0.22410   0.49253   0.45386   0.00000  Uiso   1.00
C304   C     0.10810   0.49743   0.04515   0.00000  Uiso   1.00
C305   C     0.25497   0.47683   0.47876   0.00000  Uiso   1.00
C306   C     0.07603   0.50840   0.01932   0.00000  Uiso   1.00
C307   C     0.17434   0.49752   0.47560   0.00000  Uiso   1.00
C308   C     0.15735   0.49029   0.02308   0.00000  Uiso   1.00
Cu309  Cu    0.04689   0.50001   0.25000   0.00000  Uiso   1.00
Cu310  Cu    0.28645   0.49999   0.25000   0.00000  Uiso   1.00
H311   H     0.11353   0.48920   0.11347   0.00000  Uiso   1.00
H312   H     0.22324   0.51744   0.38829   0.00000  Uiso   1.00
H313   H     0.32627   0.45620   0.47655   0.00000  Uiso   1.00
H314   H     0.00300   0.52264   0.02006   0.00000  Uiso   1.00
H315   H     0.17947   0.46683   0.08192   0.00000  Uiso   1.00
H316   H     0.14995   0.51133   0.41506   0.00000  Uiso   1.00
H317   H     0.28426   0.37051   0.31528   0.00000  Uiso   1.00
H318   H     0.04884   0.62969   0.18369   0.00000  Uiso   1.00
H319   H     0.10900   0.44598   0.29041   0.00000  Uiso   1.00
H320   H     0.22430   0.55406   0.20956   0.00000  Uiso   1.00
N321   N     0.11736   0.50001   0.24999   0.00000  Uiso   1.00
N322   N     0.21597   0.49999   0.25001   0.00000  Uiso   1.00
O323   O     0.03958   0.43989   0.25000   0.00000  Uiso   1.00
O324   O     0.29375   0.56011   0.25000   0.00000  Uiso   1.00
O325   O     0.29372   0.43988   0.25000   0.00000  Uiso   1.00
O326   O     0.03961   0.56012   0.24999   0.00000  Uiso   1.00
O327   O     0.01852   0.50001   0.31491   0.00000  Uiso   1.00
O328   O     0.31481   0.49999   0.18508   0.00000  Uiso   1.00
O329   O     0.27267   0.50000   0.31492   0.00000  Uiso   1.00
O330   O     0.06067   0.50000   0.18508   0.00000  Uiso   1.00
H331   H     0.26096   0.45611   0.04394   0.00000  Uiso   1.00
H332   H     0.06808   0.52121   0.45274   0.00000  Uiso   1.00
N333   N     0.29255   0.51629   0.10504   0.00000  Uiso   1.00
H334   H     0.27421   0.49462   0.12871   0.00000  Uiso   1.00
C335   C     0.27936   0.55887   0.11431   0.00000  Uiso   1.00
H336   H     0.29287   0.57868   0.08346   0.00000  Uiso   1.00
H337   H     0.29463   0.57087   0.14151   0.00000  Uiso   1.00
H338   H     0.23948   0.56056   0.12509   0.00000  Uiso   1.00
N339   N     0.03687   0.46551   0.39177   0.00000  Uiso   1.00
H340   H     0.05871   0.48738   0.37072   0.00000  Uiso   1.00
C341   C     0.04239   0.42323   0.37652   0.00000  Uiso   1.00
H342   H     0.02397   0.40112   0.40412   0.00000  Uiso   1.00
H343   H     0.08125   0.41610   0.36638   0.00000  Uiso   1.00
H344   H     0.02703   0.41898   0.34723   0.00000  Uiso   1.00
N345   N     0.27842   0.62176   0.32665   0.00000  Uiso   1.00
H346   H     0.24698   0.63590   0.34279   0.00000  Uiso   1.00
C347   C     0.30577   0.60947   0.35777   0.00000  Uiso   1.00
H348   H     0.31972   0.63739   0.37176   0.00000  Uiso   1.00
H349   H     0.00311   0.59024   0.34075   0.00000  Uiso   1.00
H350   H     0.28215   0.59076   0.38599   0.00000  Uiso   1.00
N351   N     0.05343   0.37866   0.17218   0.00000  Uiso   1.00
H352   H     0.04832   0.36638   0.14291   0.00000  Uiso   1.00
C353   C     0.10393   0.38700   0.16889   0.00000  Uiso   1.00
H354   H     0.12439   0.35814   0.16102   0.00000  Uiso   1.00
H355   H     0.10905   0.39975   0.20073   0.00000  Uiso   1.00
H356   H     0.11865   0.41018   0.14132   0.00000  Uiso   1.00
N357   N     0.19682   0.43625   0.29748   0.00000  Uiso   1.00
H358   H     0.22497   0.44150   0.31148   0.00000  Uiso   1.00
C359   C     0.19325   0.39477   0.28074   0.00000  Uiso   1.00
H360   H     0.20168   0.37168   0.30447   0.00000  Uiso   1.00
H361   H     0.21901   0.39179   0.24711   0.00000  Uiso   1.00
H362   H     0.15618   0.38738   0.27811   0.00000  Uiso   1.00
N363   N     0.13645   0.56385   0.20285   0.00000  Uiso   1.00
H364   H     0.10843   0.55862   0.18866   0.00000  Uiso   1.00
C365   C     0.13937   0.60500   0.22055   0.00000  Uiso   1.00
H366   H     0.13026   0.62826   0.19753   0.00000  Uiso   1.00
H367   H     0.17645   0.61269   0.22300   0.00000  Uiso   1.00
H368   H     0.11379   0.60717   0.25440   0.00000  Uiso   1.00
C369   C     0.66636   0.42088   0.24947   0.00000  Uiso   1.00
C370   C     0.33385   0.57916   0.24997   0.00000  Uiso   1.00
C371   C     0.52320   0.47520   0.04663   0.00000  Uiso   1.00
C372   C     0.47405   0.50804   0.45122   0.00000  Uiso   1.00
C373   C     0.57086   0.46834   0.02469   0.00000  Uiso   1.00
C374   C     0.42591   0.51316   0.47277   0.00000  Uiso   1.00
C375   C     0.63860   0.35415   0.28652   0.00000  Uiso   1.00
C376   C     0.36156   0.64599   0.21268   0.00000  Uiso   1.00
C377   C     0.63939   0.64433   0.28792   0.00000  Uiso   1.00
C378   C     0.36127   0.35587   0.21161   0.00000  Uiso   1.00
C379   C     0.33451   0.62381   0.25070   0.00000  Uiso   1.00
C380   C     0.66605   0.37630   0.24878   0.00000  Uiso   1.00
C381   C     0.51662   0.46906   0.27232   0.00000  Uiso   1.00
C382   C     0.48340   0.53087   0.22765   0.00000  Uiso   1.00
C383   C     0.46740   0.46973   0.27221   0.00000  Uiso   1.00
C384   C     0.53261   0.53022   0.22772   0.00000  Uiso   1.00
C385   C     0.63971   0.49852   0.33626   0.00000  Uiso   1.00
C386   C     0.36027   0.50033   0.16363   0.00000  Uiso   1.00
C387   C     0.62516   0.49355   0.38592   0.00000  Uiso   1.00
C388   C     0.37464   0.50137   0.11366   0.00000  Uiso   1.00
C389   C     0.63642   0.46908   0.45742   0.00000  Uiso   1.00
C390   C     0.36074   0.51453   0.04016   0.00000  Uiso   1.00
C391   C     0.65513   0.47661   0.41128   0.00000  Uiso   1.00
C392   C     0.34269   0.51048   0.08679   0.00000  Uiso   1.00
C393   C     0.57745   0.50245   0.40796   0.00000  Uiso   1.00
C394   C     0.42329   0.49496   0.09229   0.00000  Uiso   1.00
C395   C     0.55743   0.49253   0.45386   0.00000  Uiso   1.00
C396   C     0.44144   0.49743   0.04515   0.00000  Uiso   1.00
C397   C     0.58830   0.47683   0.47876   0.00000  Uiso   1.00
C398   C     0.40937   0.50840   0.01932   0.00000  Uiso   1.00
C399   C     0.50767   0.49752   0.47560   0.00000  Uiso   1.00
C400   C     0.49068   0.49029   0.02308   0.00000  Uiso   1.00
Cu401  Cu    0.38022   0.50001   0.25000   0.00000  Uiso   1.00
Cu402  Cu    0.61978   0.49999   0.25000   0.00000  Uiso   1.00
H403   H     0.44686   0.48920   0.11347   0.00000  Uiso   1.00
H404   H     0.55657   0.51744   0.38829   0.00000  Uiso   1.00
H405   H     0.65960   0.45620   0.47655   0.00000  Uiso   1.00
H406   H     0.33634   0.52264   0.02006   0.00000  Uiso   1.00
H407   H     0.51280   0.46683   0.08192   0.00000  Uiso   1.00
H408   H     0.48329   0.51133   0.41506   0.00000  Uiso   1.00
H409   H     0.61759   0.37051   0.31528   0.00000  Uiso   1.00
H410   H     0.38218   0.62969   0.18369   0.00000  Uiso   1.00
H411   H     0.44234   0.44598   0.29041   0.00000  Uiso   1.00
H412   H     0.55764   0.55406   0.20956   0.00000  Uiso   1.00
N413   N     0.45069   0.50001   0.24999   0.00000  Uiso   1.00
N414   N     0.54931   0.49999   0.25001   0.00000  Uiso   1.00
O415   O     0.37291   0.43989   0.25000   0.00000  Uiso   1.00
O416   O     0.62709   0.56011   0.25000   0.00000  Uiso   1.00
O417   O     0.62706   0.43988   0.25000   0.00000  Uiso   1.00
O418   O     0.37294   0.56012   0.24999   0.00000  Uiso   1.00
O419   O     0.35186   0.50001   0.31491   0.00000  Uiso   1.00
O420   O     0.64814   0.49999   0.18508   0.00000  Uiso   1.00
O421   O     0.60600   0.50000   0.31492   0.00000  Uiso   1.00
O422   O     0.39400   0.50000   0.18508   0.00000  Uiso   1.00
H423   H     0.59429   0.45611   0.04394   0.00000  Uiso   1.00
H424   H     0.40142   0.52121   0.45274   0.00000  Uiso   1.00
N425   N     0.62589   0.51629   0.10504   0.00000  Uiso   1.00
H426   H     0.60754   0.49462   0.12871   0.00000  Uiso   1.00
C427   C     0.61270   0.55887   0.11431   0.00000  Uiso   1.00
H428   H     0.62620   0.57868   0.08346   0.00000  Uiso   1.00
H429   H     0.62797   0.57087   0.14151   0.00000  Uiso   1.00
H430   H     0.57282   0.56056   0.12509   0.00000  Uiso   1.00
N431   N     0.37021   0.46551   0.39177   0.00000  Uiso   1.00
H432   H     0.39205   0.48738   0.37072   0.00000  Uiso   1.00
C433   C     0.37572   0.42323   0.37652   0.00000  Uiso   1.00
H434   H     0.35731   0.40112   0.40412   0.00000  Uiso   1.00
H435   H     0.41458   0.41610   0.36638   0.00000  Uiso   1.00
H436   H     0.36036   0.41898   0.34723   0.00000  Uiso   1.00
N437   N     0.61175   0.62176   0.32665   0.00000  Uiso   1.00
H438   H     0.58032   0.63590   0.34279   0.00000  Uiso   1.00
C439   C     0.63911   0.60947   0.35777   0.00000  Uiso   1.00
H440   H     0.65305   0.63739   0.37176   0.00000  Uiso   1.00
H441   H     0.33645   0.59024   0.34075   0.00000  Uiso   1.00
H442   H     0.61548   0.59076   0.38599   0.00000  Uiso   1.00
N443   N     0.38676   0.37866   0.17218   0.00000  Uiso   1.00
H444   H     0.38165   0.36638   0.14291   0.00000  Uiso   1.00
C445   C     0.43727   0.38700   0.16889   0.00000  Uiso   1.00
H446   H     0.45772   0.35814   0.16102   0.00000  Uiso   1.00
H447   H     0.44238   0.39975   0.20073   0.00000  Uiso   1.00
H448   H     0.45199   0.41018   0.14132   0.00000  Uiso   1.00
N449   N     0.53015   0.43625   0.29748   0.00000  Uiso   1.00
H450   H     0.55830   0.44150   0.31148   0.00000  Uiso   1.00
C451   C     0.52659   0.39477   0.28074   0.00000  Uiso   1.00
H452   H     0.53501   0.37168   0.30447   0.00000  Uiso   1.00
H453   H     0.55234   0.39179   0.24711   0.00000  Uiso   1.00
H454   H     0.48951   0.38738   0.27811   0.00000  Uiso   1.00
N455   N     0.46978   0.56385   0.20285   0.00000  Uiso   1.00
H456   H     0.44176   0.55862   0.18866   0.00000  Uiso   1.00
C457   C     0.47270   0.60500   0.22055   0.00000  Uiso   1.00
H458   H     0.46360   0.62826   0.19753   0.00000  Uiso   1.00
H459   H     0.50978   0.61269   0.22300   0.00000  Uiso   1.00
H460   H     0.44712   0.60717   0.25440   0.00000  Uiso   1.00
C461   C     0.99970   0.42088   0.24947   0.00000  Uiso   1.00
C462   C     0.66718   0.57916   0.24997   0.00000  Uiso   1.00
C463   C     0.85653   0.47520   0.04663   0.00000  Uiso   1.00
C464   C     0.80738   0.50804   0.45122   0.00000  Uiso   1.00
C465   C     0.90420   0.46834   0.02469   0.00000  Uiso   1.00
C466   C     0.75924   0.51316   0.47277   0.00000  Uiso   1.00
C467   C     0.97194   0.35415   0.28652   0.00000  Uiso   1.00
C468   C     0.69490   0.64599   0.21268   0.00000  Uiso   1.00
C469   C     0.97272   0.64433   0.28792   0.00000  Uiso   1.00
C470   C     0.69460   0.35587   0.21161   0.00000  Uiso   1.00
C471   C     0.66785   0.62381   0.25070   0.00000  Uiso   1.00
C472   C     0.99939   0.37630   0.24878   0.00000  Uiso   1.00
C473   C     0.84995   0.46906   0.27232   0.00000  Uiso   1.00
C474   C     0.81674   0.53087   0.22765   0.00000  Uiso   1.00
C475   C     0.80073   0.46973   0.27221   0.00000  Uiso   1.00
C476   C     0.86595   0.53022   0.22772   0.00000  Uiso   1.00
C477   C     0.97304   0.49852   0.33626   0.00000  Uiso   1.00
C478   C     0.69360   0.50033   0.16363   0.00000  Uiso   1.00
C479   C     0.95849   0.49355   0.38592   0.00000  Uiso   1.00
C480   C     0.70797   0.50137   0.11366   0.00000  Uiso   1.00
C481   C     0.96975   0.46908   0.45742   0.00000  Uiso   1.00
C482   C     0.69407   0.51453   0.04016   0.00000  Uiso   1.00
C483   C     0.98847   0.47661   0.41128   0.00000  Uiso   1.00
C484   C     0.67602   0.51048   0.08679   0.00000  Uiso   1.00
C485   C     0.91079   0.50245   0.40796   0.00000  Uiso   1.00
C486   C     0.75662   0.49496   0.09229   0.00000  Uiso   1.00
C487   C     0.89076   0.49253   0.45386   0.00000  Uiso   1.00
C488   C     0.77477   0.49743   0.04515   0.00000  Uiso   1.00
C489   C     0.92164   0.47683   0.47876   0.00000  Uiso   1.00
C490   C     0.74270   0.50840   0.01932   0.00000  Uiso   1.00
C491   C     0.84101   0.49752   0.47560   0.00000  Uiso   1.00
C492   C     0.82401   0.49029   0.02308   0.00000  Uiso   1.00
Cu493  Cu    0.71355   0.50001   0.25000   0.00000  Uiso   1.00
Cu494  Cu    0.95311   0.49999   0.25000   0.00000  Uiso   1.00
H495   H     0.78020   0.48920   0.11347   0.00000  Uiso   1.00
H496   H     0.88991   0.51744   0.38829   0.00000  Uiso   1.00
H497   H     0.99294   0.45620   0.47655   0.00000  Uiso   1.00
H498   H     0.66967   0.52264   0.02006   0.00000  Uiso   1.00
H499   H     0.84613   0.46683   0.08192   0.00000  Uiso   1.00
H500   H     0.81662   0.51133   0.41506   0.00000  Uiso   1.00
H501   H     0.95092   0.37051   0.31528   0.00000  Uiso   1.00
H502   H     0.71551   0.62969   0.18369   0.00000  Uiso   1.00
H503   H     0.77567   0.44598   0.29041   0.00000  Uiso   1.00
H504   H     0.89097   0.55406   0.20956   0.00000  Uiso   1.00
N505   N     0.78403   0.50001   0.24999   0.00000  Uiso   1.00
N506   N     0.88264   0.49999   0.25001   0.00000  Uiso   1.00
O507   O     0.70625   0.43989   0.25000   0.00000  Uiso   1.00
O508   O     0.96042   0.56011   0.25000   0.00000  Uiso   1.00
O509   O     0.96039   0.43988   0.25000   0.00000  Uiso   1.00
O510   O     0.70628   0.56012   0.24999   0.00000  Uiso   1.00
O511   O     0.68519   0.50001   0.31491   0.00000  Uiso   1.00
O512   O     0.98148   0.49999   0.18508   0.00000  Uiso   1.00
O513   O     0.93933   0.50000   0.31492   0.00000  Uiso   1.00
O514   O     0.72733   0.50000   0.18508   0.00000  Uiso   1.00
H515   H     0.92762   0.45611   0.04394   0.00000  Uiso   1.00
H516   H     0.73475   0.52121   0.45274   0.00000  Uiso   1.00
N517   N     0.95922   0.51629   0.10504   0.00000  Uiso   1.00
H518   H     0.94088   0.49462   0.12871   0.00000  Uiso   1.00
C519   C     0.94603   0.55887   0.11431   0.00000  Uiso   1.00
H520   H     0.95954   0.57868   0.08346   0.00000  Uiso   1.00
H521   H     0.96130   0.57087   0.14151   0.00000  Uiso   1.00
H522   H     0.90615   0.56056   0.12509   0.00000  Uiso   1.00
N523   N     0.70354   0.46551   0.39177   0.00000  Uiso   1.00
H524   H     0.72538   0.48738   0.37072   0.00000  Uiso   1.00
C525   C     0.70906   0.42323   0.37652   0.00000  Uiso   1.00
H526   H     0.69064   0.40112   0.40412   0.00000  Uiso   1.00
H527   H     0.74792   0.41610   0.36638   0.00000  Uiso   1.00
H528   H     0.69369   0.41898   0.34723   0.00000  Uiso   1.00
N529   N     0.94508   0.62176   0.32665   0.00000  Uiso   1.00
H530   H     0.91365   0.63590   0.34279   0.00000  Uiso   1.00
C531   C     0.97244   0.60947   0.35777   0.00000  Uiso   1.00
H532   H     0.98638   0.63739   0.37176   0.00000  Uiso   1.00
H533   H     0.66978   0.59024   0.34075   0.00000  Uiso   1.00
H534   H     0.94881   0.59076   0.38599   0.00000  Uiso   1.00
N535   N     0.72009   0.37866   0.17218   0.00000  Uiso   1.00
H536   H     0.71498   0.36638   0.14291   0.00000  Uiso   1.00
C537   C     0.77060   0.38700   0.16889   0.00000  Uiso   1.00
H538   H     0.79106   0.35814   0.16102   0.00000  Uiso   1.00
H539   H     0.77572   0.39975   0.20073   0.00000  Uiso   1.00
H540   H     0.78532   0.41018   0.14132   0.00000  Uiso   1.00
N541   N     0.86348   0.43625   0.29748   0.00000  Uiso   1.00
H542   H     0.89164   0.44150   0.31148   0.00000  Uiso   1.00
C543   C     0.85992   0.39477   0.28074   0.00000  Uiso   1.00
H544   H     0.86835   0.37168   0.30447   0.00000  Uiso   1.00
H545   H     0.88568   0.39179   0.24711   0.00000  Uiso   1.00
H546   H     0.82285   0.38738   0.27811   0.00000  Uiso   1.00
N547   N     0.80311   0.56385   0.20285   0.00000  Uiso   1.00
H548   H     0.77509   0.55862   0.18866   0.00000  Uiso   1.00
C549   C     0.80604   0.60500   0.22055   0.00000  Uiso   1.00
H550   H     0.79693   0.62826   0.19753   0.00000  Uiso   1.00
H551   H     0.84311   0.61269   0.22300   0.00000  Uiso   1.00
H552   H     0.78045   0.60717   0.25440   0.00000  Uiso   1.00
C553   C     0.33303   0.75422   0.24947   0.00000  Uiso   1.00
C554   C     0.00051   0.91250   0.24997   0.00000  Uiso   1.00
C555   C     0.18986   0.80853   0.04663   0.00000  Uiso   1.00
C556   C     0.14072   0.84137   0.45122   0.00000  Uiso   1.00
C557   C     0.23753   0.80167   0.02469   0.00000  Uiso   1.00
C558   C     0.09257   0.84649   0.47277   0.00000  Uiso   1.00
C559   C     0.30527   0.68749   0.28652   0.00000  Uiso   1.00
C560   C     0.02823   0.97932   0.21268   0.00000  Uiso   1.00
C561   C     0.30605   0.97766   0.28792   0.00000  Uiso   1.00
C562   C     0.02794   0.68921   0.21161   0.00000  Uiso   1.00
C563   C     0.00118   0.95714   0.25070   0.00000  Uiso   1.00
C564   C     0.33272   0.70963   0.24878   0.00000  Uiso   1.00
C565   C     0.18328   0.80240   0.27232   0.00000  Uiso   1.00
C566   C     0.15007   0.86420   0.22765   0.00000  Uiso   1.00
C567   C     0.13407   0.80307   0.27221   0.00000  Uiso   1.00
C568   C     0.19928   0.86355   0.22772   0.00000  Uiso   1.00
C569   C     0.30638   0.83185   0.33626   0.00000  Uiso   1.00
C570   C     0.02694   0.83366   0.16363   0.00000  Uiso   1.00
C571   C     0.29183   0.82688   0.38592   0.00000  Uiso   1.00
C572   C     0.04130   0.83471   0.11366   0.00000  Uiso   1.00
C573   C     0.30309   0.80242   0.45742   0.00000  Uiso   1.00
C574   C     0.02741   0.84786   0.04016   0.00000  Uiso   1.00
C575   C     0.32180   0.80994   0.41128   0.00000  Uiso   1.00
C576   C     0.00935   0.84381   0.08679   0.00000  Uiso   1.00
C577   C     0.24412   0.83578   0.40796   0.00000  Uiso   1.00
C578   C     0.08996   0.82829   0.09229   0.00000  Uiso   1.00
C579   C     0.22410   0.82586   0.45386   0.00000  Uiso   1.00
C580   C     0.10810   0.83076   0.04515   0.00000  Uiso   1.00
C581   C     0.25497   0.81017   0.47876   0.00000  Uiso   1.00
C582   C     0.07603   0.84173   0.01932   0.00000  Uiso   1.00
C583   C     0.17434   0.83085   0.47560   0.00000  Uiso   1.00
C584   C     0.15735   0.82362   0.02308   0.00000  Uiso   1.00
Cu585  Cu    0.04689   0.83334   0.25000   0.00000  Uiso   1.00
Cu586  Cu    0.28645   0.83333   0.25000   0.00000  Uiso   1.00
H587   H     0.11353   0.82253   0.11347   0.00000  Uiso   1.00
H588   H     0.22324   0.85078   0.38829   0.00000  Uiso   1.00
H589   H     0.32627   0.78953   0.47655   0.00000  Uiso   1.00
H590   H     0.00300   0.85598   0.02006   0.00000  Uiso   1.00
H591   H     0.17947   0.80016   0.08192   0.00000  Uiso   1.00
H592   H     0.14995   0.84466   0.41506   0.00000  Uiso   1.00
H593   H     0.28426   0.70385   0.31528   0.00000  Uiso   1.00
H594   H     0.04884   0.96303   0.18369   0.00000  Uiso   1.00
H595   H     0.10900   0.77931   0.29041   0.00000  Uiso   1.00
H596   H     0.22430   0.88739   0.20956   0.00000  Uiso   1.00
N597   N     0.11736   0.83334   0.24999   0.00000  Uiso   1.00
N598   N     0.21597   0.83332   0.25001   0.00000  Uiso   1.00
O599   O     0.03958   0.77322   0.25000   0.00000  Uiso   1.00
O600   O     0.29375   0.89345   0.25000   0.00000  Uiso   1.00
O601   O     0.29372   0.77321   0.25000   0.00000  Uiso   1.00
O602   O     0.03961   0.89346   0.24999   0.00000  Uiso   1.00
O603   O     0.01852   0.83334   0.31491   0.00000  Uiso   1.00
O604   O     0.31481   0.83332   0.18508   0.00000  Uiso   1.00
O605   O     0.27267   0.83333   0.31492   0.00000  Uiso   1.00
O606   O     0.06067   0.83333   0.18508   0.00000  Uiso   1.00
H607   H     0.26096   0.78945   0.04394   0.00000  Uiso   1.00
H608   H     0.06808   0.85454   0.45274   0.00000  Uiso   1.00
N609   N     0.29255   0.84962   0.10504   0.00000  Uiso   1.00
H610   H     0.27421   0.82796   0.12871   0.00000  Uiso   1.00
C611   C     0.27936   0.89220   0.11431   0.00000  Uiso   1.00
H612   H     0.29287   0.91202   0.08346   0.00000  Uiso   1.00
H613   H     0.29463   0.90420   0.14151   0.00000  Uiso   1.00
H614   H     0.23948   0.89389   0.12509   0.00000  Uiso   1.00
N615   N     0.03687   0.79885   0.39177   0.00000  Uiso   1.00
H616   H     0.05871   0.82071   0.37072   0.00000  Uiso   1.00
C617   C     0.04239   0.75657   0.37652   0.00000  Uiso   1.00
H618   H     0.02397   0.73445   0.40412   0.00000  Uiso   1.00
H619   H     0.08125   0.74944   0.36638   0.00000  Uiso   1.00
H620   H     0.02703   0.75232   0.34723   0.00000  Uiso   1.00
N621   N     0.27842   0.95510   0.32665   0.00000  Uiso   1.00
H622   H     0.24698   0.96923   0.34279   0.00000  Uiso   1.00
C623   C     0.30577   0.94281   0.35777   0.00000  Uiso   1.00
H624   H     0.31972   0.97072   0.37176   0.00000  Uiso   1.00
H625   H     0.00311   0.92358   0.34075   0.00000  Uiso   1.00
H626   H     0.28215   0.92409   0.38599   0.00000  Uiso   1.00
N627   N     0.05343   0.71199   0.17218   0.00000  Uiso   1.00
H628   H     0.04832   0.69972   0.14291   0.00000  Uiso   1.00
C629   C     0.10393   0.72033   0.16889   0.00000  Uiso   1.00
H630   H     0.12439   0.69147   0.16102   0.00000  Uiso   1.00
H631   H     0.10905   0.73308   0.20073   0.00000  Uiso   1.00
H632   H     0.11865   0.74351   0.14132   0.00000  Uiso   1.00
N633   N     0.19682   0.76959   0.29748   0.00000  Uiso   1.00
H634   H     0.22497   0.77483   0.31148   0.00000  Uiso   1.00
C635   C     0.19325   0.72810   0.28074   0.00000  Uiso   1.00
H636   H     0.20168   0.70501   0.30447   0.00000  Uiso   1.00
H637   H     0.21901   0.72512   0.24711   0.00000  Uiso   1.00
H638   H     0.15618   0.72071   0.27811   0.00000  Uiso   1.00
N639   N     0.13645   0.89718   0.20285   0.00000  Uiso   1.00
H640   H     0.10843   0.89195   0.18866   0.00000  Uiso   1.00
C641   C     0.13937   0.93833   0.22055   0.00000  Uiso   1.00
H642   H     0.13026   0.96160   0.19753   0.00000  Uiso   1.00
H643   H     0.17645   0.94603   0.22300   0.00000  Uiso   1.00
H644   H     0.11379   0.94051   0.25440   0.00000  Uiso   1.00
C645   C     0.66636   0.75422   0.24947   0.00000  Uiso   1.00
C646   C     0.33385   0.91250   0.24997   0.00000  Uiso   1.00
C647   C     0.52320   0.80853   0.04663   0.00000  Uiso   1.00
C648   C     0.47405   0.84137   0.45122   0.00000  Uiso   1.00
C649   C     0.57086   0.80167   0.02469   0.00000  Uiso   1.00
C650   C     0.42591   0.84649   0.47277   0.00000  Uiso   1.00
C651   C     0.63860   0.68749   0.28652   0.00000  Uiso   1.00
C652   C     0.36156   0.97932   0.21268   0.00000  Uiso   1.00
C653   C     0.63939   0.97766   0.28792   0.00000  Uiso   1.00
C654   C     0.36127   0.68921   0.21161   0.00000  Uiso   1.00
C655   C     0.33451   0.95714   0.25070   0.00000  Uiso   1.00
C656   C     0.66605   0.70963   0.24878   0.00000  Uiso   1.00
C657   C     0.51662   0.80240   0.27232   0.00000  Uiso   1.00
C658   C     0.48340   0.86420   0.22765   0.00000  Uiso   1.00
C659   C     0.46740   0.80307   0.27221   0.00000  Uiso   1.00
C660   C     0.53261   0.86355   0.22772   0.00000  Uiso   1.00
C661   C     0.63971   0.83185   0.33626   0.00000  Uiso   1.00
C662   C     0.36027   0.83366   0.16363   0.00000  Uiso   1.00
C663   C     0.62516   0.82688   0.38592   0.00000  Uiso   1.00
C664   C     0.37464   0.83471   0.11366   0.00000  Uiso   1.00
C665   C     0.63642   0.80242   0.45742   0.00000  Uiso   1.00
C666   C     0.36074   0.84786   0.04016   0.00000  Uiso   1.00
C667   C     0.65513   0.80994   0.41128   0.00000  Uiso   1.00
C668   C     0.34269   0.84381   0.08679   0.00000  Uiso   1.00
C669   C     0.57745   0.83578   0.40796   0.00000  Uiso   1.00
C670   C     0.42329   0.82829   0.09229   0.00000  Uiso   1.00
C671   C     0.55743   0.82586   0.45386   0.00000  Uiso   1.00
C672   C     0.44144   0.83076   0.04515   0.00000  Uiso   1.00
C673   C     0.58830   0.81017   0.47876   0.00000  Uiso   1.00
C674   C     0.40937   0.84173   0.01932   0.00000  Uiso   1.00
C675   C     0.50767   0.83085   0.47560   0.00000  Uiso   1.00
C676   C     0.49068   0.82362   0.02308   0.00000  Uiso   1.00
Cu677  Cu    0.38022   0.83334   0.25000   0.00000  Uiso   1.00
Cu678  Cu    0.61978   0.83333   0.25000   0.00000  Uiso   1.00
H679   H     0.44686   0.82253   0.11347   0.00000  Uiso   1.00
H680   H     0.55657   0.85078   0.38829   0.00000  Uiso   1.00
H681   H     0.65960   0.78953   0.47655   0.00000  Uiso   1.00
H682   H     0.33634   0.85598   0.02006   0.00000  Uiso   1.00
H683   H     0.51280   0.80016   0.08192   0.00000  Uiso   1.00
H684   H     0.48329   0.84466   0.41506   0.00000  Uiso   1.00
H685   H     0.61759   0.70385   0.31528   0.00000  Uiso   1.00
H686   H     0.38218   0.96303   0.18369   0.00000  Uiso   1.00
H687   H     0.44234   0.77931   0.29041   0.00000  Uiso   1.00
H688   H     0.55764   0.88739   0.20956   0.00000  Uiso   1.00
N689   N     0.45069   0.83334   0.24999   0.00000  Uiso   1.00
N690   N     0.54931   0.83332   0.25001   0.00000  Uiso   1.00
O691   O     0.37291   0.77322   0.25000   0.00000  Uiso   1.00
O692   O     0.62709   0.89345   0.25000   0.00000  Uiso   1.00
O693   O     0.62706   0.77321   0.25000   0.00000  Uiso   1.00
O694   O     0.37294   0.89346   0.24999   0.00000  Uiso   1.00
O695   O     0.35186   0.83334   0.31491   0.00000  Uiso   1.00
O696   O     0.64814   0.83332   0.18508   0.00000  Uiso   1.00
O697   O     0.60600   0.83333   0.31492   0.00000  Uiso   1.00
O698   O     0.39400   0.83333   0.18508   0.00000  Uiso   1.00
H699   H     0.59429   0.78945   0.04394   0.00000  Uiso   1.00
H700   H     0.40142   0.85454   0.45274   0.00000  Uiso   1.00
N701   N     0.62589   0.84962   0.10504   0.00000  Uiso   1.00
H702   H     0.60754   0.82796   0.12871   0.00000  Uiso   1.00
C703   C     0.61270   0.89220   0.11431   0.00000  Uiso   1.00
H704   H     0.62620   0.91202   0.08346   0.00000  Uiso   1.00
H705   H     0.62797   0.90420   0.14151   0.00000  Uiso   1.00
H706   H     0.57282   0.89389   0.12509   0.00000  Uiso   1.00
N707   N     0.37021   0.79885   0.39177   0.00000  Uiso   1.00
H708   H     0.39205   0.82071   0.37072   0.00000  Uiso   1.00
C709   C     0.37572   0.75657   0.37652   0.00000  Uiso   1.00
H710   H     0.35731   0.73445   0.40412   0.00000  Uiso   1.00
H711   H     0.41458   0.74944   0.36638   0.00000  Uiso   1.00
H712   H     0.36036   0.75232   0.34723   0.00000  Uiso   1.00
N713   N     0.61175   0.95510   0.32665   0.00000  Uiso   1.00
H714   H     0.58032   0.96923   0.34279   0.00000  Uiso   1.00
C715   C     0.63911   0.94281   0.35777   0.00000  Uiso   1.00
H716   H     0.65305   0.97072   0.37176   0.00000  Uiso   1.00
H717   H     0.33645   0.92358   0.34075   0.00000  Uiso   1.00
H718   H     0.61548   0.92409   0.38599   0.00000  Uiso   1.00
N719   N     0.38676   0.71199   0.17218   0.00000  Uiso   1.00
H720   H     0.38165   0.69972   0.14291   0.00000  Uiso   1.00
C721   C     0.43727   0.72033   0.16889   0.00000  Uiso   1.00
H722   H     0.45772   0.69147   0.16102   0.00000  Uiso   1.00
H723   H     0.44238   0.73308   0.20073   0.00000  Uiso   1.00
H724   H     0.45199   0.74351   0.14132   0.00000  Uiso   1.00
N725   N     0.53015   0.76959   0.29748   0.00000  Uiso   1.00
H726   H     0.55830   0.77483   0.31148   0.00000  Uiso   1.00
C727   C     0.52659   0.72810   0.28074   0.00000  Uiso   1.00
H728   H     0.53501   0.70501   0.30447   0.00000  Uiso   1.00
H729   H     0.55234   0.72512   0.24711   0.00000  Uiso   1.00
H730   H     0.48951   0.72071   0.27811   0.00000  Uiso   1.00
N731   N     0.46978   0.89718   0.20285   0.00000  Uiso   1.00
H732   H     0.44176   0.89195   0.18866   0.00000  Uiso   1.00
C733   C     0.47270   0.93833   0.22055   0.00000  Uiso   1.00
H734   H     0.46360   0.96160   0.19753   0.00000  Uiso   1.00
H735   H     0.50978   0.94603   0.22300   0.00000  Uiso   1.00
H736   H     0.44712   0.94051   0.25440   0.00000  Uiso   1.00
C737   C     0.99970   0.75422   0.24947   0.00000  Uiso   1.00
C738   C     0.66718   0.91250   0.24997   0.00000  Uiso   1.00
C739   C     0.85653   0.80853   0.04663   0.00000  Uiso   1.00
C740   C     0.80738   0.84137   0.45122   0.00000  Uiso   1.00
C741   C     0.90420   0.80167   0.02469   0.00000  Uiso   1.00
C742   C     0.75924   0.84649   0.47277   0.00000  Uiso   1.00
C743   C     0.97194   0.68749   0.28652   0.00000  Uiso   1.00
C744   C     0.69490   0.97932   0.21268   0.00000  Uiso   1.00
C745   C     0.97272   0.97766   0.28792   0.00000  Uiso   1.00
C746   C     0.69460   0.68921   0.21161   0.00000  Uiso   1.00
C747   C     0.66785   0.95714   0.25070   0.00000  Uiso   1.00
C748   C     0.99939   0.70963   0.24878   0.00000  Uiso   1.00
C749   C     0.84995   0.80240   0.27232   0.00000  Uiso   1.00
C750   C     0.81674   0.86420   0.22765   0.00000  Uiso   1.00
C751   C     0.80073   0.80307   0.27221   0.00000  Uiso   1.00
C752   C     0.86595   0.86355   0.22772   0.00000  Uiso   1.00
C753   C     0.97304   0.83185   0.33626   0.00000  Uiso   1.00
C754   C     0.69360   0.83366   0.16363   0.00000  Uiso   1.00
C755   C     0.95849   0.82688   0.38592   0.00000  Uiso   1.00
C756   C     0.70797   0.83471   0.11366   0.00000  Uiso   1.00
C757   C     0.96975   0.80242   0.45742   0.00000  Uiso   1.00
C758   C     0.69407   0.84786   0.04016   0.00000  Uiso   1.00
C759   C     0.98847   0.80994   0.41128   0.00000  Uiso   1.00
C760   C     0.67602   0.84381   0.08679   0.00000  Uiso   1.00
C761   C     0.91079   0.83578   0.40796   0.00000  Uiso   1.00
C762   C     0.75662   0.82829   0.09229   0.00000  Uiso   1.00
C763   C     0.89076   0.82586   0.45386   0.00000  Uiso   1.00
C764   C     0.77477   0.83076   0.04515   0.00000  Uiso   1.00
C765   C     0.92164   0.81017   0.47876   0.00000  Uiso   1.00
C766   C     0.74270   0.84173   0.01932   0.00000  Uiso   1.00
C767   C     0.84101   0.83085   0.47560   0.00000  Uiso   1.00
C768   C     0.82401   0.82362   0.02308   0.00000  Uiso   1.00
Cu769  Cu    0.71355   0.83334   0.25000   0.00000  Uiso   1.00
Cu770  Cu    0.95311   0.83333   0.25000   0.00000  Uiso   1.00
H771   H     0.78020   0.82253   0.11347   0.00000  Uiso   1.00
H772   H     0.88991   0.85078   0.38829   0.00000  Uiso   1.00
H773   H     0.99294   0.78953   0.47655   0.00000  Uiso   1.00
H774   H     0.66967   0.85598   0.02006   0.00000  Uiso   1.00
H775   H     0.84613   0.80016   0.08192   0.00000  Uiso   1.00
H776   H     0.81662   0.84466   0.41506   0.00000  Uiso   1.00
H777   H     0.95092   0.70385   0.31528   0.00000  Uiso   1.00
H778   H     0.71551   0.96303   0.18369   0.00000  Uiso   1.00
H779   H     0.77567   0.77931   0.29041   0.00000  Uiso   1.00
H780   H     0.89097   0.88739   0.20956   0.00000  Uiso   1.00
N781   N     0.78403   0.83334   0.24999   0.00000  Uiso   1.00
N782   N     0.88264   0.83332   0.25001   0.00000  Uiso   1.00
O783   O     0.70625   0.77322   0.25000   0.00000  Uiso   1.00
O784   O     0.96042   0.89345   0.25000   0.00000  Uiso   1.00
O785   O     0.96039   0.77321   0.25000   0.00000  Uiso   1.00
O786   O     0.70628   0.89346   0.24999   0.00000  Uiso   1.00
O787   O     0.68519   0.83334   0.31491   0.00000  Uiso   1.00
O788   O     0.98148   0.83332   0.18508   0.00000  Uiso   1.00
O789   O     0.93933   0.83333   0.31492   0.00000  Uiso   1.00
O790   O     0.72733   0.83333   0.18508   0.00000  Uiso   1.00
H791   H     0.92762   0.78945   0.04394   0.00000  Uiso   1.00
H792   H     0.73475   0.85454   0.45274   0.00000  Uiso   1.00
N793   N     0.95922   0.84962   0.10504   0.00000  Uiso   1.00
H794   H     0.94088   0.82796   0.12871   0.00000  Uiso   1.00
C795   C     0.94603   0.89220   0.11431   0.00000  Uiso   1.00
H796   H     0.95954   0.91202   0.08346   0.00000  Uiso   1.00
H797   H     0.96130   0.90420   0.14151   0.00000  Uiso   1.00
H798   H     0.90615   0.89389   0.12509   0.00000  Uiso   1.00
N799   N     0.70354   0.79885   0.39177   0.00000  Uiso   1.00
H800   H     0.72538   0.82071   0.37072   0.00000  Uiso   1.00
C801   C     0.70906   0.75657   0.37652   0.00000  Uiso   1.00
H802   H     0.69064   0.73445   0.40412   0.00000  Uiso   1.00
H803   H     0.74792   0.74944   0.36638   0.00000  Uiso   1.00
H804   H     0.69369   0.75232   0.34723   0.00000  Uiso   1.00
N805   N     0.94508   0.95510   0.32665   0.00000  Uiso   1.00
H806   H     0.91365   0.96923   0.34279   0.00000  Uiso   1.00
C807   C     0.97244   0.94281   0.35777   0.00000  Uiso   1.00
H808   H     0.98638   0.97072   0.37176   0.00000  Uiso   1.00
H809   H     0.66978   0.92358   0.34075   0.00000  Uiso   1.00
H810   H     0.94881   0.92409   0.38599   0.00000  Uiso   1.00
N811   N     0.72009   0.71199   0.17218   0.00000  Uiso   1.00
H812   H     0.71498   0.69972   0.14291   0.00000  Uiso   1.00
C813   C     0.77060   0.72033   0.16889   0.00000  Uiso   1.00
H814   H     0.79106   0.69147   0.16102   0.00000  Uiso   1.00
H815   H     0.77572   0.73308   0.20073   0.00000  Uiso   1.00
H816   H     0.78532   0.74351   0.14132   0.00000  Uiso   1.00
N817   N     0.86348   0.76959   0.29748   0.00000  Uiso   1.00
H818   H     0.89164   0.77483   0.31148   0.00000  Uiso   1.00
C819   C     0.85992   0.72810   0.28074   0.00000  Uiso   1.00
H820   H     0.86835   0.70501   0.30447   0.00000  Uiso   1.00
H821   H     0.88568   0.72512   0.24711   0.00000  Uiso   1.00
H822   H     0.82285   0.72071   0.27811   0.00000  Uiso   1.00
N823   N     0.80311   0.89718   0.20285   0.00000  Uiso   1.00
H824   H     0.77509   0.89195   0.18866   0.00000  Uiso   1.00
C825   C     0.80604   0.93833   0.22055   0.00000  Uiso   1.00
H826   H     0.79693   0.96160   0.19753   0.00000  Uiso   1.00
H827   H     0.84311   0.94603   0.22300   0.00000  Uiso   1.00
H828   H     0.78045   0.94051   0.25440   0.00000  Uiso   1.00
C829   C     0.33303   0.08755   0.74947   0.00000  Uiso   1.00
C830   C     0.00051   0.24583   0.74997   0.00000  Uiso   1.00
C831   C     0.18986   0.14187   0.54663   0.00000  Uiso   1.00
C832   C     0.14072   0.17470   0.95122   0.00000  Uiso   1.00
C833   C     0.23753   0.13500   0.52469   0.00000  Uiso   1.00
C834   C     0.09257   0.17983   0.97277   0.00000  Uiso   1.00
C835   C     0.30527   0.02082   0.78652   0.00000  Uiso   1.00
C836   C     0.02823   0.31266   0.71268   0.00000  Uiso   1.00
C837   C     0.30605   0.31100   0.78792   0.00000  Uiso   1.00
C838   C     0.02794   0.02254   0.71161   0.00000  Uiso   1.00
C839   C     0.00118   0.29048   0.75070   0.00000  Uiso   1.00
C840   C     0.33272   0.04297   0.74878   0.00000  Uiso   1.00
C841   C     0.18328   0.13573   0.77232   0.00000  Uiso   1.00
C842   C     0.15007   0.19753   0.72765   0.00000  Uiso   1.00
C843   C     0.13407   0.13640   0.77221   0.00000  Uiso   1.00
C844   C     0.19928   0.19689   0.72772   0.00000  Uiso   1.00
C845   C     0.30638   0.16518   0.83626   0.00000  Uiso   1.00
C846   C     0.02694   0.16700   0.66363   0.00000  Uiso   1.00
C847   C     0.29183   0.16021   0.88592   0.00000  Uiso   1.00
C848   C     0.04130   0.16804   0.61366   0.00000  Uiso   1.00
C849   C     0.30309   0.13575   0.95742   0.00000  Uiso   1.00
C850   C     0.02741   0.18119   0.54016   0.00000  Uiso   1.00
C851   C     0.32180   0.14328   0.91128   0.00000  Uiso   1.00
C852   C     0.00935   0.17715   0.58679   0.00000  Uiso   1.00
C853   C     0.24412   0.16912   0.90796   0.00000  Uiso   1.00
C854   C     0.08996   0.16163   0.59229   0.00000  Uiso   1.00
C855   C     0.22410   0.15919   0.95386   0.00000  Uiso   1.00
C856   C     0.10810   0.16410   0.54515   0.00000  Uiso   1.00
C857   C     0.25497   0.14350   0.97876   0.00000  Uiso   1.00
C858   C     0.07603   0.17506   0.51932   0.00000  Uiso   1.00
C859   C     0.17434   0.16419   0.97560   0.00000  Uiso   1.00
C860   C     0.15735   0.15696   0.52308   0.00000  Uiso   1.00
Cu861  Cu    0.04689   0.16667   0.75000   0.00000  Uiso   1.00
Cu862  Cu    0.28645   0.16666   0.75000   0.00000  Uiso   1.00
H863   H     0.11353   0.15586   0.61347   0.00000  Uiso   1.00
H864   H     0.22324   0.18411   0.88829   0.00000  Uiso   1.00
H865   H     0.32627   0.12286   0.97655   0.00000  Uiso   1.00
H866   H     0.00300   0.18931   0.52006   0.00000  Uiso   1.00
H867   H     0.17947   0.13349   0.58192   0.00000  Uiso   1.00
H868   H     0.14995   0.17800   0.91506   0.00000  Uiso   1.00
H869   H     0.28426   0.03718   0.81528   0.00000  Uiso   1.00
H870   H     0.04884   0.29636   0.68369   0.00000  Uiso   1.00
H871   H     0.10900   0.11264   0.79041   0.00000  Uiso   1.00
H872   H     0.22430   0.22072   0.70956   0.00000  Uiso   1.00
N873   N     0.11736   0.16668   0.74999   0.00000  Uiso   1.00
N874   N     0.21597   0.16666   0.75001   0.00000  Uiso   1.00
O875   O     0.03958   0.10655   0.75000   0.00000  Uiso   1.00
O876   O     0.29375   0.22678   0.75000   0.00000  Uiso   1.00
O877   O     0.29372   0.10654   0.75000   0.00000  Uiso   1.00
O878   O     0.03961   0.22679   0.74999   0.00000  Uiso   1.00
O879   O     0.01852   0.16668   0.81491   0.00000  Uiso   1.00
O880   O     0.31481   0.16666   0.68508   0.00000  Uiso   1.00
O881   O     0.27267   0.16667   0.81492   0.00000  Uiso   1.00
O882   O     0.06067   0.16667   0.68508   0.00000  Uiso   1.00
H883   H     0.26096   0.12278   0.54394   0.00000  Uiso   1.00
H884   H     0.06808   0.18787   0.95274   0.00000  Uiso   1.00
N885   N     0.29255   0.18295   0.60504   0.00000  Uiso   1.00
H886   H     0.27421   0.16129   0.62871   0.00000  Uiso   1.00
C887   C     0.27936   0.22553   0.61431   0.00000  Uiso   1.00
H888   H     0.29287   0.24535   0.58346   0.00000  Uiso   1.00
H889   H     0.29463   0.23754   0.64151   0.00000  Uiso   1.00
H890   H     0.23948   0.22722   0.62509   0.00000  Uiso   1.00
N891   N     0.03687   0.13218   0.89177   0.00000  Uiso   1.00
H892   H     0.05871   0.15404   0.87072   0.00000  Uiso   1.00
C893   C     0.04239   0.08990   0.87652   0.00000  Uiso   1.00
H894   H     0.02397   0.06779   0.90412   0.00000  Uiso   1.00
H895   H     0.08125   0.08277   0.86638   0.00000  Uiso   1.00
H896   H     0.02703   0.08565   0.84723   0.00000  Uiso   1.00
N897   N     0.27842   0.28843   0.82665   0.00000  Uiso   1.00
H898   H     0.24698   0.30257   0.84279   0.00000  Uiso   1.00
C899   C     0.30577   0.27614   0.85777   0.00000  Uiso   1.00
H900   H     0.31972   0.30405   0.87176   0.00000  Uiso   1.00
H901   H     0.00311   0.25691   0.84075   0.00000  Uiso   1.00
H902   H     0.28215   0.25743   0.88599   0.00000  Uiso   1.00
N903   N     0.05343   0.04532   0.67218   0.00000  Uiso   1.00
H904   H     0.04832   0.03305   0.64291   0.00000  Uiso   1.00
C905   C     0.10393   0.05367   0.66889   0.00000  Uiso   1.00
H906   H     0.12439   0.02481   0.66102   0.00000  Uiso   1.00
H907   H     0.10905   0.06641   0.70073   0.00000  Uiso   1.00
H908   H     0.11865   0.07684   0.64132   0.00000  Uiso   1.00
N909   N     0.19682   0.10292   0.79748   0.00000  Uiso   1.00
H910   H     0.22497   0.10816   0.81148   0.00000  Uiso   1.00
C911   C     0.19325   0.06143   0.78074   0.00000  Uiso   1.00
H912   H     0.20168   0.03835   0.80447   0.00000  Uiso   1.00
H913   H     0.21901   0.05846   0.74711   0.00000  Uiso   1.00
H914   H     0.15618   0.05404   0.77811   0.00000  Uiso   1.00
N915   N     0.13645   0.23052   0.70285   0.00000  Uiso   1.00
H916   H     0.10843   0.22529   0.68866   0.00000  Uiso   1.00
C917   C     0.13937   0.27166   0.72055   0.00000  Uiso   1.00
H918   H     0.13026   0.29493   0.69753   0.00000  Uiso   1.00
H919   H     0.17645   0.27936   0.72300   0.00000  Uiso   1.00
H920   H     0.11379   0.27384   0.75440   0.00000  Uiso   1.00
C921   C     0.66636   0.08755   0.74947   0.00000  Uiso   1.00
C922   C     0.33385   0.24583   0.74997   0.00000  Uiso   1.00
C923   C     0.52320   0.14187   0.54663   0.00000  Uiso   1.00
C924   C     0.47405   0.17470   0.95122   0.00000  Uiso   1.00
C925   C     0.57086   0.13500   0.52469   0.00000  Uiso   1.00
C926   C     0.42591   0.17983   0.97277   0.00000  Uiso   1.00
C927   C     0.63860   0.02082   0.78652   0.00000  Uiso   1.00
C928   C     0.36156   0.31266   0.71268   0.00000  Uiso   1.00
C929   C     0.63939   0.31100   0.78792   0.00000  Uiso   1.00
C930   C     0.36127   0.02254   0.71161   0.00000  Uiso   1.00
C931   C     0.33451   0.29048   0.75070   0.00000  Uiso   1.00
C932   C     0.66605   0.04297   0.74878   0.00000  Uiso   1.00
C933   C     0.51662   0.13573   0.77232   0.00000  Uiso   1.00
C934   C     0.48340   0.19753   0.72765   0.00000  Uiso   1.00
C935   C     0.46740   0.13640   0.77221   0.00000  Uiso   1.00
C936   C     0.53261   0.19689   0.72772   0.00000  Uiso   1.00
C937   C     0.63971   0.16518   0.83626   0.00000  Uiso   1.00
C938   C     0.36027   0.16700   0.66363   0.00000  Uiso   1.00
C939   C     0.62516   0.16021   0.88592   0.00000  Uiso   1.00
C940   C     0.37464   0.16804   0.61366   0.00000  Uiso   1.00
C941   C     0.63642   0.13575   0.95742   0.00000  Uiso   1.00
C942   C     0.36074   0.18119   0.54016   0.00000  Uiso   1.00
C943   C     0.65513   0.14328   0.91128   0.00000  Uiso   1.00
C944   C     0.34269   0.17715   0.58679   0.00000  Uiso   1.00
C945   C     0.57745   0.16912   0.90796   0.00000  Uiso   1.00
C946   C     0.42329   0.16163   0.59229   0.00000  Uiso   1.00
C947   C     0.55743   0.15919   0.95386   0.00000  Uiso   1.00
C948   C     0.44144   0.16410   0.54515   0.00000  Uiso   1.00
C949   C     0.58830   0.14350   0.97876   0.00000  Uiso   1.00
C950   C     0.40937   0.17506   0.51932   0.00000  Uiso   1.00
C951   C     0.50767   0.16419   0.97560   0.00000  Uiso   1.00
C952   C     0.49068   0.15696   0.52308   0.00000  Uiso   1.00
Cu953  Cu    0.38022   0.16667   0.75000   0.00000  Uiso   1.00
Cu954  Cu    0.61978   0.16666   0.75000   0.00000  Uiso   1.00
H955   H     0.44686   0.15586   0.61347   0.00000  Uiso   1.00
H956   H     0.55657   0.18411   0.88829   0.00000  Uiso   1.00
H957   H     0.65960   0.12286   0.97655   0.00000  Uiso   1.00
H958   H     0.33634   0.18931   0.52006   0.00000  Uiso   1.00
H959   H     0.51280   0.13349   0.58192   0.00000  Uiso   1.00
H960   H     0.48329   0.17800   0.91506   0.00000  Uiso   1.00
H961   H     0.61759   0.03718   0.81528   0.00000  Uiso   1.00
H962   H     0.38218   0.29636   0.68369   0.00000  Uiso   1.00
H963   H     0.44234   0.11264   0.79041   0.00000  Uiso   1.00
H964   H     0.55764   0.22072   0.70956   0.00000  Uiso   1.00
N965   N     0.45069   0.16668   0.74999   0.00000  Uiso   1.00
N966   N     0.54931   0.16666   0.75001   0.00000  Uiso   1.00
O967   O     0.37291   0.10655   0.75000   0.00000  Uiso   1.00
O968   O     0.62709   0.22678   0.75000   0.00000  Uiso   1.00
O969   O     0.62706   0.10654   0.75000   0.00000  Uiso   1.00
O970   O     0.37294   0.22679   0.74999   0.00000  Uiso   1.00
O971   O     0.35186   0.16668   0.81491   0.00000  Uiso   1.00
O972   O     0.64814   0.16666   0.68508   0.00000  Uiso   1.00
O973   O     0.60600   0.16667   0.81492   0.00000  Uiso   1.00
O974   O     0.39400   0.16667   0.68508   0.00000  Uiso   1.00
H975   H     0.59429   0.12278   0.54394   0.00000  Uiso   1.00
H976   H     0.40142   0.18787   0.95274   0.00000  Uiso   1.00
N977   N     0.62589   0.18295   0.60504   0.00000  Uiso   1.00
H978   H     0.60754   0.16129   0.62871   0.00000  Uiso   1.00
C979   C     0.61270   0.22553   0.61431   0.00000  Uiso   1.00
H980   H     0.62620   0.24535   0.58346   0.00000  Uiso   1.00
H981   H     0.62797   0.23754   0.64151   0.00000  Uiso   1.00
H982   H     0.57282   0.22722   0.62509   0.00000  Uiso   1.00
N983   N     0.37021   0.13218   0.89177   0.00000  Uiso   1.00
H984   H     0.39205   0.15404   0.87072   0.00000  Uiso   1.00
C985   C     0.37572   0.08990   0.87652   0.00000  Uiso   1.00
H986   H     0.35731   0.06779   0.90412   0.00000  Uiso   1.00
H987   H     0.41458   0.08277   0.86638   0.00000  Uiso   1.00
H988   H     0.36036   0.08565   0.84723   0.00000  Uiso   1.00
N989   N     0.61175   0.28843   0.82665   0.00000  Uiso   1.00
H990   H     0.58032   0.30257   0.84279   0.00000  Uiso   1.00
C991   C     0.63911   0.27614   0.85777   0.00000  Uiso   1.00
H992   H     0.65305   0.30405   0.87176   0.00000  Uiso   1.00
H993   H     0.33645   0.25691   0.84075   0.00000  Uiso   1.00
H994   H     0.61548   0.25743   0.88599   0.00000  Uiso   1.00
N995   N     0.38676   0.04532   0.67218   0.00000  Uiso   1.00
H996   H     0.38165   0.03305   0.64291   0.00000  Uiso   1.00
C997   C     0.43727   0.05367   0.66889   0.00000  Uiso   1.00
H998   H     0.45772   0.02481   0.66102   0.00000  Uiso   1.00
H999   H     0.44238   0.06641   0.70073   0.00000  Uiso   1.00
H1000  H     0.45199   0.07684   0.64132   0.00000  Uiso   1.00
N1001  N     0.53015   0.10292   0.79748   0.00000  Uiso   1.00
H1002  H     0.55830   0.10816   0.81148   0.00000  Uiso   1.00
C1003  C     0.52659   0.06143   0.78074   0.00000  Uiso   1.00
H1004  H     0.53501   0.03835   0.80447   0.00000  Uiso   1.00
H1005  H     0.55234   0.05846   0.74711   0.00000  Uiso   1.00
H1006  H     0.48951   0.05404   0.77811   0.00000  Uiso   1.00
N1007  N     0.46978   0.23052   0.70285   0.00000  Uiso   1.00
H1008  H     0.44176   0.22529   0.68866   0.00000  Uiso   1.00
C1009  C     0.47270   0.27166   0.72055   0.00000  Uiso   1.00
H1010  H     0.46360   0.29493   0.69753   0.00000  Uiso   1.00
H1011  H     0.50978   0.27936   0.72300   0.00000  Uiso   1.00
H1012  H     0.44712   0.27384   0.75440   0.00000  Uiso   1.00
C1013  C     0.99970   0.08755   0.74947   0.00000  Uiso   1.00
C1014  C     0.66718   0.24583   0.74997   0.00000  Uiso   1.00
C1015  C     0.85653   0.14187   0.54663   0.00000  Uiso   1.00
C1016  C     0.80738   0.17470   0.95122   0.00000  Uiso   1.00
C1017  C     0.90420   0.13500   0.52469   0.00000  Uiso   1.00
C1018  C     0.75924   0.17983   0.97277   0.00000  Uiso   1.00
C1019  C     0.97194   0.02082   0.78652   0.00000  Uiso   1.00
C1020  C     0.69490   0.31266   0.71268   0.00000  Uiso   1.00
C1021  C     0.97272   0.31100   0.78792   0.00000  Uiso   1.00
C1022  C     0.69460   0.02254   0.71161   0.00000  Uiso   1.00
C1023  C     0.66785   0.29048   0.75070   0.00000  Uiso   1.00
C1024  C     0.99939   0.04297   0.74878   0.00000  Uiso   1.00
C1025  C     0.84995   0.13573   0.77232   0.00000  Uiso   1.00
C1026  C     0.81674   0.19753   0.72765   0.00000  Uiso   1.00
C1027  C     0.80073   0.13640   0.77221   0.00000  Uiso   1.00
C1028  C     0.86595   0.19689   0.72772   0.00000  Uiso   1.00
C1029  C     0.97304   0.16518   0.83626   0.00000  Uiso   1.00
C1030  C     0.69360   0.16700   0.66363   0.00000  Uiso   1.00
C1031  C     0.95849   0.16021   0.88592   0.00000  Uiso   1.00
C1032  C     0.70797   0.16804   0.61366   0.00000  Uiso   1.00
C1033  C     0.96975   0.13575   0.95742   0.00000  Uiso   1.00
C1034  C     0.69407   0.18119   0.54016   0.00000  Uiso   1.00
C1035  C     0.98847   0.14328   0.91128   0.00000  Uiso   1.00
C1036  C     0.67602   0.17715   0.58679   0.00000  Uiso   1.00
C1037  C     0.91079   0.16912   0.90796   0.00000  Uiso   1.00
C1038  C     0.75662   0.16163   0.59229   0.00000  Uiso   1.00
C1039  C     0.89076   0.15919   0.95386   0.00000  Uiso   1.00
C1040  C     0.77477   0.16410   0.54515   0.00000  Uiso   1.00
C1041  C     0.92164   0.14350   0.97876   0.00000  Uiso   1.00
C1042  C     0.74270   0.17506   0.51932   0.00000  Uiso   1.00
C1043  C     0.84101   0.16419   0.97560   0.00000  Uiso   1.00
C1044  C     0.82401   0.15696   0.52308   0.00000  Uiso   1.00
Cu1045 Cu    0.71355   0.16667   0.75000   0.00000  Uiso   1.00
Cu1046 Cu    0.95311   0.16666   0.75000   0.00000  Uiso   1.00
H1047  H     0.78020   0.15586   0.61347   0.00000  Uiso   1.00
H1048  H     0.88991   0.18411   0.88829   0.00000  Uiso   1.00
H1049  H     0.99294   0.12286   0.97655   0.00000  Uiso   1.00
H1050  H     0.66967   0.18931   0.52006   0.00000  Uiso   1.00
H1051  H     0.84613   0.13349   0.58192   0.00000  Uiso   1.00
H1052  H     0.81662   0.17800   0.91506   0.00000  Uiso   1.00
H1053  H     0.95092   0.03718   0.81528   0.00000  Uiso   1.00
H1054  H     0.71551   0.29636   0.68369   0.00000  Uiso   1.00
H1055  H     0.77567   0.11264   0.79041   0.00000  Uiso   1.00
H1056  H     0.89097   0.22072   0.70956   0.00000  Uiso   1.00
N1057  N     0.78403   0.16668   0.74999   0.00000  Uiso   1.00
N1058  N     0.88264   0.16666   0.75001   0.00000  Uiso   1.00
O1059  O     0.70625   0.10655   0.75000   0.00000  Uiso   1.00
O1060  O     0.96042   0.22678   0.75000   0.00000  Uiso   1.00
O1061  O     0.96039   0.10654   0.75000   0.00000  Uiso   1.00
O1062  O     0.70628   0.22679   0.74999   0.00000  Uiso   1.00
O1063  O     0.68519   0.16668   0.81491   0.00000  Uiso   1.00
O1064  O     0.98148   0.16666   0.68508   0.00000  Uiso   1.00
O1065  O     0.93933   0.16667   0.81492   0.00000  Uiso   1.00
O1066  O     0.72733   0.16667   0.68508   0.00000  Uiso   1.00
H1067  H     0.92762   0.12278   0.54394   0.00000  Uiso   1.00
H1068  H     0.73475   0.18787   0.95274   0.00000  Uiso   1.00
N1069  N     0.95922   0.18295   0.60504   0.00000  Uiso   1.00
H1070  H     0.94088   0.16129   0.62871   0.00000  Uiso   1.00
C1071  C     0.94603   0.22553   0.61431   0.00000  Uiso   1.00
H1072  H     0.95954   0.24535   0.58346   0.00000  Uiso   1.00
H1073  H     0.96130   0.23754   0.64151   0.00000  Uiso   1.00
H1074  H     0.90615   0.22722   0.62509   0.00000  Uiso   1.00
N1075  N     0.70354   0.13218   0.89177   0.00000  Uiso   1.00
H1076  H     0.72538   0.15404   0.87072   0.00000  Uiso   1.00
C1077  C     0.70906   0.08990   0.87652   0.00000  Uiso   1.00
H1078  H     0.69064   0.06779   0.90412   0.00000  Uiso   1.00
H1079  H     0.74792   0.08277   0.86638   0.00000  Uiso   1.00
H1080  H     0.69369   0.08565   0.84723   0.00000  Uiso   1.00
N1081  N     0.94508   0.28843   0.82665   0.00000  Uiso   1.00
H1082  H     0.91365   0.30257   0.84279   0.00000  Uiso   1.00
C1083  C     0.97244   0.27614   0.85777   0.00000  Uiso   1.00
H1084  H     0.98638   0.30405   0.87176   0.00000  Uiso   1.00
H1085  H     0.66978   0.25691   0.84075   0.00000  Uiso   1.00
H1086  H     0.94881   0.25743   0.88599   0.00000  Uiso   1.00
N1087  N     0.72009   0.04532   0.67218   0.00000  Uiso   1.00
H1088  H     0.71498   0.03305   0.64291   0.00000  Uiso   1.00
C1089  C     0.77060   0.05367   0.66889   0.00000  Uiso   1.00
H1090  H     0.79106   0.02481   0.66102   0.00000  Uiso   1.00
H1091  H     0.77572   0.06641   0.70073   0.00000  Uiso   1.00
H1092  H     0.78532   0.07684   0.64132   0.00000  Uiso   1.00
N1093  N     0.86348   0.10292   0.79748   0.00000  Uiso   1.00
H1094  H     0.89164   0.10816   0.81148   0.00000  Uiso   1.00
C1095  C     0.85992   0.06143   0.78074   0.00000  Uiso   1.00
H1096  H     0.86835   0.03835   0.80447   0.00000  Uiso   1.00
H1097  H     0.88568   0.05846   0.74711   0.00000  Uiso   1.00
H1098  H     0.82285   0.05404   0.77811   0.00000  Uiso   1.00
N1099  N     0.80311   0.23052   0.70285   0.00000  Uiso   1.00
H1100  H     0.77509   0.22529   0.68866   0.00000  Uiso   1.00
C1101  C     0.80604   0.27166   0.72055   0.00000  Uiso   1.00
H1102  H     0.79693   0.29493   0.69753   0.00000  Uiso   1.00
H1103  H     0.84311   0.27936   0.72300   0.00000  Uiso   1.00
H1104  H     0.78045   0.27384   0.75440   0.00000  Uiso   1.00
C1105  C     0.33303   0.42088   0.74947   0.00000  Uiso   1.00
C1106  C     0.00051   0.57916   0.74997   0.00000  Uiso   1.00
C1107  C     0.18986   0.47520   0.54663   0.00000  Uiso   1.00
C1108  C     0.14072   0.50804   0.95122   0.00000  Uiso   1.00
C1109  C     0.23753   0.46834   0.52469   0.00000  Uiso   1.00
C1110  C     0.09257   0.51316   0.97277   0.00000  Uiso   1.00
C1111  C     0.30527   0.35415   0.78652   0.00000  Uiso   1.00
C1112  C     0.02823   0.64599   0.71268   0.00000  Uiso   1.00
C1113  C     0.30605   0.64433   0.78792   0.00000  Uiso   1.00
C1114  C     0.02794   0.35587   0.71161   0.00000  Uiso   1.00
C1115  C     0.00118   0.62381   0.75070   0.00000  Uiso   1.00
C1116  C     0.33272   0.37630   0.74878   0.00000  Uiso   1.00
C1117  C     0.18328   0.46906   0.77232   0.00000  Uiso   1.00
C1118  C     0.15007   0.53087   0.72765   0.00000  Uiso   1.00
C1119  C     0.13407   0.46973   0.77221   0.00000  Uiso   1.00
C1120  C     0.19928   0.53022   0.72772   0.00000  Uiso   1.00
C1121  C     0.30638   0.49852   0.83626   0.00000  Uiso   1.00
C1122  C     0.02694   0.50033   0.66363   0.00000  Uiso   1.00
C1123  C     0.29183   0.49355   0.88592   0.00000  Uiso   1.00
C1124  C     0.04130   0.50137   0.61366   0.00000  Uiso   1.00
C1125  C     0.30309   0.46908   0.95742   0.00000  Uiso   1.00
C1126  C     0.02741   0.51453   0.54016   0.00000  Uiso   1.00
C1127  C     0.32180   0.47661   0.91128   0.00000  Uiso   1.00
C1128  C     0.00935   0.51048   0.58679   0.00000  Uiso   1.00
C1129  C     0.24412   0.50245   0.90796   0.00000  Uiso   1.00
C1130  C     0.08996   0.49496   0.59229   0.00000  Uiso   1.00
C1131  C     0.22410   0.49253   0.95386   0.00000  Uiso   1.00
C1132  C     0.10810   0.49743   0.54515   0.00000  Uiso   1.00
C1133  C     0.25497   0.47683   0.97876   0.00000  Uiso   1.00
C1134  C     0.07603   0.50840   0.51932   0.00000  Uiso   1.00
C1135  C     0.17434   0.49752   0.97560   0.00000  Uiso   1.00
C1136  C     0.15735   0.49029   0.52308   0.00000  Uiso   1.00
Cu1137 Cu    0.04689   0.50001   0.75000   0.00000  Uiso   1.00
Cu1138 Cu    0.28645   0.49999   0.75000   0.00000  Uiso   1.00
H1139  H     0.11353   0.48920   0.61347   0.00000  Uiso   1.00
H1140  H     0.22324   0.51744   0.88829   0.00000  Uiso   1.00
H1141  H     0.32627   0.45620   0.97655   0.00000  Uiso   1.00
H1142  H     0.00300   0.52264   0.52006   0.00000  Uiso   1.00
H1143  H     0.17947   0.46683   0.58192   0.00000  Uiso   1.00
H1144  H     0.14995   0.51133   0.91506   0.00000  Uiso   1.00
H1145  H     0.28426   0.37051   0.81528   0.00000  Uiso   1.00
H1146  H     0.04884   0.62969   0.68369   0.00000  Uiso   1.00
H1147  H     0.10900   0.44598   0.79041   0.00000  Uiso   1.00
H1148  H     0.22430   0.55406   0.70956   0.00000  Uiso   1.00
N1149  N     0.11736   0.50001   0.74999   0.00000  Uiso   1.00
N1150  N     0.21597   0.49999   0.75001   0.00000  Uiso   1.00
O1151  O     0.03958   0.43989   0.75000   0.00000  Uiso   1.00
O1152  O     0.29375   0.56011   0.75000   0.00000  Uiso   1.00
O1153  O     0.29372   0.43988   0.75000   0.00000  Uiso   1.00
O1154  O     0.03961   0.56012   0.74999   0.00000  Uiso   1.00
O1155  O     0.01852   0.50001   0.81491   0.00000  Uiso   1.00
O1156  O     0.31481   0.49999   0.68508   0.00000  Uiso   1.00
O1157  O     0.27267   0.50000   0.81492   0.00000  Uiso   1.00
O1158  O     0.06067   0.50000   0.68508   0.00000  Uiso   1.00
H1159  H     0.26096   0.45611   0.54394   0.00000  Uiso   1.00
H1160  H     0.06808   0.52121   0.95274   0.00000  Uiso   1.00
N1161  N     0.29255   0.51629   0.60504   0.00000  Uiso   1.00
H1162  H     0.27421   0.49462   0.62871   0.00000  Uiso   1.00
C1163  C     0.27936   0.55887   0.61431   0.00000  Uiso   1.00
H1164  H     0.29287   0.57868   0.58346   0.00000  Uiso   1.00
H1165  H     0.29463   0.57087   0.64151   0.00000  Uiso   1.00
H1166  H     0.23948   0.56056   0.62509   0.00000  Uiso   1.00
N1167  N     0.03687   0.46551   0.89177   0.00000  Uiso   1.00
H1168  H     0.05871   0.48738   0.87072   0.00000  Uiso   1.00
C1169  C     0.04239   0.42323   0.87652   0.00000  Uiso   1.00
H1170  H     0.02397   0.40112   0.90412   0.00000  Uiso   1.00
H1171  H     0.08125   0.41610   0.86638   0.00000  Uiso   1.00
H1172  H     0.02703   0.41898   0.84723   0.00000  Uiso   1.00
N1173  N     0.27842   0.62176   0.82665   0.00000  Uiso   1.00
H1174  H     0.24698   0.63590   0.84279   0.00000  Uiso   1.00
C1175  C     0.30577   0.60947   0.85777   0.00000  Uiso   1.00
H1176  H     0.31972   0.63739   0.87176   0.00000  Uiso   1.00
H1177  H     0.00311   0.59024   0.84075   0.00000  Uiso   1.00
H1178  H     0.28215   0.59076   0.88599   0.00000  Uiso   1.00
N1179  N     0.05343   0.37866   0.67218   0.00000  Uiso   1.00
H1180  H     0.04832   0.36638   0.64291   0.00000  Uiso   1.00
C1181  C     0.10393   0.38700   0.66889   0.00000  Uiso   1.00
H1182  H     0.12439   0.35814   0.66102   0.00000  Uiso   1.00
H1183  H     0.10905   0.39975   0.70073   0.00000  Uiso   1.00
H1184  H     0.11865   0.41018   0.64132   0.00000  Uiso   1.00
N1185  N     0.19682   0.43625   0.79748   0.00000  Uiso   1.00
H1186  H     0.22497   0.44150   0.81148   0.00000  Uiso   1.00
C1187  C     0.19325   0.39477   0.78074   0.00000  Uiso   1.00
H1188  H     0.20168   0.37168   0.80447   0.00000  Uiso   1.00
H1189  H     0.21901   0.39179   0.74711   0.00000  Uiso   1.00
H1190  H     0.15618   0.38738   0.77811   0.00000  Uiso   1.00
N1191  N     0.13645   0.56385   0.70285   0.00000  Uiso   1.00
H1192  H     0.10843   0.55862   0.68866   0.00000  Uiso   1.00
C1193  C     0.13937   0.60500   0.72055   0.00000  Uiso   1.00
H1194  H     0.13026   0.62826   0.69753   0.00000  Uiso   1.00
H1195  H     0.17645   0.61269   0.72300   0.00000  Uiso   1.00
H1196  H     0.11379   0.60717   0.75440   0.00000  Uiso   1.00
C1197  C     0.66636   0.42088   0.74947   0.00000  Uiso   1.00
C1198  C     0.33385   0.57916   0.74997   0.00000  Uiso   1.00
C1199  C     0.52320   0.47520   0.54663   0.00000  Uiso   1.00
C1200  C     0.47405   0.50804   0.95122   0.00000  Uiso   1.00
C1201  C     0.57086   0.46834   0.52469   0.00000  Uiso   1.00
C1202  C     0.42591   0.51316   0.97277   0.00000  Uiso   1.00
C1203  C     0.63860   0.35415   0.78652   0.00000  Uiso   1.00
C1204  C     0.36156   0.64599   0.71268   0.00000  Uiso   1.00
C1205  C     0.63939   0.64433   0.78792   0.00000  Uiso   1.00
C1206  C     0.36127   0.35587   0.71161   0.00000  Uiso   1.00
C1207  C     0.33451   0.62381   0.75070   0.00000  Uiso   1.00
C1208  C     0.66605   0.37630   0.74878   0.00000  Uiso   1.00
C1209  C     0.51662   0.46906   0.77232   0.00000  Uiso   1.00
C1210  C     0.48340   0.53087   0.72765   0.00000  Uiso   1.00
C1211  C     0.46740   0.46973   0.77221   0.00000  Uiso   1.00
C1212  C     0.53261   0.53022   0.72772   0.00000  Uiso   1.00
C1213  C     0.63971   0.49852   0.83626   0.00000  Uiso   1.00
C1214  C     0.36027   0.50033   0.66363   0.00000  Uiso   1.00
C1215  C     0.62516   0.49355   0.88592   0.00000  Uiso   1.00
C1216  C     0.37464   0.50137   0.61366   0.00000  Uiso   1.00
C1217  C     0.63642   0.46908   0.95742   0.00000  Uiso   1.00
C1218  C     0.36074   0.51453   0.54016   0.00000  Uiso   1.00
C1219  C     0.65513   0.47661   0.91128   0.00000  Uiso   1.00
C1220  C     0.34269   0.51048   0.58679   0.00000  Uiso   1.00
C1221  C     0.57745   0.50245   0.90796   0.00000  Uiso   1.00
C1222  C     0.42329   0.49496   0.59229   0.00000  Uiso   1.00
C1223  C     0.55743   0.49253   0.95386   0.00000  Uiso   1.00
C1224  C     0.44144   0.49743   0.54515   0.00000  Uiso   1.00
C1225  C     0.58830   0.47683   0.97876   0.00000  Uiso   1.00
C1226  C     0.40937   0.50840   0.51932   0.00000  Uiso   1.00
C1227  C     0.50767   0.49752   0.97560   0.00000  Uiso   1.00
C1228  C     0.49068   0.49029   0.52308   0.00000  Uiso   1.00
Cu1229 Cu    0.38022   0.50001   0.75000   0.00000  Uiso   1.00
Cu1230 Cu    0.61978   0.49999   0.75000   0.00000  Uiso   1.00
H1231  H     0.44686   0.48920   0.61347   0.00000  Uiso   1.00
H1232  H     0.55657   0.51744   0.88829   0.00000  Uiso   1.00
H1233  H     0.65960   0.45620   0.97655   0.00000  Uiso   1.00
H1234  H     0.33634   0.52264   0.52006   0.00000  Uiso   1.00
H1235  H     0.51280   0.46683   0.58192   0.00000  Uiso   1.00
H1236  H     0.48329   0.51133   0.91506   0.00000  Uiso   1.00
H1237  H     0.61759   0.37051   0.81528   0.00000  Uiso   1.00
H1238  H     0.38218   0.62969   0.68369   0.00000  Uiso   1.00
H1239  H     0.44234   0.44598   0.79041   0.00000  Uiso   1.00
H1240  H     0.55764   0.55406   0.70956   0.00000  Uiso   1.00
N1241  N     0.45069   0.50001   0.74999   0.00000  Uiso   1.00
N1242  N     0.54931   0.49999   0.75001   0.00000  Uiso   1.00
O1243  O     0.37291   0.43989   0.75000   0.00000  Uiso   1.00
O1244  O     0.62709   0.56011   0.75000   0.00000  Uiso   1.00
O1245  O     0.62706   0.43988   0.75000   0.00000  Uiso   1.00
O1246  O     0.37294   0.56012   0.74999   0.00000  Uiso   1.00
O1247  O     0.35186   0.50001   0.81491   0.00000  Uiso   1.00
O1248  O     0.64814   0.49999   0.68508   0.00000  Uiso   1.00
O1249  O     0.60600   0.50000   0.81492   0.00000  Uiso   1.00
O1250  O     0.39400   0.50000   0.68508   0.00000  Uiso   1.00
H1251  H     0.59429   0.45611   0.54394   0.00000  Uiso   1.00
H1252  H     0.40142   0.52121   0.95274   0.00000  Uiso   1.00
N1253  N     0.62589   0.51629   0.60504   0.00000  Uiso   1.00
H1254  H     0.60754   0.49462   0.62871   0.00000  Uiso   1.00
C1255  C     0.61270   0.55887   0.61431   0.00000  Uiso   1.00
H1256  H     0.62620   0.57868   0.58346   0.00000  Uiso   1.00
H1257  H     0.62797   0.57087   0.64151   0.00000  Uiso   1.00
H1258  H     0.57282   0.56056   0.62509   0.00000  Uiso   1.00
N1259  N     0.37021   0.46551   0.89177   0.00000  Uiso   1.00
H1260  H     0.39205   0.48738   0.87072   0.00000  Uiso   1.00
C1261  C     0.37572   0.42323   0.87652   0.00000  Uiso   1.00
H1262  H     0.35731   0.40112   0.90412   0.00000  Uiso   1.00
H1263  H     0.41458   0.41610   0.86638   0.00000  Uiso   1.00
H1264  H     0.36036   0.41898   0.84723   0.00000  Uiso   1.00
N1265  N     0.61175   0.62176   0.82665   0.00000  Uiso   1.00
H1266  H     0.58032   0.63590   0.84279   0.00000  Uiso   1.00
C1267  C     0.63911   0.60947   0.85777   0.00000  Uiso   1.00
H1268  H     0.65305   0.63739   0.87176   0.00000  Uiso   1.00
H1269  H     0.33645   0.59024   0.84075   0.00000  Uiso   1.00
H1270  H     0.61548   0.59076   0.88599   0.00000  Uiso   1.00
N1271  N     0.38676   0.37866   0.67218   0.00000  Uiso   1.00
H1272  H     0.38165   0.36638   0.64291   0.00000  Uiso   1.00
C1273  C     0.43727   0.38700   0.66889   0.00000  Uiso   1.00
H1274  H     0.45772   0.35814   0.66102   0.00000  Uiso   1.00
H1275  H     0.44238   0.39975   0.70073   0.00000  Uiso   1.00
H1276  H     0.45199   0.41018   0.64132   0.00000  Uiso   1.00
N1277  N     0.53015   0.43625   0.79748   0.00000  Uiso   1.00
H1278  H     0.55830   0.44150   0.81148   0.00000  Uiso   1.00
C1279  C     0.52659   0.39477   0.78074   0.00000  Uiso   1.00
H1280  H     0.53501   0.37168   0.80447   0.00000  Uiso   1.00
H1281  H     0.55234   0.39179   0.74711   0.00000  Uiso   1.00
H1282  H     0.48951   0.38738   0.77811   0.00000  Uiso   1.00
N1283  N     0.46978   0.56385   0.70285   0.00000  Uiso   1.00
H1284  H     0.44176   0.55862   0.68866   0.00000  Uiso   1.00
C1285  C     0.47270   0.60500   0.72055   0.00000  Uiso   1.00
H1286  H     0.46360   0.62826   0.69753   0.00000  Uiso   1.00
H1287  H     0.50978   0.61269   0.72300   0.00000  Uiso   1.00
H1288  H     0.44712   0.60717   0.75440   0.00000  Uiso   1.00
C1289  C     0.99970   0.42088   0.74947   0.00000  Uiso   1.00
C1290  C     0.66718   0.57916   0.74997   0.00000  Uiso   1.00
C1291  C     0.85653   0.47520   0.54663   0.00000  Uiso   1.00
C1292  C     0.80738   0.50804   0.95122   0.00000  Uiso   1.00
C1293  C     0.90420   0.46834   0.52469   0.00000  Uiso   1.00
C1294  C     0.75924   0.51316   0.97277   0.00000  Uiso   1.00
C1295  C     0.97194   0.35415   0.78652   0.00000  Uiso   1.00
C1296  C     0.69490   0.64599   0.71268   0.00000  Uiso   1.00
C1297  C     0.97272   0.64433   0.78792   0.00000  Uiso   1.00
C1298  C     0.69460   0.35587   0.71161   0.00000  Uiso   1.00
C1299  C     0.66785   0.62381   0.75070   0.00000  Uiso   1.00
C1300  C     0.99939   0.37630   0.74878   0.00000  Uiso   1.00
C1301  C     0.84995   0.46906   0.77232   0.00000  Uiso   1.00
C1302  C     0.81674   0.53087   0.72765   0.00000  Uiso   1.00
C1303  C     0.80073   0.46973   0.77221   0.00000  Uiso   1.00
C1304  C     0.86595   0.53022   0.72772   0.00000  Uiso   1.00
C1305  C     0.97304   0.49852   0.83626   0.00000  Uiso   1.00
C1306  C     0.69360   0.50033   0.66363   0.00000  Uiso   1.00
C1307  C     0.95849   0.49355   0.88592   0.00000  Uiso   1.00
C1308  C     0.70797   0.50137   0.61366   0.00000  Uiso   1.00
C1309  C     0.96975   0.46908   0.95742   0.00000  Uiso   1.00
C1310  C     0.69407   0.51453   0.54016   0.00000  Uiso   1.00
C1311  C     0.98847   0.47661   0.91128   0.00000  Uiso   1.00
C1312  C     0.67602   0.51048   0.58679   0.00000  Uiso   1.00
C1313  C     0.91079   0.50245   0.90796   0.00000  Uiso   1.00
C1314  C     0.75662   0.49496   0.59229   0.00000  Uiso   1.00
C1315  C     0.89076   0.49253   0.95386   0.00000  Uiso   1.00
C1316  C     0.77477   0.49743   0.54515   0.00000  Uiso   1.00
C1317  C     0.92164   0.47683   0.97876   0.00000  Uiso   1.00
C1318  C     0.74270   0.50840   0.51932   0.00000  Uiso   1.00
C1319  C     0.84101   0.49752   0.97560   0.00000  Uiso   1.00
C1320  C     0.82401   0.49029   0.52308   0.00000  Uiso   1.00
Cu1321 Cu    0.71355   0.50001   0.75000   0.00000  Uiso   1.00
Cu1322 Cu    0.95311   0.49999   0.75000   0.00000  Uiso   1.00
H1323  H     0.78020   0.48920   0.61347   0.00000  Uiso   1.00
H1324  H     0.88991   0.51744   0.88829   0.00000  Uiso   1.00
H1325  H     0.99294   0.45620   0.97655   0.00000  Uiso   1.00
H1326  H     0.66967   0.52264   0.52006   0.00000  Uiso   1.00
H1327  H     0.84613   0.46683   0.58192   0.00000  Uiso   1.00
H1328  H     0.81662   0.51133   0.91506   0.00000  Uiso   1.00
H1329  H     0.95092   0.37051   0.81528   0.00000  Uiso   1.00
H1330  H     0.71551   0.62969   0.68369   0.00000  Uiso   1.00
H1331  H     0.77567   0.44598   0.79041   0.00000  Uiso   1.00
H1332  H     0.89097   0.55406   0.70956   0.00000  Uiso   1.00
N1333  N     0.78403   0.50001   0.74999   0.00000  Uiso   1.00
N1334  N     0.88264   0.49999   0.75001   0.00000  Uiso   1.00
O1335  O     0.70625   0.43989   0.75000   0.00000  Uiso   1.00
O1336  O     0.96042   0.56011   0.75000   0.00000  Uiso   1.00
O1337  O     0.96039   0.43988   0.75000   0.00000  Uiso   1.00
O1338  O     0.70628   0.56012   0.74999   0.00000  Uiso   1.00
O1339  O     0.68519   0.50001   0.81491   0.00000  Uiso   1.00
O1340  O     0.98148   0.49999   0.68508   0.00000  Uiso   1.00
O1341  O     0.93933   0.50000   0.81492   0.00000  Uiso   1.00
O1342  O     0.72733   0.50000   0.68508   0.00000  Uiso   1.00
H1343  H     0.92762   0.45611   0.54394   0.00000  Uiso   1.00
H1344  H     0.73475   0.52121   0.95274   0.00000  Uiso   1.00
N1345  N     0.95922   0.51629   0.60504   0.00000  Uiso   1.00
H1346  H     0.94088   0.49462   0.62871   0.00000  Uiso   1.00
C1347  C     0.94603   0.55887   0.61431   0.00000  Uiso   1.00
H1348  H     0.95954   0.57868   0.58346   0.00000  Uiso   1.00
H1349  H     0.96130   0.57087   0.64151   0.00000  Uiso   1.00
H1350  H     0.90615   0.56056   0.62509   0.00000  Uiso   1.00
N1351  N     0.70354   0.46551   0.89177   0.00000  Uiso   1.00
H1352  H     0.72538   0.48738   0.87072   0.00000  Uiso   1.00
C1353  C     0.70906   0.42323   0.87652   0.00000  Uiso   1.00
H1354  H     0.69064   0.40112   0.90412   0.00000  Uiso   1.00
H1355  H     0.74792   0.41610   0.86638   0.00000  Uiso   1.00
H1356  H     0.69369   0.41898   0.84723   0.00000  Uiso   1.00
N1357  N     0.94508   0.62176   0.82665   0.00000  Uiso   1.00
H1358  H     0.91365   0.63590   0.84279   0.00000  Uiso   1.00
C1359  C     0.97244   0.60947   0.85777   0.00000  Uiso   1.00
H1360  H     0.98638   0.63739   0.87176   0.00000  Uiso   1.00
H1361  H     0.66978   0.59024   0.84075   0.00000  Uiso   1.00
H1362  H     0.94881   0.59076   0.88599   0.00000  Uiso   1.00
N1363  N     0.72009   0.37866   0.67218   0.00000  Uiso   1.00
H1364  H     0.71498   0.36638   0.64291   0.00000  Uiso   1.00
C1365  C     0.77060   0.38700   0.66889   0.00000  Uiso   1.00
H1366  H     0.79106   0.35814   0.66102   0.00000  Uiso   1.00
H1367  H     0.77572   0.39975   0.70073   0.00000  Uiso   1.00
H1368  H     0.78532   0.41018   0.64132   0.00000  Uiso   1.00
N1369  N     0.86348   0.43625   0.79748   0.00000  Uiso   1.00
H1370  H     0.89164   0.44150   0.81148   0.00000  Uiso   1.00
C1371  C     0.85992   0.39477   0.78074   0.00000  Uiso   1.00
H1372  H     0.86835   0.37168   0.80447   0.00000  Uiso   1.00
H1373  H     0.88568   0.39179   0.74711   0.00000  Uiso   1.00
H1374  H     0.82285   0.38738   0.77811   0.00000  Uiso   1.00
N1375  N     0.80311   0.56385   0.70285   0.00000  Uiso   1.00
H1376  H     0.77509   0.55862   0.68866   0.00000  Uiso   1.00
C1377  C     0.80604   0.60500   0.72055   0.00000  Uiso   1.00
H1378  H     0.79693   0.62826   0.69753   0.00000  Uiso   1.00
H1379  H     0.84311   0.61269   0.72300   0.00000  Uiso   1.00
H1380  H     0.78045   0.60717   0.75440   0.00000  Uiso   1.00
C1381  C     0.33303   0.75422   0.74947   0.00000  Uiso   1.00
C1382  C     0.00051   0.91250   0.74997   0.00000  Uiso   1.00
C1383  C     0.18986   0.80853   0.54663   0.00000  Uiso   1.00
C1384  C     0.14072   0.84137   0.95122   0.00000  Uiso   1.00
C1385  C     0.23753   0.80167   0.52469   0.00000  Uiso   1.00
C1386  C     0.09257   0.84649   0.97277   0.00000  Uiso   1.00
C1387  C     0.30527   0.68749   0.78652   0.00000  Uiso   1.00
C1388  C     0.02823   0.97932   0.71268   0.00000  Uiso   1.00
C1389  C     0.30605   0.97766   0.78792   0.00000  Uiso   1.00
C1390  C     0.02794   0.68921   0.71161   0.00000  Uiso   1.00
C1391  C     0.00118   0.95714   0.75070   0.00000  Uiso   1.00
C1392  C     0.33272   0.70963   0.74878   0.00000  Uiso   1.00
C1393  C     0.18328   0.80240   0.77232   0.00000  Uiso   1.00
C1394  C     0.15007   0.86420   0.72765   0.00000  Uiso   1.00
C1395  C     0.13407   0.80307   0.77221   0.00000  Uiso   1.00
C1396  C     0.19928   0.86355   0.72772   0.00000  Uiso   1.00
C1397  C     0.30638   0.83185   0.83626   0.00000  Uiso   1.00
C1398  C     0.02694   0.83366   0.66363   0.00000  Uiso   1.00
C1399  C     0.29183   0.82688   0.88592   0.00000  Uiso   1.00
C1400  C     0.04130   0.83471   0.61366   0.00000  Uiso   1.00
C1401  C     0.30309   0.80242   0.95742   0.00000  Uiso   1.00
C1402  C     0.02741   0.84786   0.54016   0.00000  Uiso   1.00
C1403  C     0.32180   0.80994   0.91128   0.00000  Uiso   1.00
C1404  C     0.00935   0.84381   0.58679   0.00000  Uiso   1.00
C1405  C     0.24412   0.83578   0.90796   0.00000  Uiso   1.00
C1406  C     0.08996   0.82829   0.59229   0.00000  Uiso   1.00
C1407  C     0.22410   0.82586   0.95386   0.00000  Uiso   1.00
C1408  C     0.10810   0.83076   0.54515   0.00000  Uiso   1.00
C1409  C     0.25497   0.81017   0.97876   0.00000  Uiso   1.00
C1410  C     0.07603   0.84173   0.51932   0.00000  Uiso   1.00
C1411  C     0.17434   0.83085   0.97560   0.00000  Uiso   1.00
C1412  C     0.15735   0.82362   0.52308   0.00000  Uiso   1.00
Cu1413 Cu    0.04689   0.83334   0.75000   0.00000  Uiso   1.00
Cu1414 Cu    0.28645   0.83333   0.75000   0.00000  Uiso   1.00
H1415  H     0.11353   0.82253   0.61347   0.00000  Uiso   1.00
H1416  H     0.22324   0.85078   0.88829   0.00000  Uiso   1.00
H1417  H     0.32627   0.78953   0.97655   0.00000  Uiso   1.00
H1418  H     0.00300   0.85598   0.52006   0.00000  Uiso   1.00
H1419  H     0.17947   0.80016   0.58192   0.00000  Uiso   1.00
H1420  H     0.14995   0.84466   0.91506   0.00000  Uiso   1.00
H1421  H     0.28426   0.70385   0.81528   0.00000  Uiso   1.00
H1422  H     0.04884   0.96303   0.68369   0.00000  Uiso   1.00
H1423  H     0.10900   0.77931   0.79041   0.00000  Uiso   1.00
H1424  H     0.22430   0.88739   0.70956   0.00000  Uiso   1.00
N1425  N     0.11736   0.83334   0.74999   0.00000  Uiso   1.00
N1426  N     0.21597   0.83332   0.75001   0.00000  Uiso   1.00
O1427  O     0.03958   0.77322   0.75000   0.00000  Uiso   1.00
O1428  O     0.29375   0.89345   0.75000   0.00000  Uiso   1.00
O1429  O     0.29372   0.77321   0.75000   0.00000  Uiso   1.00
O1430  O     0.03961   0.89346   0.74999   0.00000  Uiso   1.00
O1431  O     0.01852   0.83334   0.81491   0.00000  Uiso   1.00
O1432  O     0.31481   0.83332   0.68508   0.00000  Uiso   1.00
O1433  O     0.27267   0.83333   0.81492   0.00000  Uiso   1.00
O1434  O     0.06067   0.83333   0.68508   0.00000  Uiso   1.00
H1435  H     0.26096   0.78945   0.54394   0.00000  Uiso   1.00
H1436  H     0.06808   0.85454   0.95274   0.00000  Uiso   1.00
N1437  N     0.29255   0.84962   0.60504   0.00000  Uiso   1.00
H1438  H     0.27421   0.82796   0.62871   0.00000  Uiso   1.00
C1439  C     0.27936   0.89220   0.61431   0.00000  Uiso   1.00
H1440  H     0.29287   0.91202   0.58346   0.00000  Uiso   1.00
H1441  H     0.29463   0.90420   0.64151   0.00000  Uiso   1.00
H1442  H     0.23948   0.89389   0.62509   0.00000  Uiso   1.00
N1443  N     0.03687   0.79885   0.89177   0.00000  Uiso   1.00
H1444  H     0.05871   0.82071   0.87072   0.00000  Uiso   1.00
C1445  C     0.04239   0.75657   0.87652   0.00000  Uiso   1.00
H1446  H     0.02397   0.73445   0.90412   0.00000  Uiso   1.00
H1447  H     0.08125   0.74944   0.86638   0.00000  Uiso   1.00
H1448  H     0.02703   0.75232   0.84723   0.00000  Uiso   1.00
N1449  N     0.27842   0.95510   0.82665   0.00000  Uiso   1.00
H1450  H     0.24698   0.96923   0.84279   0.00000  Uiso   1.00
C1451  C     0.30577   0.94281   0.85777   0.00000  Uiso   1.00
H1452  H     0.31972   0.97072   0.87176   0.00000  Uiso   1.00
H1453  H     0.00311   0.92358   0.84075   0.00000  Uiso   1.00
H1454  H     0.28215   0.92409   0.88599   0.00000  Uiso   1.00
N1455  N     0.05343   0.71199   0.67218   0.00000  Uiso   1.00
H1456  H     0.04832   0.69972   0.64291   0.00000  Uiso   1.00
C1457  C     0.10393   0.72033   0.66889   0.00000  Uiso   1.00
H1458  H     0.12439   0.69147   0.66102   0.00000  Uiso   1.00
H1459  H     0.10905   0.73308   0.70073   0.00000  Uiso   1.00
H1460  H     0.11865   0.74351   0.64132   0.00000  Uiso   1.00
N1461  N     0.19682   0.76959   0.79748   0.00000  Uiso   1.00
H1462  H     0.22497   0.77483   0.81148   0.00000  Uiso   1.00
C1463  C     0.19325   0.72810   0.78074   0.00000  Uiso   1.00
H1464  H     0.20168   0.70501   0.80447   0.00000  Uiso   1.00
H1465  H     0.21901   0.72512   0.74711   0.00000  Uiso   1.00
H1466  H     0.15618   0.72071   0.77811   0.00000  Uiso   1.00
N1467  N     0.13645   0.89718   0.70285   0.00000  Uiso   1.00
H1468  H     0.10843   0.89195   0.68866   0.00000  Uiso   1.00
C1469  C     0.13937   0.93833   0.72055   0.00000  Uiso   1.00
H1470  H     0.13026   0.96160   0.69753   0.00000  Uiso   1.00
H1471  H     0.17645   0.94603   0.72300   0.00000  Uiso   1.00
H1472  H     0.11379   0.94051   0.75440   0.00000  Uiso   1.00
C1473  C     0.66636   0.75422   0.74947   0.00000  Uiso   1.00
C1474  C     0.33385   0.91250   0.74997   0.00000  Uiso   1.00
C1475  C     0.52320   0.80853   0.54663   0.00000  Uiso   1.00
C1476  C     0.47405   0.84137   0.95122   0.00000  Uiso   1.00
C1477  C     0.57086   0.80167   0.52469   0.00000  Uiso   1.00
C1478  C     0.42591   0.84649   0.97277   0.00000  Uiso   1.00
C1479  C     0.63860   0.68749   0.78652   0.00000  Uiso   1.00
C1480  C     0.36156   0.97932   0.71268   0.00000  Uiso   1.00
C1481  C     0.63939   0.97766   0.78792   0.00000  Uiso   1.00
C1482  C     0.36127   0.68921   0.71161   0.00000  Uiso   1.00
C1483  C     0.33451   0.95714   0.75070   0.00000  Uiso   1.00
C1484  C     0.66605   0.70963   0.74878   0.00000  Uiso   1.00
C1485  C     0.51662   0.80240   0.77232   0.00000  Uiso   1.00
C1486  C     0.48340   0.86420   0.72765   0.00000  Uiso   1.00
C1487  C     0.46740   0.80307   0.77221   0.00000  Uiso   1.00
C1488  C     0.53261   0.86355   0.72772   0.00000  Uiso   1.00
C1489  C     0.63971   0.83185   0.83626   0.00000  Uiso   1.00
C1490  C     0.36027   0.83366   0.66363   0.00000  Uiso   1.00
C1491  C     0.62516   0.82688   0.88592   0.00000  Uiso   1.00
C1492  C     0.37464   0.83471   0.61366   0.00000  Uiso   1.00
C1493  C     0.63642   0.80242   0.95742   0.00000  Uiso   1.00
C1494  C     0.36074   0.84786   0.54016   0.00000  Uiso   1.00
C1495  C     0.65513   0.80994   0.91128   0.00000  Uiso   1.00
C1496  C     0.34269   0.84381   0.58679   0.00000  Uiso   1.00
C1497  C     0.57745   0.83578   0.90796   0.00000  Uiso   1.00
C1498  C     0.42329   0.82829   0.59229   0.00000  Uiso   1.00
C1499  C     0.55743   0.82586   0.95386   0.00000  Uiso   1.00
C1500  C     0.44144   0.83076   0.54515   0.00000  Uiso   1.00
C1501  C     0.58830   0.81017   0.97876   0.00000  Uiso   1.00
C1502  C     0.40937   0.84173   0.51932   0.00000  Uiso   1.00
C1503  C     0.50767   0.83085   0.97560   0.00000  Uiso   1.00
C1504  C     0.49068   0.82362   0.52308   0.00000  Uiso   1.00
Cu1505 Cu    0.38022   0.83334   0.75000   0.00000  Uiso   1.00
Cu1506 Cu    0.61978   0.83333   0.75000   0.00000  Uiso   1.00
H1507  H     0.44686   0.82253   0.61347   0.00000  Uiso   1.00
H1508  H     0.55657   0.85078   0.88829   0.00000  Uiso   1.00
H1509  H     0.65960   0.78953   0.97655   0.00000  Uiso   1.00
H1510  H     0.33634   0.85598   0.52006   0.00000  Uiso   1.00
H1511  H     0.51280   0.80016   0.58192   0.00000  Uiso   1.00
H1512  H     0.48329   0.84466   0.91506   0.00000  Uiso   1.00
H1513  H     0.61759   0.70385   0.81528   0.00000  Uiso   1.00
H1514  H     0.38218   0.96303   0.68369   0.00000  Uiso   1.00
H1515  H     0.44234   0.77931   0.79041   0.00000  Uiso   1.00
H1516  H     0.55764   0.88739   0.70956   0.00000  Uiso   1.00
N1517  N     0.45069   0.83334   0.74999   0.00000  Uiso   1.00
N1518  N     0.54931   0.83332   0.75001   0.00000  Uiso   1.00
O1519  O     0.37291   0.77322   0.75000   0.00000  Uiso   1.00
O1520  O     0.62709   0.89345   0.75000   0.00000  Uiso   1.00
O1521  O     0.62706   0.77321   0.75000   0.00000  Uiso   1.00
O1522  O     0.37294   0.89346   0.74999   0.00000  Uiso   1.00
O1523  O     0.35186   0.83334   0.81491   0.00000  Uiso   1.00
O1524  O     0.64814   0.83332   0.68508   0.00000  Uiso   1.00
O1525  O     0.60600   0.83333   0.81492   0.00000  Uiso   1.00
O1526  O     0.39400   0.83333   0.68508   0.00000  Uiso   1.00
H1527  H     0.59429   0.78945   0.54394   0.00000  Uiso   1.00
H1528  H     0.40142   0.85454   0.95274   0.00000  Uiso   1.00
N1529  N     0.62589   0.84962   0.60504   0.00000  Uiso   1.00
H1530  H     0.60754   0.82796   0.62871   0.00000  Uiso   1.00
C1531  C     0.61270   0.89220   0.61431   0.00000  Uiso   1.00
H1532  H     0.62620   0.91202   0.58346   0.00000  Uiso   1.00
H1533  H     0.62797   0.90420   0.64151   0.00000  Uiso   1.00
H1534  H     0.57282   0.89389   0.62509   0.00000  Uiso   1.00
N1535  N     0.37021   0.79885   0.89177   0.00000  Uiso   1.00
H1536  H     0.39205   0.82071   0.87072   0.00000  Uiso   1.00
C1537  C     0.37572   0.75657   0.87652   0.00000  Uiso   1.00
H1538  H     0.35731   0.73445   0.90412   0.00000  Uiso   1.00
H1539  H     0.41458   0.74944   0.86638   0.00000  Uiso   1.00
H1540  H     0.36036   0.75232   0.84723   0.00000  Uiso   1.00
N1541  N     0.61175   0.95510   0.82665   0.00000  Uiso   1.00
H1542  H     0.58032   0.96923   0.84279   0.00000  Uiso   1.00
C1543  C     0.63911   0.94281   0.85777   0.00000  Uiso   1.00
H1544  H     0.65305   0.97072   0.87176   0.00000  Uiso   1.00
H1545  H     0.33645   0.92358   0.84075   0.00000  Uiso   1.00
H1546  H     0.61548   0.92409   0.88599   0.00000  Uiso   1.00
N1547  N     0.38676   0.71199   0.67218   0.00000  Uiso   1.00
H1548  H     0.38165   0.69972   0.64291   0.00000  Uiso   1.00
C1549  C     0.43727   0.72033   0.66889   0.00000  Uiso   1.00
H1550  H     0.45772   0.69147   0.66102   0.00000  Uiso   1.00
H1551  H     0.44238   0.73308   0.70073   0.00000  Uiso   1.00
H1552  H     0.45199   0.74351   0.64132   0.00000  Uiso   1.00
N1553  N     0.53015   0.76959   0.79748   0.00000  Uiso   1.00
H1554  H     0.55830   0.77483   0.81148   0.00000  Uiso   1.00
C1555  C     0.52659   0.72810   0.78074   0.00000  Uiso   1.00
H1556  H     0.53501   0.70501   0.80447   0.00000  Uiso   1.00
H1557  H     0.55234   0.72512   0.74711   0.00000  Uiso   1.00
H1558  H     0.48951   0.72071   0.77811   0.00000  Uiso   1.00
N1559  N     0.46978   0.89718   0.70285   0.00000  Uiso   1.00
H1560  H     0.44176   0.89195   0.68866   0.00000  Uiso   1.00
C1561  C     0.47270   0.93833   0.72055   0.00000  Uiso   1.00
H1562  H     0.46360   0.96160   0.69753   0.00000  Uiso   1.00
H1563  H     0.50978   0.94603   0.72300   0.00000  Uiso   1.00
H1564  H     0.44712   0.94051   0.75440   0.00000  Uiso   1.00
C1565  C     0.99970   0.75422   0.74947   0.00000  Uiso   1.00
C1566  C     0.66718   0.91250   0.74997   0.00000  Uiso   1.00
C1567  C     0.85653   0.80853   0.54663   0.00000  Uiso   1.00
C1568  C     0.80738   0.84137   0.95122   0.00000  Uiso   1.00
C1569  C     0.90420   0.80167   0.52469   0.00000  Uiso   1.00
C1570  C     0.75924   0.84649   0.97277   0.00000  Uiso   1.00
C1571  C     0.97194   0.68749   0.78652   0.00000  Uiso   1.00
C1572  C     0.69490   0.97932   0.71268   0.00000  Uiso   1.00
C1573  C     0.97272   0.97766   0.78792   0.00000  Uiso   1.00
C1574  C     0.69460   0.68921   0.71161   0.00000  Uiso   1.00
C1575  C     0.66785   0.95714   0.75070   0.00000  Uiso   1.00
C1576  C     0.99939   0.70963   0.74878   0.00000  Uiso   1.00
C1577  C     0.84995   0.80240   0.77232   0.00000  Uiso   1.00
C1578  C     0.81674   0.86420   0.72765   0.00000  Uiso   1.00
C1579  C     0.80073   0.80307   0.77221   0.00000  Uiso   1.00
C1580  C     0.86595   0.86355   0.72772   0.00000  Uiso   1.00
C1581  C     0.97304   0.83185   0.83626   0.00000  Uiso   1.00
C1582  C     0.69360   0.83366   0.66363   0.00000  Uiso   1.00
C1583  C     0.95849   0.82688   0.88592   0.00000  Uiso   1.00
C1584  C     0.70797   0.83471   0.61366   0.00000  Uiso   1.00
C1585  C     0.96975   0.80242   0.95742   0.00000  Uiso   1.00
C1586  C     0.69407   0.84786   0.54016   0.00000  Uiso   1.00
C1587  C     0.98847   0.80994   0.91128   0.00000  Uiso   1.00
C1588  C     0.67602   0.84381   0.58679   0.00000  Uiso   1.00
C1589  C     0.91079   0.83578   0.90796   0.00000  Uiso   1.00
C1590  C     0.75662   0.82829   0.59229   0.00000  Uiso   1.00
C1591  C     0.89076   0.82586   0.95386   0.00000  Uiso   1.00
C1592  C     0.77477   0.83076   0.54515   0.00000  Uiso   1.00
C1593  C     0.92164   0.81017   0.97876   0.00000  Uiso   1.00
C1594  C     0.74270   0.84173   0.51932   0.00000  Uiso   1.00
C1595  C     0.84101   0.83085   0.97560   0.00000  Uiso   1.00
C1596  C     0.82401   0.82362   0.52308   0.00000  Uiso   1.00
Cu1597 Cu    0.71355   0.83334   0.75000   0.00000  Uiso   1.00
Cu1598 Cu    0.95311   0.83333   0.75000   0.00000  Uiso   1.00
H1599  H     0.78020   0.82253   0.61347   0.00000  Uiso   1.00
H1600  H     0.88991   0.85078   0.88829   0.00000  Uiso   1.00
H1601  H     0.99294   0.78953   0.97655   0.00000  Uiso   1.00
H1602  H     0.66967   0.85598   0.52006   0.00000  Uiso   1.00
H1603  H     0.84613   0.80016   0.58192   0.00000  Uiso   1.00
H1604  H     0.81662   0.84466   0.91506   0.00000  Uiso   1.00
H1605  H     0.95092   0.70385   0.81528   0.00000  Uiso   1.00
H1606  H     0.71551   0.96303   0.68369   0.00000  Uiso   1.00
H1607  H     0.77567   0.77931   0.79041   0.00000  Uiso   1.00
H1608  H     0.89097   0.88739   0.70956   0.00000  Uiso   1.00
N1609  N     0.78403   0.83334   0.74999   0.00000  Uiso   1.00
N1610  N     0.88264   0.83332   0.75001   0.00000  Uiso   1.00
O1611  O     0.70625   0.77322   0.75000   0.00000  Uiso   1.00
O1612  O     0.96042   0.89345   0.75000   0.00000  Uiso   1.00
O1613  O     0.96039   0.77321   0.75000   0.00000  Uiso   1.00
O1614  O     0.70628   0.89346   0.74999   0.00000  Uiso   1.00
O1615  O     0.68519   0.83334   0.81491   0.00000  Uiso   1.00
O1616  O     0.98148   0.83332   0.68508   0.00000  Uiso   1.00
O1617  O     0.93933   0.83333   0.81492   0.00000  Uiso   1.00
O1618  O     0.72733   0.83333   0.68508   0.00000  Uiso   1.00
H1619  H     0.92762   0.78945   0.54394   0.00000  Uiso   1.00
H1620  H     0.73475   0.85454   0.95274   0.00000  Uiso   1.00
N1621  N     0.95922   0.84962   0.60504   0.00000  Uiso   1.00
H1622  H     0.94088   0.82796   0.62871   0.00000  Uiso   1.00
C1623  C     0.94603   0.89220   0.61431   0.00000  Uiso   1.00
H1624  H     0.95954   0.91202   0.58346   0.00000  Uiso   1.00
H1625  H     0.96130   0.90420   0.64151   0.00000  Uiso   1.00
H1626  H     0.90615   0.89389   0.62509   0.00000  Uiso   1.00
N1627  N     0.70354   0.79885   0.89177   0.00000  Uiso   1.00
H1628  H     0.72538   0.82071   0.87072   0.00000  Uiso   1.00
C1629  C     0.70906   0.75657   0.87652   0.00000  Uiso   1.00
H1630  H     0.69064   0.73445   0.90412   0.00000  Uiso   1.00
H1631  H     0.74792   0.74944   0.86638   0.00000  Uiso   1.00
H1632  H     0.69369   0.75232   0.84723   0.00000  Uiso   1.00
N1633  N     0.94508   0.95510   0.82665   0.00000  Uiso   1.00
H1634  H     0.91365   0.96923   0.84279   0.00000  Uiso   1.00
C1635  C     0.97244   0.94281   0.85777   0.00000  Uiso   1.00
H1636  H     0.98638   0.97072   0.87176   0.00000  Uiso   1.00
H1637  H     0.66978   0.92358   0.84075   0.00000  Uiso   1.00
H1638  H     0.94881   0.92409   0.88599   0.00000  Uiso   1.00
N1639  N     0.72009   0.71199   0.67218   0.00000  Uiso   1.00
H1640  H     0.71498   0.69972   0.64291   0.00000  Uiso   1.00
C1641  C     0.77060   0.72033   0.66889   0.00000  Uiso   1.00
H1642  H     0.79106   0.69147   0.66102   0.00000  Uiso   1.00
H1643  H     0.77572   0.73308   0.70073   0.00000  Uiso   1.00
H1644  H     0.78532   0.74351   0.64132   0.00000  Uiso   1.00
N1645  N     0.86348   0.76959   0.79748   0.00000  Uiso   1.00
H1646  H     0.89164   0.77483   0.81148   0.00000  Uiso   1.00
C1647  C     0.85992   0.72810   0.78074   0.00000  Uiso   1.00
H1648  H     0.86835   0.70501   0.80447   0.00000  Uiso   1.00
H1649  H     0.88568   0.72512   0.74711   0.00000  Uiso   1.00
H1650  H     0.82285   0.72071   0.77811   0.00000  Uiso   1.00
N1651  N     0.80311   0.89718   0.70285   0.00000  Uiso   1.00
H1652  H     0.77509   0.89195   0.68866   0.00000  Uiso   1.00
C1653  C     0.80604   0.93833   0.72055   0.00000  Uiso   1.00
H1654  H     0.79693   0.96160   0.69753   0.00000  Uiso   1.00
H1655  H     0.84311   0.94603   0.72300   0.00000  Uiso   1.00
H1656  H     0.78045   0.94051   0.75440   0.00000  Uiso   1.00
loop_
_geom_bond_atom_site_label_1
_geom_bond_atom_site_label_2
_geom_bond_distance
_geom_bond_site_symmetry_2
_ccdc_geom_bond_type
C1     C12     1.436   .     S
C1     O49     1.296   .     A
C1     O139    1.289   .     S
C2     O50     1.295   .     A
C2     C11     1.438   .     S
C2     O232    1.291   1_455 S
C3     H39     1.076   .     S
C3     C32     1.416   .     A
C3     C5      1.385   .     A
C4     H40     1.077   .     S
C4     C6      1.385   .     A
C4     C31     1.415   .     A
C5     H55     1.084   .     S
C5     C857    1.390   1_554 S
C6     H56     1.084   .     S
C6     C858    1.390   .     S
C7     C12     1.395   .     A
C7     H41     1.084   .     S
C7     C561    1.391   1_545 S
C8     H42     1.084   .     S
C8     C11     1.397   .     A
C8     C286    1.392   .     S
C9     N69     1.424   .     S
C9     C283    1.391   .     S
C9     C103    1.406   .     S
C10    N75     1.423   .     S
C10    C560    1.392   1_545 S
C10    C196    1.405   1_455 S
C11    C193    1.406   1_455 S
C12    C102    1.405   .     S
C13    N46     1.392   .     A
C13    N81     1.423   .     S
C13    C15     1.417   .     A
C14    N87     1.421   .     S
C14    C16     1.416   .     A
C14    N45     1.391   .     A
C15    N45     1.352   .     A
C15    H43     1.079   .     S
C16    H44     1.080   .     S
C16    N46     1.352   .     A
C17    O53     1.307   .     A
C17    C19     1.479   .     S
C17    O143    1.300   .     S
C18    C20     1.483   .     S
C18    O54     1.308   .     A
C18    O236    1.301   1_455 S
C19    C23     1.420   .     A
C19    C25     1.401   .     A
C20    C24     1.421   .     A
C20    C26     1.404   .     A
C21    C23     1.395   .     A
C21    C29     1.398   .     A
C21    H37     1.085   .     S
C22    H38     1.084   .     S
C22    C24     1.395   .     A
C22    C30     1.398   .     A
C23    N155    1.422   .     S
C24    N241    1.422   1_455 S
C25    C27     1.407   .     A
C25    H36     1.076   .     S
C26    C28     1.407   .     A
C26    H35     1.074   .     S
C27    C29     1.414   .     A
C27    C31     1.426   .     A
C28    C32     1.427   .     A
C28    C30     1.414   .     A
C29    C833    1.390   .     S
C30    C834    1.390   1_554 S
C31    C860    1.427   .     S
C32    C859    1.427   1_554 S
Cu33   N45     2.026   .     S
Cu33   O50     1.953   .     S
Cu33   O47     1.942   .     S
Cu33   O54     1.931   .     S
Cu33   O51     1.949   .     S
Cu33   Cu218   2.697   1_455 S
Cu34   N46     2.026   .     S
Cu34   O48     1.942   .     S
Cu34   O49     1.953   .     S
Cu34   O52     1.949   .     S
Cu34   O53     1.931   .     S
Cu34   Cu125   2.697   .     S
O47    C185    1.289   1_455 S
O48    C94     1.291   .     S
O51    C201    1.300   1_455 S
O52    C110    1.301   .     S
N57    C59     1.445   .     S
N57    H58     1.029   .     S
N57    C116    1.422   .     S
C59    H62     1.110   .     S
C59    H60     1.111   .     S
C59    H61     1.111   .     S
N63    C65     1.446   .     S
N63    H64     1.029   .     S
N63    C207    1.422   1_455 S
C65    H67     1.110   .     S
C65    H68     1.111   .     S
C65    H66     1.111   .     S
N69    C71     1.447   .     S
N69    H70     1.032   .     S
C71    H74     1.110   .     S
C71    H72     1.112   .     S
C71    H165    1.110   .     S
H73    C255    1.110   1_455 S
N75    H76     1.032   .     S
N75    C77     1.447   .     S
C77    H78     1.109   .     S
C77    H79     1.110   .     S
C77    H80     1.110   .     S
N81    H82     1.023   .     S
N81    C83     1.449   .     S
C83    H84     1.110   .     S
C83    H85     1.111   .     S
C83    H86     1.110   .     S
N87    H88     1.023   .     S
N87    C89     1.449   .     S
C89    H91     1.110   .     S
C89    H92     1.111   .     S
C89    H90     1.107   .     S
C93    C104    1.436   .     S
C93    O141    1.296   .     A
C93    O231    1.289   .     S
C94    O142    1.295   .     A
C94    C103    1.438   .     S
C95    H131    1.076   .     S
C95    C124    1.416   .     A
C95    C97     1.385   .     A
C96    H132    1.077   .     S
C96    C98     1.385   .     A
C96    C123    1.415   .     A
C97    H147    1.084   .     S
C97    C949    1.390   1_554 S
C98    H148    1.084   .     S
C98    C950    1.390   .     S
C99    C104    1.395   .     A
C99    H133    1.084   .     S
C99    C653    1.391   1_545 S
C100   H134    1.084   .     S
C100   C103    1.397   .     A
C100   C378    1.392   .     S
C101   N161    1.424   .     S
C101   C375    1.391   .     S
C101   C195    1.406   .     S
C102   N167    1.423   .     S
C102   C652    1.392   1_545 S
C104   C194    1.405   .     S
C105   N138    1.392   .     A
C105   N173    1.423   .     S
C105   C107    1.417   .     A
C106   N179    1.421   .     S
C106   C108    1.416   .     A
C106   N137    1.391   .     A
C107   N137    1.352   .     A
C107   H135    1.079   .     S
C108   H136    1.080   .     S
C108   N138    1.352   .     A
C109   O145    1.307   .     A
C109   C111    1.479   .     S
C109   O235    1.300   .     S
C110   C112    1.483   .     S
C110   O146    1.308   .     A
C111   C115    1.420   .     A
C111   C117    1.401   .     A
C112   C116    1.421   .     A
C112   C118    1.404   .     A
C113   C115    1.395   .     A
C113   C121    1.398   .     A
C113   H129    1.085   .     S
C114   H130    1.084   .     S
C114   C116    1.395   .     A
C114   C122    1.398   .     A
C115   N247    1.422   .     S
C117   C119    1.407   .     A
C117   H128    1.076   .     S
C118   C120    1.407   .     A
C118   H127    1.074   .     S
C119   C121    1.414   .     A
C119   C123    1.426   .     A
C120   C124    1.427   .     A
C120   C122    1.414   .     A
C121   C925    1.390   .     S
C122   C926    1.390   1_554 S
C123   C952    1.427   .     S
C124   C951    1.427   1_554 S
Cu125  N137    2.026   .     S
Cu125  O142    1.953   .     S
Cu125  O139    1.942   .     S
Cu125  O146    1.931   .     S
Cu125  O143    1.949   .     S
Cu126  N138    2.026   .     S
Cu126  O140    1.942   .     S
Cu126  O141    1.953   .     S
Cu126  O144    1.949   .     S
Cu126  O145    1.931   .     S
Cu126  Cu217   2.697   .     S
O140   C186    1.291   .     S
O144   C202    1.301   .     S
N149   C151    1.445   .     S
N149   H150    1.029   .     S
N149   C208    1.422   .     S
C151   H154    1.110   .     S
C151   H152    1.111   .     S
C151   H153    1.111   .     S
N155   C157    1.446   .     S
N155   H156    1.029   .     S
C157   H159    1.110   .     S
C157   H160    1.111   .     S
C157   H158    1.111   .     S
N161   C163    1.447   .     S
N161   H162    1.032   .     S
C163   H166    1.110   .     S
C163   H164    1.112   .     S
C163   H257    1.110   .     S
N167   H168    1.032   .     S
N167   C169    1.447   .     S
C169   H170    1.109   .     S
C169   H171    1.110   .     S
C169   H172    1.110   .     S
N173   H174    1.023   .     S
N173   C175    1.449   .     S
C175   H176    1.110   .     S
C175   H177    1.111   .     S
C175   H178    1.110   .     S
N179   H180    1.023   .     S
N179   C181    1.449   .     S
C181   H183    1.110   .     S
C181   H184    1.111   .     S
C181   H182    1.107   .     S
C185   C196    1.436   .     S
C185   O233    1.296   .     A
C185   O47     1.289   1_655 S
C186   O234    1.295   .     A
C186   C195    1.438   .     S
C187   H223    1.076   .     S
C187   C216    1.416   .     A
C187   C189    1.385   .     A
C188   H224    1.077   .     S
C188   C190    1.385   .     A
C188   C215    1.415   .     A
C189   H239    1.084   .     S
C189   C1041   1.390   1_554 S
C190   H240    1.084   .     S
C190   C1042   1.390   .     S
C191   C196    1.395   .     A
C191   H225    1.084   .     S
C191   C745    1.391   1_545 S
C192   H226    1.084   .     S
C192   C195    1.397   .     A
C192   C470    1.392   .     S
C193   N253    1.424   .     S
C193   C467    1.391   .     S
C193   C11     1.406   1_655 S
C194   N259    1.423   .     S
C194   C744    1.392   1_545 S
C196   C10     1.405   1_655 S
C197   N230    1.392   .     A
C197   N265    1.423   .     S
C197   C199    1.417   .     A
C198   N271    1.421   .     S
C198   C200    1.416   .     A
C198   N229    1.391   .     A
C199   N229    1.352   .     A
C199   H227    1.079   .     S
C200   H228    1.080   .     S
C200   N230    1.352   .     A
C201   O237    1.307   .     A
C201   C203    1.479   .     S
C201   O51     1.300   1_655 S
C202   C204    1.483   .     S
C202   O238    1.308   .     A
C203   C207    1.420   .     A
C203   C209    1.401   .     A
C204   C208    1.421   .     A
C204   C210    1.404   .     A
C205   C207    1.395   .     A
C205   C213    1.398   .     A
C205   H221    1.085   .     S
C206   H222    1.084   .     S
C206   C208    1.395   .     A
C206   C214    1.398   .     A
C207   N63     1.422   1_655 S
C209   C211    1.407   .     A
C209   H220    1.076   .     S
C210   C212    1.407   .     A
C210   H219    1.074   .     S
C211   C213    1.414   .     A
C211   C215    1.426   .     A
C212   C216    1.427   .     A
C212   C214    1.414   .     A
C213   C1017   1.390   .     S
C214   C1018   1.390   1_554 S
C215   C1044   1.427   .     S
C216   C1043   1.427   1_554 S
Cu217  N229    2.026   .     S
Cu217  O234    1.953   .     S
Cu217  O231    1.942   .     S
Cu217  O238    1.931   .     S
Cu217  O235    1.949   .     S
Cu218  N230    2.026   .     S
Cu218  O232    1.942   .     S
Cu218  O233    1.953   .     S
Cu218  O236    1.949   .     S
Cu218  O237    1.931   .     S
Cu218  Cu33    2.697   1_655 S
O232   C2      1.291   1_655 S
O236   C18     1.301   1_655 S
N241   C243    1.445   .     S
N241   H242    1.029   .     S
N241   C24     1.422   1_655 S
C243   H246    1.110   .     S
C243   H244    1.111   .     S
C243   H245    1.111   .     S
N247   C249    1.446   .     S
N247   H248    1.029   .     S
C249   H251    1.110   .     S
C249   H252    1.111   .     S
C249   H250    1.111   .     S
N253   C255    1.447   .     S
N253   H254    1.032   .     S
C255   H258    1.110   .     S
C255   H256    1.112   .     S
C255   H73     1.110   1_655 S
N259   H260    1.032   .     S
N259   C261    1.447   .     S
C261   H262    1.109   .     S
C261   H263    1.110   .     S
C261   H264    1.110   .     S
N265   H266    1.023   .     S
N265   C267    1.449   .     S
C267   H268    1.110   .     S
C267   H269    1.111   .     S
C267   H270    1.110   .     S
N271   H272    1.023   .     S
N271   C273    1.449   .     S
C273   H275    1.110   .     S
C273   H276    1.111   .     S
C273   H274    1.107   .     S
C277   C288    1.436   .     S
C277   O325    1.296   .     A
C277   O415    1.289   .     S
C278   O326    1.295   .     A
C278   C287    1.438   .     S
C278   O508    1.291   1_455 S
C279   H315    1.076   .     S
C279   C308    1.416   .     A
C279   C281    1.385   .     A
C280   H316    1.077   .     S
C280   C282    1.385   .     A
C280   C307    1.415   .     A
C281   H331    1.084   .     S
C281   C1133   1.390   1_554 S
C282   H332    1.084   .     S
C282   C1134   1.390   .     S
C283   C288    1.395   .     A
C283   H317    1.084   .     S
C284   H318    1.084   .     S
C284   C287    1.397   .     A
C284   C562    1.392   .     S
C285   N345    1.424   .     S
C285   C559    1.391   .     S
C285   C379    1.406   .     S
C286   N351    1.423   .     S
C286   C472    1.405   1_455 S
C287   C469    1.406   1_455 S
C288   C378    1.405   .     S
C289   N322    1.392   .     A
C289   N357    1.423   .     S
C289   C291    1.417   .     A
C290   N363    1.421   .     S
C290   C292    1.416   .     A
C290   N321    1.391   .     A
C291   N321    1.352   .     A
C291   H319    1.079   .     S
C292   H320    1.080   .     S
C292   N322    1.352   .     A
C293   O329    1.307   .     A
C293   C295    1.479   .     S
C293   O419    1.300   .     S
C294   C296    1.483   .     S
C294   O330    1.308   .     A
C294   O512    1.301   1_455 S
C295   C299    1.420   .     A
C295   C301    1.401   .     A
C296   C300    1.421   .     A
C296   C302    1.404   .     A
C297   C299    1.395   .     A
C297   C305    1.398   .     A
C297   H313    1.085   .     S
C298   H314    1.084   .     S
C298   C300    1.395   .     A
C298   C306    1.398   .     A
C299   N431    1.422   .     S
C300   N517    1.422   1_455 S
C301   C303    1.407   .     A
C301   H312    1.076   .     S
C302   C304    1.407   .     A
C302   H311    1.074   .     S
C303   C305    1.414   .     A
C303   C307    1.426   .     A
C304   C308    1.427   .     A
C304   C306    1.414   .     A
C305   C1109   1.390   .     S
C306   C1110   1.390   1_554 S
C307   C1136   1.427   .     S
C308   C1135   1.427   1_554 S
Cu309  N321    2.026   .     S
Cu309  O326    1.953   .     S
Cu309  O323    1.942   .     S
Cu309  O330    1.931   .     S
Cu309  O327    1.949   .     S
Cu309  Cu494   2.697   1_455 S
Cu310  N322    2.026   .     S
Cu310  O324    1.942   .     S
Cu310  O325    1.953   .     S
Cu310  O328    1.949   .     S
Cu310  O329    1.931   .     S
Cu310  Cu401   2.697   .     S
O323   C461    1.289   1_455 S
O324   C370    1.291   .     S
O327   C477    1.300   1_455 S
O328   C386    1.301   .     S
N333   C335    1.445   .     S
N333   H334    1.029   .     S
N333   C392    1.422   .     S
C335   H338    1.110   .     S
C335   H336    1.111   .     S
C335   H337    1.111   .     S
N339   C341    1.446   .     S
N339   H340    1.029   .     S
N339   C483    1.422   1_455 S
C341   H343    1.110   .     S
C341   H344    1.111   .     S
C341   H342    1.111   .     S
N345   C347    1.447   .     S
N345   H346    1.032   .     S
C347   H350    1.110   .     S
C347   H348    1.112   .     S
C347   H441    1.110   .     S
H349   C531    1.110   1_455 S
N351   H352    1.032   .     S
N351   C353    1.447   .     S
C353   H354    1.109   .     S
C353   H355    1.110   .     S
C353   H356    1.110   .     S
N357   H358    1.023   .     S
N357   C359    1.449   .     S
C359   H360    1.110   .     S
C359   H361    1.111   .     S
C359   H362    1.110   .     S
N363   H364    1.023   .     S
N363   C365    1.449   .     S
C365   H367    1.110   .     S
C365   H368    1.111   .     S
C365   H366    1.107   .     S
C369   C380    1.436   .     S
C369   O417    1.296   .     A
C369   O507    1.289   .     S
C370   O418    1.295   .     A
C370   C379    1.438   .     S
C371   H407    1.076   .     S
C371   C400    1.416   .     A
C371   C373    1.385   .     A
C372   H408    1.077   .     S
C372   C374    1.385   .     A
C372   C399    1.415   .     A
C373   H423    1.084   .     S
C373   C1225   1.390   1_554 S
C374   H424    1.084   .     S
C374   C1226   1.390   .     S
C375   C380    1.395   .     A
C375   H409    1.084   .     S
C376   H410    1.084   .     S
C376   C379    1.397   .     A
C376   C654    1.392   .     S
C377   N437    1.424   .     S
C377   C651    1.391   .     S
C377   C471    1.406   .     S
C378   N443    1.423   .     S
C380   C470    1.405   .     S
C381   N414    1.392   .     A
C381   N449    1.423   .     S
C381   C383    1.417   .     A
C382   N455    1.421   .     S
C382   C384    1.416   .     A
C382   N413    1.391   .     A
C383   N413    1.352   .     A
C383   H411    1.079   .     S
C384   H412    1.080   .     S
C384   N414    1.352   .     A
C385   O421    1.307   .     A
C385   C387    1.479   .     S
C385   O511    1.300   .     S
C386   C388    1.483   .     S
C386   O422    1.308   .     A
C387   C391    1.420   .     A
C387   C393    1.401   .     A
C388   C392    1.421   .     A
C388   C394    1.404   .     A
C389   C391    1.395   .     A
C389   C397    1.398   .     A
C389   H405    1.085   .     S
C390   H406    1.084   .     S
C390   C392    1.395   .     A
C390   C398    1.398   .     A
C391   N523    1.422   .     S
C393   C395    1.407   .     A
C393   H404    1.076   .     S
C394   C396    1.407   .     A
C394   H403    1.074   .     S
C395   C397    1.414   .     A
C395   C399    1.426   .     A
C396   C400    1.427   .     A
C396   C398    1.414   .     A
C397   C1201   1.390   .     S
C398   C1202   1.390   1_554 S
C399   C1228   1.427   .     S
C400   C1227   1.427   1_554 S
Cu401  N413    2.026   .     S
Cu401  O418    1.953   .     S
Cu401  O415    1.942   .     S
Cu401  O422    1.931   .     S
Cu401  O419    1.949   .     S
Cu402  N414    2.026   .     S
Cu402  O416    1.942   .     S
Cu402  O417    1.953   .     S
Cu402  O420    1.949   .     S
Cu402  O421    1.931   .     S
Cu402  Cu493   2.697   .     S
O416   C462    1.291   .     S
O420   C478    1.301   .     S
N425   C427    1.445   .     S
N425   H426    1.029   .     S
N425   C484    1.422   .     S
C427   H430    1.110   .     S
C427   H428    1.111   .     S
C427   H429    1.111   .     S
N431   C433    1.446   .     S
N431   H432    1.029   .     S
C433   H435    1.110   .     S
C433   H436    1.111   .     S
C433   H434    1.111   .     S
N437   C439    1.447   .     S
N437   H438    1.032   .     S
C439   H442    1.110   .     S
C439   H440    1.112   .     S
C439   H533    1.110   .     S
N443   H444    1.032   .     S
N443   C445    1.447   .     S
C445   H446    1.109   .     S
C445   H447    1.110   .     S
C445   H448    1.110   .     S
N449   H450    1.023   .     S
N449   C451    1.449   .     S
C451   H452    1.110   .     S
C451   H453    1.111   .     S
C451   H454    1.110   .     S
N455   H456    1.023   .     S
N455   C457    1.449   .     S
C457   H459    1.110   .     S
C457   H460    1.111   .     S
C457   H458    1.107   .     S
C461   C472    1.436   .     S
C461   O509    1.296   .     A
C461   O323    1.289   1_655 S
C462   O510    1.295   .     A
C462   C471    1.438   .     S
C463   H499    1.076   .     S
C463   C492    1.416   .     A
C463   C465    1.385   .     A
C464   H500    1.077   .     S
C464   C466    1.385   .     A
C464   C491    1.415   .     A
C465   H515    1.084   .     S
C465   C1317   1.390   1_554 S
C466   H516    1.084   .     S
C466   C1318   1.390   .     S
C467   C472    1.395   .     A
C467   H501    1.084   .     S
C468   H502    1.084   .     S
C468   C471    1.397   .     A
C468   C746    1.392   .     S
C469   N529    1.424   .     S
C469   C743    1.391   .     S
C469   C287    1.406   1_655 S
C470   N535    1.423   .     S
C472   C286    1.405   1_655 S
C473   N506    1.392   .     A
C473   N541    1.423   .     S
C473   C475    1.417   .     A
C474   N547    1.421   .     S
C474   C476    1.416   .     A
C474   N505    1.391   .     A
C475   N505    1.352   .     A
C475   H503    1.079   .     S
C476   H504    1.080   .     S
C476   N506    1.352   .     A
C477   O513    1.307   .     A
C477   C479    1.479   .     S
C477   O327    1.300   1_655 S
C478   C480    1.483   .     S
C478   O514    1.308   .     A
C479   C483    1.420   .     A
C479   C485    1.401   .     A
C480   C484    1.421   .     A
C480   C486    1.404   .     A
C481   C483    1.395   .     A
C481   C489    1.398   .     A
C481   H497    1.085   .     S
C482   H498    1.084   .     S
C482   C484    1.395   .     A
C482   C490    1.398   .     A
C483   N339    1.422   1_655 S
C485   C487    1.407   .     A
C485   H496    1.076   .     S
C486   C488    1.407   .     A
C486   H495    1.074   .     S
C487   C489    1.414   .     A
C487   C491    1.426   .     A
C488   C492    1.427   .     A
C488   C490    1.414   .     A
C489   C1293   1.390   .     S
C490   C1294   1.390   1_554 S
C491   C1320   1.427   .     S
C492   C1319   1.427   1_554 S
Cu493  N505    2.026   .     S
Cu493  O510    1.953   .     S
Cu493  O507    1.942   .     S
Cu493  O514    1.931   .     S
Cu493  O511    1.949   .     S
Cu494  N506    2.026   .     S
Cu494  O508    1.942   .     S
Cu494  O509    1.953   .     S
Cu494  O512    1.949   .     S
Cu494  O513    1.931   .     S
Cu494  Cu309   2.697   1_655 S
O508   C278    1.291   1_655 S
O512   C294    1.301   1_655 S
N517   C519    1.445   .     S
N517   H518    1.029   .     S
N517   C300    1.422   1_655 S
C519   H522    1.110   .     S
C519   H520    1.111   .     S
C519   H521    1.111   .     S
N523   C525    1.446   .     S
N523   H524    1.029   .     S
C525   H527    1.110   .     S
C525   H528    1.111   .     S
C525   H526    1.111   .     S
N529   C531    1.447   .     S
N529   H530    1.032   .     S
C531   H534    1.110   .     S
C531   H532    1.112   .     S
C531   H349    1.110   1_655 S
N535   H536    1.032   .     S
N535   C537    1.447   .     S
C537   H538    1.109   .     S
C537   H539    1.110   .     S
C537   H540    1.110   .     S
N541   H542    1.023   .     S
N541   C543    1.449   .     S
C543   H544    1.110   .     S
C543   H545    1.111   .     S
C543   H546    1.110   .     S
N547   H548    1.023   .     S
N547   C549    1.449   .     S
C549   H551    1.110   .     S
C549   H552    1.111   .     S
C549   H550    1.107   .     S
C553   C564    1.436   .     S
C553   O601    1.296   .     A
C553   O691    1.289   .     S
C554   O602    1.295   .     A
C554   C563    1.438   .     S
C554   O784    1.291   1_455 S
C555   H591    1.076   .     S
C555   C584    1.416   .     A
C555   C557    1.385   .     A
C556   H592    1.077   .     S
C556   C558    1.385   .     A
C556   C583    1.415   .     A
C557   H607    1.084   .     S
C557   C1409   1.390   1_554 S
C558   H608    1.084   .     S
C558   C1410   1.390   .     S
C559   C564    1.395   .     A
C559   H593    1.084   .     S
C560   H594    1.084   .     S
C560   C563    1.397   .     A
C560   C10     1.392   1_565 S
C561   N621    1.424   .     S
C561   C7      1.391   1_565 S
C561   C655    1.406   .     S
C562   N627    1.423   .     S
C562   C748    1.405   1_455 S
C563   C745    1.406   1_455 S
C564   C654    1.405   .     S
C565   N598    1.392   .     A
C565   N633    1.423   .     S
C565   C567    1.417   .     A
C566   N639    1.421   .     S
C566   C568    1.416   .     A
C566   N597    1.391   .     A
C567   N597    1.352   .     A
C567   H595    1.079   .     S
C568   H596    1.080   .     S
C568   N598    1.352   .     A
C569   O605    1.307   .     A
C569   C571    1.479   .     S
C569   O695    1.300   .     S
C570   C572    1.483   .     S
C570   O606    1.308   .     A
C570   O788    1.301   1_455 S
C571   C575    1.420   .     A
C571   C577    1.401   .     A
C572   C576    1.421   .     A
C572   C578    1.404   .     A
C573   C575    1.395   .     A
C573   C581    1.398   .     A
C573   H589    1.085   .     S
C574   H590    1.084   .     S
C574   C576    1.395   .     A
C574   C582    1.398   .     A
C575   N707    1.422   .     S
C576   N793    1.422   1_455 S
C577   C579    1.407   .     A
C577   H588    1.076   .     S
C578   C580    1.407   .     A
C578   H587    1.074   .     S
C579   C581    1.414   .     A
C579   C583    1.426   .     A
C580   C584    1.427   .     A
C580   C582    1.414   .     A
C581   C1385   1.390   .     S
C582   C1386   1.390   1_554 S
C583   C1412   1.427   .     S
C584   C1411   1.427   1_554 S
Cu585  N597    2.026   .     S
Cu585  O602    1.953   .     S
Cu585  O599    1.942   .     S
Cu585  O606    1.931   .     S
Cu585  O603    1.949   .     S
Cu585  Cu770   2.697   1_455 S
Cu586  N598    2.026   .     S
Cu586  O600    1.942   .     S
Cu586  O601    1.953   .     S
Cu586  O604    1.949   .     S
Cu586  O605    1.931   .     S
Cu586  Cu677   2.697   .     S
O599   C737    1.289   1_455 S
O600   C646    1.291   .     S
O603   C753    1.300   1_455 S
O604   C662    1.301   .     S
N609   C611    1.445   .     S
N609   H610    1.029   .     S
N609   C668    1.422   .     S
C611   H614    1.110   .     S
C611   H612    1.111   .     S
C611   H613    1.111   .     S
N615   C617    1.446   .     S
N615   H616    1.029   .     S
N615   C759    1.422   1_455 S
C617   H619    1.110   .     S
C617   H620    1.111   .     S
C617   H618    1.111   .     S
N621   C623    1.447   .     S
N621   H622    1.032   .     S
C623   H626    1.110   .     S
C623   H624    1.112   .     S
C623   H717    1.110   .     S
H625   C807    1.110   1_455 S
N627   H628    1.032   .     S
N627   C629    1.447   .     S
C629   H630    1.109   .     S
C629   H631    1.110   .     S
C629   H632    1.110   .     S
N633   H634    1.023   .     S
N633   C635    1.449   .     S
C635   H636    1.110   .     S
C635   H637    1.111   .     S
C635   H638    1.110   .     S
N639   H640    1.023   .     S
N639   C641    1.449   .     S
C641   H643    1.110   .     S
C641   H644    1.111   .     S
C641   H642    1.107   .     S
C645   C656    1.436   .     S
C645   O693    1.296   .     A
C645   O783    1.289   .     S
C646   O694    1.295   .     A
C646   C655    1.438   .     S
C647   H683    1.076   .     S
C647   C676    1.416   .     A
C647   C649    1.385   .     A
C648   H684    1.077   .     S
C648   C650    1.385   .     A
C648   C675    1.415   .     A
C649   H699    1.084   .     S
C649   C1501   1.390   1_554 S
C650   H700    1.084   .     S
C650   C1502   1.390   .     S
C651   C656    1.395   .     A
C651   H685    1.084   .     S
C652   H686    1.084   .     S
C652   C655    1.397   .     A
C652   C102    1.392   1_565 S
C653   N713    1.424   .     S
C653   C99     1.391   1_565 S
C653   C747    1.406   .     S
C654   N719    1.423   .     S
C656   C746    1.405   .     S
C657   N690    1.392   .     A
C657   N725    1.423   .     S
C657   C659    1.417   .     A
C658   N731    1.421   .     S
C658   C660    1.416   .     A
C658   N689    1.391   .     A
C659   N689    1.352   .     A
C659   H687    1.079   .     S
C660   H688    1.080   .     S
C660   N690    1.352   .     A
C661   O697    1.307   .     A
C661   C663    1.479   .     S
C661   O787    1.300   .     S
C662   C664    1.483   .     S
C662   O698    1.308   .     A
C663   C667    1.420   .     A
C663   C669    1.401   .     A
C664   C668    1.421   .     A
C664   C670    1.404   .     A
C665   C667    1.395   .     A
C665   C673    1.398   .     A
C665   H681    1.085   .     S
C666   H682    1.084   .     S
C666   C668    1.395   .     A
C666   C674    1.398   .     A
C667   N799    1.422   .     S
C669   C671    1.407   .     A
C669   H680    1.076   .     S
C670   C672    1.407   .     A
C670   H679    1.074   .     S
C671   C673    1.414   .     A
C671   C675    1.426   .     A
C672   C676    1.427   .     A
C672   C674    1.414   .     A
C673   C1477   1.390   .     S
C674   C1478   1.390   1_554 S
C675   C1504   1.427   .     S
C676   C1503   1.427   1_554 S
Cu677  N689    2.026   .     S
Cu677  O694    1.953   .     S
Cu677  O691    1.942   .     S
Cu677  O698    1.931   .     S
Cu677  O695    1.949   .     S
Cu678  N690    2.026   .     S
Cu678  O692    1.942   .     S
Cu678  O693    1.953   .     S
Cu678  O696    1.949   .     S
Cu678  O697    1.931   .     S
Cu678  Cu769   2.697   .     S
O692   C738    1.291   .     S
O696   C754    1.301   .     S
N701   C703    1.445   .     S
N701   H702    1.029   .     S
N701   C760    1.422   .     S
C703   H706    1.110   .     S
C703   H704    1.111   .     S
C703   H705    1.111   .     S
N707   C709    1.446   .     S
N707   H708    1.029   .     S
C709   H711    1.110   .     S
C709   H712    1.111   .     S
C709   H710    1.111   .     S
N713   C715    1.447   .     S
N713   H714    1.032   .     S
C715   H718    1.110   .     S
C715   H716    1.112   .     S
C715   H809    1.110   .     S
N719   H720    1.032   .     S
N719   C721    1.447   .     S
C721   H722    1.109   .     S
C721   H723    1.110   .     S
C721   H724    1.110   .     S
N725   H726    1.023   .     S
N725   C727    1.449   .     S
C727   H728    1.110   .     S
C727   H729    1.111   .     S
C727   H730    1.110   .     S
N731   H732    1.023   .     S
N731   C733    1.449   .     S
C733   H735    1.110   .     S
C733   H736    1.111   .     S
C733   H734    1.107   .     S
C737   C748    1.436   .     S
C737   O785    1.296   .     A
C737   O599    1.289   1_655 S
C738   O786    1.295   .     A
C738   C747    1.438   .     S
C739   H775    1.076   .     S
C739   C768    1.416   .     A
C739   C741    1.385   .     A
C740   H776    1.077   .     S
C740   C742    1.385   .     A
C740   C767    1.415   .     A
C741   H791    1.084   .     S
C741   C1593   1.390   1_554 S
C742   H792    1.084   .     S
C742   C1594   1.390   .     S
C743   C748    1.395   .     A
C743   H777    1.084   .     S
C744   H778    1.084   .     S
C744   C747    1.397   .     A
C744   C194    1.392   1_565 S
C745   N805    1.424   .     S
C745   C191    1.391   1_565 S
C745   C563    1.406   1_655 S
C746   N811    1.423   .     S
C748   C562    1.405   1_655 S
C749   N782    1.392   .     A
C749   N817    1.423   .     S
C749   C751    1.417   .     A
C750   N823    1.421   .     S
C750   C752    1.416   .     A
C750   N781    1.391   .     A
C751   N781    1.352   .     A
C751   H779    1.079   .     S
C752   H780    1.080   .     S
C752   N782    1.352   .     A
C753   O789    1.307   .     A
C753   C755    1.479   .     S
C753   O603    1.300   1_655 S
C754   C756    1.483   .     S
C754   O790    1.308   .     A
C755   C759    1.420   .     A
C755   C761    1.401   .     A
C756   C760    1.421   .     A
C756   C762    1.404   .     A
C757   C759    1.395   .     A
C757   C765    1.398   .     A
C757   H773    1.085   .     S
C758   H774    1.084   .     S
C758   C760    1.395   .     A
C758   C766    1.398   .     A
C759   N615    1.422   1_655 S
C761   C763    1.407   .     A
C761   H772    1.076   .     S
C762   C764    1.407   .     A
C762   H771    1.074   .     S
C763   C765    1.414   .     A
C763   C767    1.426   .     A
C764   C768    1.427   .     A
C764   C766    1.414   .     A
C765   C1569   1.390   .     S
C766   C1570   1.390   1_554 S
C767   C1596   1.427   .     S
C768   C1595   1.427   1_554 S
Cu769  N781    2.026   .     S
Cu769  O786    1.953   .     S
Cu769  O783    1.942   .     S
Cu769  O790    1.931   .     S
Cu769  O787    1.949   .     S
Cu770  N782    2.026   .     S
Cu770  O784    1.942   .     S
Cu770  O785    1.953   .     S
Cu770  O788    1.949   .     S
Cu770  O789    1.931   .     S
Cu770  Cu585   2.697   1_655 S
O784   C554    1.291   1_655 S
O788   C570    1.301   1_655 S
N793   C795    1.445   .     S
N793   H794    1.029   .     S
N793   C576    1.422   1_655 S
C795   H798    1.110   .     S
C795   H796    1.111   .     S
C795   H797    1.111   .     S
N799   C801    1.446   .     S
N799   H800    1.029   .     S
C801   H803    1.110   .     S
C801   H804    1.111   .     S
C801   H802    1.111   .     S
N805   C807    1.447   .     S
N805   H806    1.032   .     S
C807   H810    1.110   .     S
C807   H808    1.112   .     S
C807   H625    1.110   1_655 S
N811   H812    1.032   .     S
N811   C813    1.447   .     S
C813   H814    1.109   .     S
C813   H815    1.110   .     S
C813   H816    1.110   .     S
N817   H818    1.023   .     S
N817   C819    1.449   .     S
C819   H820    1.110   .     S
C819   H821    1.111   .     S
C819   H822    1.110   .     S
N823   H824    1.023   .     S
N823   C825    1.449   .     S
C825   H827    1.110   .     S
C825   H828    1.111   .     S
C825   H826    1.107   .     S
C829   C840    1.436   .     S
C829   O877    1.296   .     A
C829   O967    1.289   .     S
C830   O878    1.295   .     A
C830   C839    1.438   .     S
C830   O1060   1.291   1_455 S
C831   H867    1.076   .     S
C831   C860    1.416   .     A
C831   C833    1.385   .     A
C832   H868    1.077   .     S
C832   C834    1.385   .     A
C832   C859    1.415   .     A
C833   H883    1.084   .     S
C834   H884    1.084   .     S
C834   C30     1.390   1_556 S
C835   C840    1.395   .     A
C835   H869    1.084   .     S
C835   C1389   1.391   1_545 S
C836   H870    1.084   .     S
C836   C839    1.397   .     A
C836   C1114   1.392   .     S
C837   N897    1.424   .     S
C837   C1111   1.391   .     S
C837   C931    1.406   .     S
C838   N903    1.423   .     S
C838   C1388   1.392   1_545 S
C838   C1024   1.405   1_455 S
C839   C1021   1.406   1_455 S
C840   C930    1.405   .     S
C841   N874    1.392   .     A
C841   N909    1.423   .     S
C841   C843    1.417   .     A
C842   N915    1.421   .     S
C842   C844    1.416   .     A
C842   N873    1.391   .     A
C843   N873    1.352   .     A
C843   H871    1.079   .     S
C844   H872    1.080   .     S
C844   N874    1.352   .     A
C845   O881    1.307   .     A
C845   C847    1.479   .     S
C845   O971    1.300   .     S
C846   C848    1.483   .     S
C846   O882    1.308   .     A
C846   O1064   1.301   1_455 S
C847   C851    1.420   .     A
C847   C853    1.401   .     A
C848   C852    1.421   .     A
C848   C854    1.404   .     A
C849   C851    1.395   .     A
C849   C857    1.398   .     A
C849   H865    1.085   .     S
C850   H866    1.084   .     S
C850   C852    1.395   .     A
C850   C858    1.398   .     A
C851   N983    1.422   .     S
C852   N1069   1.422   1_455 S
C853   C855    1.407   .     A
C853   H864    1.076   .     S
C854   C856    1.407   .     A
C854   H863    1.074   .     S
C855   C857    1.414   .     A
C855   C859    1.426   .     A
C856   C860    1.427   .     A
C856   C858    1.414   .     A
C857   C5      1.390   1_556 S
C859   C32     1.427   1_556 S
Cu861  N873    2.026   .     S
Cu861  O878    1.953   .     S
Cu861  O875    1.942   .     S
Cu861  O882    1.931   .     S
Cu861  O879    1.949   .     S
Cu861  Cu1046  2.697   1_455 S
Cu862  N874    2.026   .     S
Cu862  O876    1.942   .     S
Cu862  O877    1.953   .     S
Cu862  O880    1.949   .     S
Cu862  O881    1.931   .     S
Cu862  Cu953   2.697   .     S
O875   C1013   1.289   1_455 S
O876   C922    1.291   .     S
O879   C1029   1.300   1_455 S
O880   C938    1.301   .     S
N885   C887    1.445   .     S
N885   H886    1.029   .     S
N885   C944    1.422   .     S
C887   H890    1.110   .     S
C887   H888    1.111   .     S
C887   H889    1.111   .     S
N891   C893    1.446   .     S
N891   H892    1.029   .     S
N891   C1035   1.422   1_455 S
C893   H895    1.110   .     S
C893   H896    1.111   .     S
C893   H894    1.111   .     S
N897   C899    1.447   .     S
N897   H898    1.032   .     S
C899   H902    1.110   .     S
C899   H900    1.112   .     S
C899   H993    1.110   .     S
H901   C1083   1.110   1_455 S
N903   H904    1.032   .     S
N903   C905    1.447   .     S
C905   H906    1.109   .     S
C905   H907    1.110   .     S
C905   H908    1.110   .     S
N909   H910    1.023   .     S
N909   C911    1.449   .     S
C911   H912    1.110   .     S
C911   H913    1.111   .     S
C911   H914    1.110   .     S
N915   H916    1.023   .     S
N915   C917    1.449   .     S
C917   H919    1.110   .     S
C917   H920    1.111   .     S
C917   H918    1.107   .     S
C921   C932    1.436   .     S
C921   O969    1.296   .     A
C921   O1059   1.289   .     S
C922   O970    1.295   .     A
C922   C931    1.438   .     S
C923   H959    1.076   .     S
C923   C952    1.416   .     A
C923   C925    1.385   .     A
C924   H960    1.077   .     S
C924   C926    1.385   .     A
C924   C951    1.415   .     A
C925   H975    1.084   .     S
C926   H976    1.084   .     S
C926   C122    1.390   1_556 S
C927   C932    1.395   .     A
C927   H961    1.084   .     S
C927   C1481   1.391   1_545 S
C928   H962    1.084   .     S
C928   C931    1.397   .     A
C928   C1206   1.392   .     S
C929   N989    1.424   .     S
C929   C1203   1.391   .     S
C929   C1023   1.406   .     S
C930   N995    1.423   .     S
C930   C1480   1.392   1_545 S
C932   C1022   1.405   .     S
C933   N966    1.392   .     A
C933   N1001   1.423   .     S
C933   C935    1.417   .     A
C934   N1007   1.421   .     S
C934   C936    1.416   .     A
C934   N965    1.391   .     A
C935   N965    1.352   .     A
C935   H963    1.079   .     S
C936   H964    1.080   .     S
C936   N966    1.352   .     A
C937   O973    1.307   .     A
C937   C939    1.479   .     S
C937   O1063   1.300   .     S
C938   C940    1.483   .     S
C938   O974    1.308   .     A
C939   C943    1.420   .     A
C939   C945    1.401   .     A
C940   C944    1.421   .     A
C940   C946    1.404   .     A
C941   C943    1.395   .     A
C941   C949    1.398   .     A
C941   H957    1.085   .     S
C942   H958    1.084   .     S
C942   C944    1.395   .     A
C942   C950    1.398   .     A
C943   N1075   1.422   .     S
C945   C947    1.407   .     A
C945   H956    1.076   .     S
C946   C948    1.407   .     A
C946   H955    1.074   .     S
C947   C949    1.414   .     A
C947   C951    1.426   .     A
C948   C952    1.427   .     A
C948   C950    1.414   .     A
C949   C97     1.390   1_556 S
C951   C124    1.427   1_556 S
Cu953  N965    2.026   .     S
Cu953  O970    1.953   .     S
Cu953  O967    1.942   .     S
Cu953  O974    1.931   .     S
Cu953  O971    1.949   .     S
Cu954  N966    2.026   .     S
Cu954  O968    1.942   .     S
Cu954  O969    1.953   .     S
Cu954  O972    1.949   .     S
Cu954  O973    1.931   .     S
Cu954  Cu1045  2.697   .     S
O968   C1014   1.291   .     S
O972   C1030   1.301   .     S
N977   C979    1.445   .     S
N977   H978    1.029   .     S
N977   C1036   1.422   .     S
C979   H982    1.110   .     S
C979   H980    1.111   .     S
C979   H981    1.111   .     S
N983   C985    1.446   .     S
N983   H984    1.029   .     S
C985   H987    1.110   .     S
C985   H988    1.111   .     S
C985   H986    1.111   .     S
N989   C991    1.447   .     S
N989   H990    1.032   .     S
C991   H994    1.110   .     S
C991   H992    1.112   .     S
C991   H1085   1.110   .     S
N995   H996    1.032   .     S
N995   C997    1.447   .     S
C997   H998    1.109   .     S
C997   H999    1.110   .     S
C997   H1000   1.110   .     S
N1001  H1002   1.023   .     S
N1001  C1003   1.449   .     S
C1003  H1004   1.110   .     S
C1003  H1005   1.111   .     S
C1003  H1006   1.110   .     S
N1007  H1008   1.023   .     S
N1007  C1009   1.449   .     S
C1009  H1011   1.110   .     S
C1009  H1012   1.111   .     S
C1009  H1010   1.107   .     S
C1013  C1024   1.436   .     S
C1013  O1061   1.296   .     A
C1013  O875    1.289   1_655 S
C1014  O1062   1.295   .     A
C1014  C1023   1.438   .     S
C1015  H1051   1.076   .     S
C1015  C1044   1.416   .     A
C1015  C1017   1.385   .     A
C1016  H1052   1.077   .     S
C1016  C1018   1.385   .     A
C1016  C1043   1.415   .     A
C1017  H1067   1.084   .     S
C1018  H1068   1.084   .     S
C1018  C214    1.390   1_556 S
C1019  C1024   1.395   .     A
C1019  H1053   1.084   .     S
C1019  C1573   1.391   1_545 S
C1020  H1054   1.084   .     S
C1020  C1023   1.397   .     A
C1020  C1298   1.392   .     S
C1021  N1081   1.424   .     S
C1021  C1295   1.391   .     S
C1021  C839    1.406   1_655 S
C1022  N1087   1.423   .     S
C1022  C1572   1.392   1_545 S
C1024  C838    1.405   1_655 S
C1025  N1058   1.392   .     A
C1025  N1093   1.423   .     S
C1025  C1027   1.417   .     A
C1026  N1099   1.421   .     S
C1026  C1028   1.416   .     A
C1026  N1057   1.391   .     A
C1027  N1057   1.352   .     A
C1027  H1055   1.079   .     S
C1028  H1056   1.080   .     S
C1028  N1058   1.352   .     A
C1029  O1065   1.307   .     A
C1029  C1031   1.479   .     S
C1029  O879    1.300   1_655 S
C1030  C1032   1.483   .     S
C1030  O1066   1.308   .     A
C1031  C1035   1.420   .     A
C1031  C1037   1.401   .     A
C1032  C1036   1.421   .     A
C1032  C1038   1.404   .     A
C1033  C1035   1.395   .     A
C1033  C1041   1.398   .     A
C1033  H1049   1.085   .     S
C1034  H1050   1.084   .     S
C1034  C1036   1.395   .     A
C1034  C1042   1.398   .     A
C1035  N891    1.422   1_655 S
C1037  C1039   1.407   .     A
C1037  H1048   1.076   .     S
C1038  C1040   1.407   .     A
C1038  H1047   1.074   .     S
C1039  C1041   1.414   .     A
C1039  C1043   1.426   .     A
C1040  C1044   1.427   .     A
C1040  C1042   1.414   .     A
C1041  C189    1.390   1_556 S
C1043  C216    1.427   1_556 S
Cu1045 N1057   2.026   .     S
Cu1045 O1062   1.953   .     S
Cu1045 O1059   1.942   .     S
Cu1045 O1066   1.931   .     S
Cu1045 O1063   1.949   .     S
Cu1046 N1058   2.026   .     S
Cu1046 O1060   1.942   .     S
Cu1046 O1061   1.953   .     S
Cu1046 O1064   1.949   .     S
Cu1046 O1065   1.931   .     S
Cu1046 Cu861   2.697   1_655 S
O1060  C830    1.291   1_655 S
O1064  C846    1.301   1_655 S
N1069  C1071   1.445   .     S
N1069  H1070   1.029   .     S
N1069  C852    1.422   1_655 S
C1071  H1074   1.110   .     S
C1071  H1072   1.111   .     S
C1071  H1073   1.111   .     S
N1075  C1077   1.446   .     S
N1075  H1076   1.029   .     S
C1077  H1079   1.110   .     S
C1077  H1080   1.111   .     S
C1077  H1078   1.111   .     S
N1081  C1083   1.447   .     S
N1081  H1082   1.032   .     S
C1083  H1086   1.110   .     S
C1083  H1084   1.112   .     S
C1083  H901    1.110   1_655 S
N1087  H1088   1.032   .     S
N1087  C1089   1.447   .     S
C1089  H1090   1.109   .     S
C1089  H1091   1.110   .     S
C1089  H1092   1.110   .     S
N1093  H1094   1.023   .     S
N1093  C1095   1.449   .     S
C1095  H1096   1.110   .     S
C1095  H1097   1.111   .     S
C1095  H1098   1.110   .     S
N1099  H1100   1.023   .     S
N1099  C1101   1.449   .     S
C1101  H1103   1.110   .     S
C1101  H1104   1.111   .     S
C1101  H1102   1.107   .     S
C1105  C1116   1.436   .     S
C1105  O1153   1.296   .     A
C1105  O1243   1.289   .     S
C1106  O1154   1.295   .     A
C1106  C1115   1.438   .     S
C1106  O1336   1.291   1_455 S
C1107  H1143   1.076   .     S
C1107  C1136   1.416   .     A
C1107  C1109   1.385   .     A
C1108  H1144   1.077   .     S
C1108  C1110   1.385   .     A
C1108  C1135   1.415   .     A
C1109  H1159   1.084   .     S
C1110  H1160   1.084   .     S
C1110  C306    1.390   1_556 S
C1111  C1116   1.395   .     A
C1111  H1145   1.084   .     S
C1112  H1146   1.084   .     S
C1112  C1115   1.397   .     A
C1112  C1390   1.392   .     S
C1113  N1173   1.424   .     S
C1113  C1387   1.391   .     S
C1113  C1207   1.406   .     S
C1114  N1179   1.423   .     S
C1114  C1300   1.405   1_455 S
C1115  C1297   1.406   1_455 S
C1116  C1206   1.405   .     S
C1117  N1150   1.392   .     A
C1117  N1185   1.423   .     S
C1117  C1119   1.417   .     A
C1118  N1191   1.421   .     S
C1118  C1120   1.416   .     A
C1118  N1149   1.391   .     A
C1119  N1149   1.352   .     A
C1119  H1147   1.079   .     S
C1120  H1148   1.080   .     S
C1120  N1150   1.352   .     A
C1121  O1157   1.307   .     A
C1121  C1123   1.479   .     S
C1121  O1247   1.300   .     S
C1122  C1124   1.483   .     S
C1122  O1158   1.308   .     A
C1122  O1340   1.301   1_455 S
C1123  C1127   1.420   .     A
C1123  C1129   1.401   .     A
C1124  C1128   1.421   .     A
C1124  C1130   1.404   .     A
C1125  C1127   1.395   .     A
C1125  C1133   1.398   .     A
C1125  H1141   1.085   .     S
C1126  H1142   1.084   .     S
C1126  C1128   1.395   .     A
C1126  C1134   1.398   .     A
C1127  N1259   1.422   .     S
C1128  N1345   1.422   1_455 S
C1129  C1131   1.407   .     A
C1129  H1140   1.076   .     S
C1130  C1132   1.407   .     A
C1130  H1139   1.074   .     S
C1131  C1133   1.414   .     A
C1131  C1135   1.426   .     A
C1132  C1136   1.427   .     A
C1132  C1134   1.414   .     A
C1133  C281    1.390   1_556 S
C1135  C308    1.427   1_556 S
Cu1137 N1149   2.026   .     S
Cu1137 O1154   1.953   .     S
Cu1137 O1151   1.942   .     S
Cu1137 O1158   1.931   .     S
Cu1137 O1155   1.949   .     S
Cu1137 Cu1322  2.697   1_455 S
Cu1138 N1150   2.026   .     S
Cu1138 O1152   1.942   .     S
Cu1138 O1153   1.953   .     S
Cu1138 O1156   1.949   .     S
Cu1138 O1157   1.931   .     S
Cu1138 Cu1229  2.697   .     S
O1151  C1289   1.289   1_455 S
O1152  C1198   1.291   .     S
O1155  C1305   1.300   1_455 S
O1156  C1214   1.301   .     S
N1161  C1163   1.445   .     S
N1161  H1162   1.029   .     S
N1161  C1220   1.422   .     S
C1163  H1166   1.110   .     S
C1163  H1164   1.111   .     S
C1163  H1165   1.111   .     S
N1167  C1169   1.446   .     S
N1167  H1168   1.029   .     S
N1167  C1311   1.422   1_455 S
C1169  H1171   1.110   .     S
C1169  H1172   1.111   .     S
C1169  H1170   1.111   .     S
N1173  C1175   1.447   .     S
N1173  H1174   1.032   .     S
C1175  H1178   1.110   .     S
C1175  H1176   1.112   .     S
C1175  H1269   1.110   .     S
H1177  C1359   1.110   1_455 S
N1179  H1180   1.032   .     S
N1179  C1181   1.447   .     S
C1181  H1182   1.109   .     S
C1181  H1183   1.110   .     S
C1181  H1184   1.110   .     S
N1185  H1186   1.023   .     S
N1185  C1187   1.449   .     S
C1187  H1188   1.110   .     S
C1187  H1189   1.111   .     S
C1187  H1190   1.110   .     S
N1191  H1192   1.023   .     S
N1191  C1193   1.449   .     S
C1193  H1195   1.110   .     S
C1193  H1196   1.111   .     S
C1193  H1194   1.107   .     S
C1197  C1208   1.436   .     S
C1197  O1245   1.296   .     A
C1197  O1335   1.289   .     S
C1198  O1246   1.295   .     A
C1198  C1207   1.438   .     S
C1199  H1235   1.076   .     S
C1199  C1228   1.416   .     A
C1199  C1201   1.385   .     A
C1200  H1236   1.077   .     S
C1200  C1202   1.385   .     A
C1200  C1227   1.415   .     A
C1201  H1251   1.084   .     S
C1202  H1252   1.084   .     S
C1202  C398    1.390   1_556 S
C1203  C1208   1.395   .     A
C1203  H1237   1.084   .     S
C1204  H1238   1.084   .     S
C1204  C1207   1.397   .     A
C1204  C1482   1.392   .     S
C1205  N1265   1.424   .     S
C1205  C1479   1.391   .     S
C1205  C1299   1.406   .     S
C1206  N1271   1.423   .     S
C1208  C1298   1.405   .     S
C1209  N1242   1.392   .     A
C1209  N1277   1.423   .     S
C1209  C1211   1.417   .     A
C1210  N1283   1.421   .     S
C1210  C1212   1.416   .     A
C1210  N1241   1.391   .     A
C1211  N1241   1.352   .     A
C1211  H1239   1.079   .     S
C1212  H1240   1.080   .     S
C1212  N1242   1.352   .     A
C1213  O1249   1.307   .     A
C1213  C1215   1.479   .     S
C1213  O1339   1.300   .     S
C1214  C1216   1.483   .     S
C1214  O1250   1.308   .     A
C1215  C1219   1.420   .     A
C1215  C1221   1.401   .     A
C1216  C1220   1.421   .     A
C1216  C1222   1.404   .     A
C1217  C1219   1.395   .     A
C1217  C1225   1.398   .     A
C1217  H1233   1.085   .     S
C1218  H1234   1.084   .     S
C1218  C1220   1.395   .     A
C1218  C1226   1.398   .     A
C1219  N1351   1.422   .     S
C1221  C1223   1.407   .     A
C1221  H1232   1.076   .     S
C1222  C1224   1.407   .     A
C1222  H1231   1.074   .     S
C1223  C1225   1.414   .     A
C1223  C1227   1.426   .     A
C1224  C1228   1.427   .     A
C1224  C1226   1.414   .     A
C1225  C373    1.390   1_556 S
C1227  C400    1.427   1_556 S
Cu1229 N1241   2.026   .     S
Cu1229 O1246   1.953   .     S
Cu1229 O1243   1.942   .     S
Cu1229 O1250   1.931   .     S
Cu1229 O1247   1.949   .     S
Cu1230 N1242   2.026   .     S
Cu1230 O1244   1.942   .     S
Cu1230 O1245   1.953   .     S
Cu1230 O1248   1.949   .     S
Cu1230 O1249   1.931   .     S
Cu1230 Cu1321  2.697   .     S
O1244  C1290   1.291   .     S
O1248  C1306   1.301   .     S
N1253  C1255   1.445   .     S
N1253  H1254   1.029   .     S
N1253  C1312   1.422   .     S
C1255  H1258   1.110   .     S
C1255  H1256   1.111   .     S
C1255  H1257   1.111   .     S
N1259  C1261   1.446   .     S
N1259  H1260   1.029   .     S
C1261  H1263   1.110   .     S
C1261  H1264   1.111   .     S
C1261  H1262   1.111   .     S
N1265  C1267   1.447   .     S
N1265  H1266   1.032   .     S
C1267  H1270   1.110   .     S
C1267  H1268   1.112   .     S
C1267  H1361   1.110   .     S
N1271  H1272   1.032   .     S
N1271  C1273   1.447   .     S
C1273  H1274   1.109   .     S
C1273  H1275   1.110   .     S
C1273  H1276   1.110   .     S
N1277  H1278   1.023   .     S
N1277  C1279   1.449   .     S
C1279  H1280   1.110   .     S
C1279  H1281   1.111   .     S
C1279  H1282   1.110   .     S
N1283  H1284   1.023   .     S
N1283  C1285   1.449   .     S
C1285  H1287   1.110   .     S
C1285  H1288   1.111   .     S
C1285  H1286   1.107   .     S
C1289  C1300   1.436   .     S
C1289  O1337   1.296   .     A
C1289  O1151   1.289   1_655 S
C1290  O1338   1.295   .     A
C1290  C1299   1.438   .     S
C1291  H1327   1.076   .     S
C1291  C1320   1.416   .     A
C1291  C1293   1.385   .     A
C1292  H1328   1.077   .     S
C1292  C1294   1.385   .     A
C1292  C1319   1.415   .     A
C1293  H1343   1.084   .     S
C1294  H1344   1.084   .     S
C1294  C490    1.390   1_556 S
C1295  C1300   1.395   .     A
C1295  H1329   1.084   .     S
C1296  H1330   1.084   .     S
C1296  C1299   1.397   .     A
C1296  C1574   1.392   .     S
C1297  N1357   1.424   .     S
C1297  C1571   1.391   .     S
C1297  C1115   1.406   1_655 S
C1298  N1363   1.423   .     S
C1300  C1114   1.405   1_655 S
C1301  N1334   1.392   .     A
C1301  N1369   1.423   .     S
C1301  C1303   1.417   .     A
C1302  N1375   1.421   .     S
C1302  C1304   1.416   .     A
C1302  N1333   1.391   .     A
C1303  N1333   1.352   .     A
C1303  H1331   1.079   .     S
C1304  H1332   1.080   .     S
C1304  N1334   1.352   .     A
C1305  O1341   1.307   .     A
C1305  C1307   1.479   .     S
C1305  O1155   1.300   1_655 S
C1306  C1308   1.483   .     S
C1306  O1342   1.308   .     A
C1307  C1311   1.420   .     A
C1307  C1313   1.401   .     A
C1308  C1312   1.421   .     A
C1308  C1314   1.404   .     A
C1309  C1311   1.395   .     A
C1309  C1317   1.398   .     A
C1309  H1325   1.085   .     S
C1310  H1326   1.084   .     S
C1310  C1312   1.395   .     A
C1310  C1318   1.398   .     A
C1311  N1167   1.422   1_655 S
C1313  C1315   1.407   .     A
C1313  H1324   1.076   .     S
C1314  C1316   1.407   .     A
C1314  H1323   1.074   .     S
C1315  C1317   1.414   .     A
C1315  C1319   1.426   .     A
C1316  C1320   1.427   .     A
C1316  C1318   1.414   .     A
C1317  C465    1.390   1_556 S
C1319  C492    1.427   1_556 S
Cu1321 N1333   2.026   .     S
Cu1321 O1338   1.953   .     S
Cu1321 O1335   1.942   .     S
Cu1321 O1342   1.931   .     S
Cu1321 O1339   1.949   .     S
Cu1322 N1334   2.026   .     S
Cu1322 O1336   1.942   .     S
Cu1322 O1337   1.953   .     S
Cu1322 O1340   1.949   .     S
Cu1322 O1341   1.931   .     S
Cu1322 Cu1137  2.697   1_655 S
O1336  C1106   1.291   1_655 S
O1340  C1122   1.301   1_655 S
N1345  C1347   1.445   .     S
N1345  H1346   1.029   .     S
N1345  C1128   1.422   1_655 S
C1347  H1350   1.110   .     S
C1347  H1348   1.111   .     S
C1347  H1349   1.111   .     S
N1351  C1353   1.446   .     S
N1351  H1352   1.029   .     S
C1353  H1355   1.110   .     S
C1353  H1356   1.111   .     S
C1353  H1354   1.111   .     S
N1357  C1359   1.447   .     S
N1357  H1358   1.032   .     S
C1359  H1362   1.110   .     S
C1359  H1360   1.112   .     S
C1359  H1177   1.110   1_655 S
N1363  H1364   1.032   .     S
N1363  C1365   1.447   .     S
C1365  H1366   1.109   .     S
C1365  H1367   1.110   .     S
C1365  H1368   1.110   .     S
N1369  H1370   1.023   .     S
N1369  C1371   1.449   .     S
C1371  H1372   1.110   .     S
C1371  H1373   1.111   .     S
C1371  H1374   1.110   .     S
N1375  H1376   1.023   .     S
N1375  C1377   1.449   .     S
C1377  H1379   1.110   .     S
C1377  H1380   1.111   .     S
C1377  H1378   1.107   .     S
C1381  C1392   1.436   .     S
C1381  O1429   1.296   .     A
C1381  O1519   1.289   .     S
C1382  O1430   1.295   .     A
C1382  C1391   1.438   .     S
C1382  O1612   1.291   1_455 S
C1383  H1419   1.076   .     S
C1383  C1412   1.416   .     A
C1383  C1385   1.385   .     A
C1384  H1420   1.077   .     S
C1384  C1386   1.385   .     A
C1384  C1411   1.415   .     A
C1385  H1435   1.084   .     S
C1386  H1436   1.084   .     S
C1386  C582    1.390   1_556 S
C1387  C1392   1.395   .     A
C1387  H1421   1.084   .     S
C1388  H1422   1.084   .     S
C1388  C1391   1.397   .     A
C1388  C838    1.392   1_565 S
C1389  N1449   1.424   .     S
C1389  C835    1.391   1_565 S
C1389  C1483   1.406   .     S
C1390  N1455   1.423   .     S
C1390  C1576   1.405   1_455 S
C1391  C1573   1.406   1_455 S
C1392  C1482   1.405   .     S
C1393  N1426   1.392   .     A
C1393  N1461   1.423   .     S
C1393  C1395   1.417   .     A
C1394  N1467   1.421   .     S
C1394  C1396   1.416   .     A
C1394  N1425   1.391   .     A
C1395  N1425   1.352   .     A
C1395  H1423   1.079   .     S
C1396  H1424   1.080   .     S
C1396  N1426   1.352   .     A
C1397  O1433   1.307   .     A
C1397  C1399   1.479   .     S
C1397  O1523   1.300   .     S
C1398  C1400   1.483   .     S
C1398  O1434   1.308   .     A
C1398  O1616   1.301   1_455 S
C1399  C1403   1.420   .     A
C1399  C1405   1.401   .     A
C1400  C1404   1.421   .     A
C1400  C1406   1.404   .     A
C1401  C1403   1.395   .     A
C1401  C1409   1.398   .     A
C1401  H1417   1.085   .     S
C1402  H1418   1.084   .     S
C1402  C1404   1.395   .     A
C1402  C1410   1.398   .     A
C1403  N1535   1.422   .     S
C1404  N1621   1.422   1_455 S
C1405  C1407   1.407   .     A
C1405  H1416   1.076   .     S
C1406  C1408   1.407   .     A
C1406  H1415   1.074   .     S
C1407  C1409   1.414   .     A
C1407  C1411   1.426   .     A
C1408  C1412   1.427   .     A
C1408  C1410   1.414   .     A
C1409  C557    1.390   1_556 S
C1411  C584    1.427   1_556 S
Cu1413 N1425   2.026   .     S
Cu1413 O1430   1.953   .     S
Cu1413 O1427   1.942   .     S
Cu1413 O1434   1.931   .     S
Cu1413 O1431   1.949   .     S
Cu1413 Cu1598  2.697   1_455 S
Cu1414 N1426   2.026   .     S
Cu1414 O1428   1.942   .     S
Cu1414 O1429   1.953   .     S
Cu1414 O1432   1.949   .     S
Cu1414 O1433   1.931   .     S
Cu1414 Cu1505  2.697   .     S
O1427  C1565   1.289   1_455 S
O1428  C1474   1.291   .     S
O1431  C1581   1.300   1_455 S
O1432  C1490   1.301   .     S
N1437  C1439   1.445   .     S
N1437  H1438   1.029   .     S
N1437  C1496   1.422   .     S
C1439  H1442   1.110   .     S
C1439  H1440   1.111   .     S
C1439  H1441   1.111   .     S
N1443  C1445   1.446   .     S
N1443  H1444   1.029   .     S
N1443  C1587   1.422   1_455 S
C1445  H1447   1.110   .     S
C1445  H1448   1.111   .     S
C1445  H1446   1.111   .     S
N1449  C1451   1.447   .     S
N1449  H1450   1.032   .     S
C1451  H1454   1.110   .     S
C1451  H1452   1.112   .     S
C1451  H1545   1.110   .     S
H1453  C1635   1.110   1_455 S
N1455  H1456   1.032   .     S
N1455  C1457   1.447   .     S
C1457  H1458   1.109   .     S
C1457  H1459   1.110   .     S
C1457  H1460   1.110   .     S
N1461  H1462   1.023   .     S
N1461  C1463   1.449   .     S
C1463  H1464   1.110   .     S
C1463  H1465   1.111   .     S
C1463  H1466   1.110   .     S
N1467  H1468   1.023   .     S
N1467  C1469   1.449   .     S
C1469  H1471   1.110   .     S
C1469  H1472   1.111   .     S
C1469  H1470   1.107   .     S
C1473  C1484   1.436   .     S
C1473  O1521   1.296   .     A
C1473  O1611   1.289   .     S
C1474  O1522   1.295   .     A
C1474  C1483   1.438   .     S
C1475  H1511   1.076   .     S
C1475  C1504   1.416   .     A
C1475  C1477   1.385   .     A
C1476  H1512   1.077   .     S
C1476  C1478   1.385   .     A
C1476  C1503   1.415   .     A
C1477  H1527   1.084   .     S
C1478  H1528   1.084   .     S
C1478  C674    1.390   1_556 S
C1479  C1484   1.395   .     A
C1479  H1513   1.084   .     S
C1480  H1514   1.084   .     S
C1480  C1483   1.397   .     A
C1480  C930    1.392   1_565 S
C1481  N1541   1.424   .     S
C1481  C927    1.391   1_565 S
C1481  C1575   1.406   .     S
C1482  N1547   1.423   .     S
C1484  C1574   1.405   .     S
C1485  N1518   1.392   .     A
C1485  N1553   1.423   .     S
C1485  C1487   1.417   .     A
C1486  N1559   1.421   .     S
C1486  C1488   1.416   .     A
C1486  N1517   1.391   .     A
C1487  N1517   1.352   .     A
C1487  H1515   1.079   .     S
C1488  H1516   1.080   .     S
C1488  N1518   1.352   .     A
C1489  O1525   1.307   .     A
C1489  C1491   1.479   .     S
C1489  O1615   1.300   .     S
C1490  C1492   1.483   .     S
C1490  O1526   1.308   .     A
C1491  C1495   1.420   .     A
C1491  C1497   1.401   .     A
C1492  C1496   1.421   .     A
C1492  C1498   1.404   .     A
C1493  C1495   1.395   .     A
C1493  C1501   1.398   .     A
C1493  H1509   1.085   .     S
C1494  H1510   1.084   .     S
C1494  C1496   1.395   .     A
C1494  C1502   1.398   .     A
C1495  N1627   1.422   .     S
C1497  C1499   1.407   .     A
C1497  H1508   1.076   .     S
C1498  C1500   1.407   .     A
C1498  H1507   1.074   .     S
C1499  C1501   1.414   .     A
C1499  C1503   1.426   .     A
C1500  C1504   1.427   .     A
C1500  C1502   1.414   .     A
C1501  C649    1.390   1_556 S
C1503  C676    1.427   1_556 S
Cu1505 N1517   2.026   .     S
Cu1505 O1522   1.953   .     S
Cu1505 O1519   1.942   .     S
Cu1505 O1526   1.931   .     S
Cu1505 O1523   1.949   .     S
Cu1506 N1518   2.026   .     S
Cu1506 O1520   1.942   .     S
Cu1506 O1521   1.953   .     S
Cu1506 O1524   1.949   .     S
Cu1506 O1525   1.931   .     S
Cu1506 Cu1597  2.697   .     S
O1520  C1566   1.291   .     S
O1524  C1582   1.301   .     S
N1529  C1531   1.445   .     S
N1529  H1530   1.029   .     S
N1529  C1588   1.422   .     S
C1531  H1534   1.110   .     S
C1531  H1532   1.111   .     S
C1531  H1533   1.111   .     S
N1535  C1537   1.446   .     S
N1535  H1536   1.029   .     S
C1537  H1539   1.110   .     S
C1537  H1540   1.111   .     S
C1537  H1538   1.111   .     S
N1541  C1543   1.447   .     S
N1541  H1542   1.032   .     S
C1543  H1546   1.110   .     S
C1543  H1544   1.112   .     S
C1543  H1637   1.110   .     S
N1547  H1548   1.032   .     S
N1547  C1549   1.447   .     S
C1549  H1550   1.109   .     S
C1549  H1551   1.110   .     S
C1549  H1552   1.110   .     S
N1553  H1554   1.023   .     S
N1553  C1555   1.449   .     S
C1555  H1556   1.110   .     S
C1555  H1557   1.111   .     S
C1555  H1558   1.110   .     S
N1559  H1560   1.023   .     S
N1559  C1561   1.449   .     S
C1561  H1563   1.110   .     S
C1561  H1564   1.111   .     S
C1561  H1562   1.107   .     S
C1565  C1576   1.436   .     S
C1565  O1613   1.296   .     A
C1565  O1427   1.289   1_655 S
C1566  O1614   1.295   .     A
C1566  C1575   1.438   .     S
C1567  H1603   1.076   .     S
C1567  C1596   1.416   .     A
C1567  C1569   1.385   .     A
C1568  H1604   1.077   .     S
C1568  C1570   1.385   .     A
C1568  C1595   1.415   .     A
C1569  H1619   1.084   .     S
C1570  H1620   1.084   .     S
C1570  C766    1.390   1_556 S
C1571  C1576   1.395   .     A
C1571  H1605   1.084   .     S
C1572  H1606   1.084   .     S
C1572  C1575   1.397   .     A
C1572  C1022   1.392   1_565 S
C1573  N1633   1.424   .     S
C1573  C1019   1.391   1_565 S
C1573  C1391   1.406   1_655 S
C1574  N1639   1.423   .     S
C1576  C1390   1.405   1_655 S
C1577  N1610   1.392   .     A
C1577  N1645   1.423   .     S
C1577  C1579   1.417   .     A
C1578  N1651   1.421   .     S
C1578  C1580   1.416   .     A
C1578  N1609   1.391   .     A
C1579  N1609   1.352   .     A
C1579  H1607   1.079   .     S
C1580  H1608   1.080   .     S
C1580  N1610   1.352   .     A
C1581  O1617   1.307   .     A
C1581  C1583   1.479   .     S
C1581  O1431   1.300   1_655 S
C1582  C1584   1.483   .     S
C1582  O1618   1.308   .     A
C1583  C1587   1.420   .     A
C1583  C1589   1.401   .     A
C1584  C1588   1.421   .     A
C1584  C1590   1.404   .     A
C1585  C1587   1.395   .     A
C1585  C1593   1.398   .     A
C1585  H1601   1.085   .     S
C1586  H1602   1.084   .     S
C1586  C1588   1.395   .     A
C1586  C1594   1.398   .     A
C1587  N1443   1.422   1_655 S
C1589  C1591   1.407   .     A
C1589  H1600   1.076   .     S
C1590  C1592   1.407   .     A
C1590  H1599   1.074   .     S
C1591  C1593   1.414   .     A
C1591  C1595   1.426   .     A
C1592  C1596   1.427   .     A
C1592  C1594   1.414   .     A
C1593  C741    1.390   1_556 S
C1595  C768    1.427   1_556 S
Cu1597 N1609   2.026   .     S
Cu1597 O1614   1.953   .     S
Cu1597 O1611   1.942   .     S
Cu1597 O1618   1.931   .     S
Cu1597 O1615   1.949   .     S
Cu1598 N1610   2.026   .     S
Cu1598 O1612   1.942   .     S
Cu1598 O1613   1.953   .     S
Cu1598 O1616   1.949   .     S
Cu1598 O1617   1.931   .     S
Cu1598 Cu1413  2.697   1_655 S
O1612  C1382   1.291   1_655 S
O1616  C1398   1.301   1_655 S
N1621  C1623   1.445   .     S
N1621  H1622   1.029   .     S
N1621  C1404   1.422   1_655 S
C1623  H1626   1.110   .     S
C1623  H1624   1.111   .     S
C1623  H1625   1.111   .     S
N1627  C1629   1.446   .     S
N1627  H1628   1.029   .     S
C1629  H1631   1.110   .     S
C1629  H1632   1.111   .     S
C1629  H1630   1.111   .     S
N1633  C1635   1.447   .     S
N1633  H1634   1.032   .     S
C1635  H1638   1.110   .     S
C1635  H1636   1.112   .     S
C1635  H1453   1.110   1_655 S
N1639  H1640   1.032   .     S
N1639  C1641   1.447   .     S
C1641  H1642   1.109   .     S
C1641  H1643   1.110   .     S
C1641  H1644   1.110   .     S
N1645  H1646   1.023   .     S
N1645  C1647   1.449   .     S
C1647  H1648   1.110   .     S
C1647  H1649   1.111   .     S
C1647  H1650   1.110   .     S
N1651  H1652   1.023   .     S
N1651  C1653   1.449   .     S
C1653  H1655   1.110   .     S
C1653  H1656   1.111   .     S
C1653  H1654   1.107   .     S
