data_str_m2_o10_o18_pcu_sym.122
_audit_creation_date              2020-01-03
_audit_creation_method            'Materials Studio'
_symmetry_space_group_name_H-M    'P1'
_symmetry_Int_Tables_number       1
_symmetry_cell_setting            triclinic
loop_
_symmetry_equiv_pos_as_xyz
  x,y,z
_cell_length_a                    22.3196
_cell_length_b                    26.2530
_cell_length_c                    31.4591
_cell_angle_alpha                 94.0972
_cell_angle_beta                  74.9377
_cell_angle_gamma                 102.3989
loop_
_atom_site_label
_atom_site_type_symbol
_atom_site_fract_x
_atom_site_fract_y
_atom_site_fract_z
_atom_site_U_iso_or_equiv
_atom_site_adp_type
_atom_site_occupancy
C1     C     0.18161   0.26634   0.25020   0.00000  Uiso   1.00
C2     C     0.15173   0.06700   0.24980   0.00000  Uiso   1.00
C3     C     0.09116   0.13954   0.04153   0.00000  Uiso   1.00
C4     C     0.24217   0.19379   0.45847   0.00000  Uiso   1.00
C5     C     0.05155   0.11801   0.01428   0.00000  Uiso   1.00
C6     C     0.28178   0.21533   0.48572   0.00000  Uiso   1.00
C7     C     0.19121   0.32101   0.24336   0.00000  Uiso   1.00
C8     C     0.14212   0.01233   0.25664   0.00000  Uiso   1.00
C9     C     0.12793   0.16239   0.33315   0.00000  Uiso   1.00
C10    C     0.20541   0.17094   0.16685   0.00000  Uiso   1.00
C11    C     0.10407   0.15356   0.38056   0.00000  Uiso   1.00
C12    C     0.22926   0.17977   0.11944   0.00000  Uiso   1.00
C13    C     0.03138   0.10470   0.44176   0.00000  Uiso   1.00
C14    C     0.30196   0.22863   0.05824   0.00000  Uiso   1.00
C15    C     0.04943   0.11613   0.39712   0.00000  Uiso   1.00
C16    C     0.28391   0.21720   0.10288   0.00000  Uiso   1.00
C17    C     0.14115   0.17809   0.40868   0.00000  Uiso   1.00
C18    C     0.19218   0.15524   0.09132   0.00000  Uiso   1.00
C19    C     0.13117   0.15872   0.45119   0.00000  Uiso   1.00
C20    C     0.20216   0.17461   0.04882   0.00000  Uiso   1.00
C21    C     0.07168   0.12607   0.46908   0.00000  Uiso   1.00
C22    C     0.26165   0.20727   0.03092   0.00000  Uiso   1.00
C23    C     0.17674   0.17210   0.47697   0.00000  Uiso   1.00
C24    C     0.15659   0.16124   0.02303   0.00000  Uiso   1.00
Cu25   Cu    0.10737   0.16108   0.24517   0.00000  Uiso   1.00
Cu26   Cu    0.22596   0.17225   0.25484   0.00000  Uiso   1.00
H27    H     0.31305   0.23681   0.12424   0.00000  Uiso   1.00
H28    H     0.02029   0.09652   0.37576   0.00000  Uiso   1.00
H29    H     0.31999   0.07830   0.45461   0.00000  Uiso   1.00
H30    H     0.01335   0.25503   0.04539   0.00000  Uiso   1.00
H31    H     0.00057   0.20361   0.28522   0.00000  Uiso   1.00
H32    H     0.33277   0.12973   0.21478   0.00000  Uiso   1.00
N33    N     0.31506   0.18068   0.26212   0.00000  Uiso   1.00
N34    N     0.01827   0.15265   0.23788   0.00000  Uiso   1.00
O35    O     0.12815   0.23809   0.24686   0.00000  Uiso   1.00
O36    O     0.20518   0.09524   0.25314   0.00000  Uiso   1.00
O37    O     0.22829   0.24753   0.25503   0.00000  Uiso   1.00
O38    O     0.10504   0.08580   0.24498   0.00000  Uiso   1.00
O39    O     0.08851   0.15930   0.30855   0.00000  Uiso   1.00
O40    O     0.24482   0.17403   0.19146   0.00000  Uiso   1.00
O41    O     0.18866   0.16874   0.31671   0.00000  Uiso   1.00
O42    O     0.14468   0.16460   0.18329   0.00000  Uiso   1.00
F43    F     0.32442   0.09285   0.03245   0.00000  Uiso   1.00
F44    F     0.00892   0.24047   0.46755   0.00000  Uiso   1.00
F45    F     0.15177   0.10925   0.10414   0.00000  Uiso   1.00
F46    F     0.18156   0.22409   0.39586   0.00000  Uiso   1.00
C47    C     0.06054   0.14399   0.08778   0.00000  Uiso   1.00
N48    N     0.03594   0.14733   0.12480   0.00000  Uiso   1.00
C49    C     0.27279   0.18934   0.41222   0.00000  Uiso   1.00
N50    N     0.29738   0.18598   0.37520   0.00000  Uiso   1.00
C51    C     0.25277   0.01160   0.21600   0.00000  Uiso   1.00
N52    N     0.30182   0.03001   0.19396   0.00000  Uiso   1.00
C53    C     0.08057   0.32174   0.28400   0.00000  Uiso   1.00
N54    N     0.03151   0.30332   0.30604   0.00000  Uiso   1.00
C55    C     0.51494   0.26634   0.25020   0.00000  Uiso   1.00
C56    C     0.48506   0.06700   0.24980   0.00000  Uiso   1.00
C57    C     0.42449   0.13954   0.04153   0.00000  Uiso   1.00
C58    C     0.57550   0.19379   0.45847   0.00000  Uiso   1.00
C59    C     0.38488   0.11801   0.01428   0.00000  Uiso   1.00
C60    C     0.61512   0.21533   0.48572   0.00000  Uiso   1.00
C61    C     0.52455   0.32101   0.24336   0.00000  Uiso   1.00
C62    C     0.47545   0.01233   0.25664   0.00000  Uiso   1.00
C63    C     0.46126   0.16239   0.33315   0.00000  Uiso   1.00
C64    C     0.53874   0.17094   0.16685   0.00000  Uiso   1.00
C65    C     0.43741   0.15356   0.38056   0.00000  Uiso   1.00
C66    C     0.56259   0.17977   0.11944   0.00000  Uiso   1.00
C67    C     0.36471   0.10470   0.44176   0.00000  Uiso   1.00
C68    C     0.63529   0.22863   0.05824   0.00000  Uiso   1.00
C69    C     0.38276   0.11613   0.39712   0.00000  Uiso   1.00
C70    C     0.61724   0.21720   0.10288   0.00000  Uiso   1.00
C71    C     0.47448   0.17809   0.40868   0.00000  Uiso   1.00
C72    C     0.52551   0.15524   0.09132   0.00000  Uiso   1.00
C73    C     0.46450   0.15872   0.45119   0.00000  Uiso   1.00
C74    C     0.53550   0.17461   0.04882   0.00000  Uiso   1.00
C75    C     0.40501   0.12607   0.46908   0.00000  Uiso   1.00
C76    C     0.59498   0.20727   0.03092   0.00000  Uiso   1.00
C77    C     0.51007   0.17210   0.47697   0.00000  Uiso   1.00
C78    C     0.48992   0.16124   0.02303   0.00000  Uiso   1.00
Cu79   Cu    0.44071   0.16108   0.24517   0.00000  Uiso   1.00
Cu80   Cu    0.55929   0.17225   0.25484   0.00000  Uiso   1.00
H81    H     0.64638   0.23681   0.12424   0.00000  Uiso   1.00
H82    H     0.35362   0.09652   0.37576   0.00000  Uiso   1.00
H83    H     0.65332   0.07830   0.45461   0.00000  Uiso   1.00
H84    H     0.34668   0.25503   0.04539   0.00000  Uiso   1.00
H85    H     0.33390   0.20361   0.28522   0.00000  Uiso   1.00
H86    H     0.66610   0.12973   0.21478   0.00000  Uiso   1.00
N87    N     0.64839   0.18068   0.26212   0.00000  Uiso   1.00
N88    N     0.35161   0.15265   0.23788   0.00000  Uiso   1.00
O89    O     0.46148   0.23809   0.24686   0.00000  Uiso   1.00
O90    O     0.53852   0.09524   0.25314   0.00000  Uiso   1.00
O91    O     0.56163   0.24753   0.25503   0.00000  Uiso   1.00
O92    O     0.43837   0.08580   0.24498   0.00000  Uiso   1.00
O93    O     0.42185   0.15930   0.30855   0.00000  Uiso   1.00
O94    O     0.57815   0.17403   0.19146   0.00000  Uiso   1.00
O95    O     0.52199   0.16874   0.31671   0.00000  Uiso   1.00
O96    O     0.47801   0.16460   0.18329   0.00000  Uiso   1.00
F97    F     0.65775   0.09285   0.03245   0.00000  Uiso   1.00
F98    F     0.34225   0.24047   0.46755   0.00000  Uiso   1.00
F99    F     0.48511   0.10925   0.10414   0.00000  Uiso   1.00
F100   F     0.51489   0.22409   0.39586   0.00000  Uiso   1.00
C101   C     0.39387   0.14399   0.08778   0.00000  Uiso   1.00
N102   N     0.36927   0.14733   0.12480   0.00000  Uiso   1.00
C103   C     0.60612   0.18934   0.41222   0.00000  Uiso   1.00
N104   N     0.63071   0.18598   0.37520   0.00000  Uiso   1.00
C105   C     0.58610   0.01160   0.21600   0.00000  Uiso   1.00
N106   N     0.63516   0.03001   0.19396   0.00000  Uiso   1.00
C107   C     0.41390   0.32174   0.28400   0.00000  Uiso   1.00
N108   N     0.36484   0.30332   0.30604   0.00000  Uiso   1.00
C109   C     0.84827   0.26634   0.25020   0.00000  Uiso   1.00
C110   C     0.81839   0.06700   0.24980   0.00000  Uiso   1.00
C111   C     0.75783   0.13954   0.04153   0.00000  Uiso   1.00
C112   C     0.90884   0.19379   0.45847   0.00000  Uiso   1.00
C113   C     0.71821   0.11801   0.01428   0.00000  Uiso   1.00
C114   C     0.94845   0.21533   0.48572   0.00000  Uiso   1.00
C115   C     0.85788   0.32101   0.24336   0.00000  Uiso   1.00
C116   C     0.80879   0.01233   0.25664   0.00000  Uiso   1.00
C117   C     0.79459   0.16239   0.33315   0.00000  Uiso   1.00
C118   C     0.87207   0.17094   0.16685   0.00000  Uiso   1.00
C119   C     0.77074   0.15356   0.38056   0.00000  Uiso   1.00
C120   C     0.89593   0.17977   0.11944   0.00000  Uiso   1.00
C121   C     0.69805   0.10470   0.44176   0.00000  Uiso   1.00
C122   C     0.96862   0.22863   0.05824   0.00000  Uiso   1.00
C123   C     0.71609   0.11613   0.39712   0.00000  Uiso   1.00
C124   C     0.95057   0.21720   0.10288   0.00000  Uiso   1.00
C125   C     0.80782   0.17809   0.40868   0.00000  Uiso   1.00
C126   C     0.85885   0.15524   0.09132   0.00000  Uiso   1.00
C127   C     0.79783   0.15872   0.45119   0.00000  Uiso   1.00
C128   C     0.86883   0.17461   0.04882   0.00000  Uiso   1.00
C129   C     0.73835   0.12607   0.46908   0.00000  Uiso   1.00
C130   C     0.92832   0.20727   0.03092   0.00000  Uiso   1.00
C131   C     0.84340   0.17210   0.47697   0.00000  Uiso   1.00
C132   C     0.82326   0.16124   0.02303   0.00000  Uiso   1.00
Cu133  Cu    0.77404   0.16108   0.24517   0.00000  Uiso   1.00
Cu134  Cu    0.89263   0.17225   0.25484   0.00000  Uiso   1.00
H135   H     0.97972   0.23681   0.12424   0.00000  Uiso   1.00
H136   H     0.68695   0.09652   0.37576   0.00000  Uiso   1.00
H137   H     0.98665   0.07830   0.45461   0.00000  Uiso   1.00
H138   H     0.68001   0.25503   0.04539   0.00000  Uiso   1.00
H139   H     0.66723   0.20361   0.28522   0.00000  Uiso   1.00
H140   H     0.99943   0.12973   0.21478   0.00000  Uiso   1.00
N141   N     0.98173   0.18068   0.26212   0.00000  Uiso   1.00
N142   N     0.68494   0.15265   0.23788   0.00000  Uiso   1.00
O143   O     0.79482   0.23809   0.24686   0.00000  Uiso   1.00
O144   O     0.87185   0.09524   0.25314   0.00000  Uiso   1.00
O145   O     0.89496   0.24753   0.25503   0.00000  Uiso   1.00
O146   O     0.77171   0.08580   0.24498   0.00000  Uiso   1.00
O147   O     0.75518   0.15930   0.30855   0.00000  Uiso   1.00
O148   O     0.91149   0.17403   0.19146   0.00000  Uiso   1.00
O149   O     0.85532   0.16874   0.31671   0.00000  Uiso   1.00
O150   O     0.81134   0.16460   0.18329   0.00000  Uiso   1.00
F151   F     0.99108   0.09285   0.03245   0.00000  Uiso   1.00
F152   F     0.67558   0.24047   0.46755   0.00000  Uiso   1.00
F153   F     0.81844   0.10925   0.10414   0.00000  Uiso   1.00
F154   F     0.84822   0.22409   0.39586   0.00000  Uiso   1.00
C155   C     0.72720   0.14399   0.08778   0.00000  Uiso   1.00
N156   N     0.70261   0.14733   0.12480   0.00000  Uiso   1.00
C157   C     0.93946   0.18934   0.41222   0.00000  Uiso   1.00
N158   N     0.96405   0.18598   0.37520   0.00000  Uiso   1.00
C159   C     0.91943   0.01160   0.21600   0.00000  Uiso   1.00
N160   N     0.96849   0.03001   0.19396   0.00000  Uiso   1.00
C161   C     0.74723   0.32174   0.28400   0.00000  Uiso   1.00
N162   N     0.69818   0.30332   0.30604   0.00000  Uiso   1.00
C163   C     0.18161   0.59967   0.25020   0.00000  Uiso   1.00
C164   C     0.15173   0.40033   0.24980   0.00000  Uiso   1.00
C165   C     0.09116   0.47288   0.04153   0.00000  Uiso   1.00
C166   C     0.24217   0.52713   0.45847   0.00000  Uiso   1.00
C167   C     0.05155   0.45134   0.01428   0.00000  Uiso   1.00
C168   C     0.28178   0.54866   0.48572   0.00000  Uiso   1.00
C169   C     0.19121   0.65434   0.24336   0.00000  Uiso   1.00
C170   C     0.14212   0.34566   0.25664   0.00000  Uiso   1.00
C171   C     0.12793   0.49572   0.33315   0.00000  Uiso   1.00
C172   C     0.20541   0.50428   0.16685   0.00000  Uiso   1.00
C173   C     0.10407   0.48690   0.38056   0.00000  Uiso   1.00
C174   C     0.22926   0.51310   0.11944   0.00000  Uiso   1.00
C175   C     0.03138   0.43804   0.44176   0.00000  Uiso   1.00
C176   C     0.30196   0.56196   0.05824   0.00000  Uiso   1.00
C177   C     0.04943   0.44947   0.39712   0.00000  Uiso   1.00
C178   C     0.28391   0.55053   0.10288   0.00000  Uiso   1.00
C179   C     0.14115   0.51143   0.40868   0.00000  Uiso   1.00
C180   C     0.19218   0.48857   0.09132   0.00000  Uiso   1.00
C181   C     0.13117   0.49206   0.45119   0.00000  Uiso   1.00
C182   C     0.20216   0.50795   0.04882   0.00000  Uiso   1.00
C183   C     0.07168   0.45940   0.46908   0.00000  Uiso   1.00
C184   C     0.26165   0.54060   0.03092   0.00000  Uiso   1.00
C185   C     0.17674   0.50543   0.47697   0.00000  Uiso   1.00
C186   C     0.15659   0.49457   0.02303   0.00000  Uiso   1.00
Cu187  Cu    0.10737   0.49441   0.24517   0.00000  Uiso   1.00
Cu188  Cu    0.22596   0.50559   0.25484   0.00000  Uiso   1.00
H189   H     0.31305   0.57014   0.12424   0.00000  Uiso   1.00
H190   H     0.02029   0.42985   0.37576   0.00000  Uiso   1.00
H191   H     0.31999   0.41163   0.45461   0.00000  Uiso   1.00
H192   H     0.01335   0.58837   0.04539   0.00000  Uiso   1.00
H193   H     0.00057   0.53694   0.28522   0.00000  Uiso   1.00
H194   H     0.33277   0.46306   0.21478   0.00000  Uiso   1.00
N195   N     0.31506   0.51401   0.26212   0.00000  Uiso   1.00
N196   N     0.01827   0.48599   0.23788   0.00000  Uiso   1.00
O197   O     0.12815   0.57142   0.24686   0.00000  Uiso   1.00
O198   O     0.20518   0.42858   0.25314   0.00000  Uiso   1.00
O199   O     0.22829   0.58086   0.25503   0.00000  Uiso   1.00
O200   O     0.10504   0.41914   0.24498   0.00000  Uiso   1.00
O201   O     0.08851   0.49263   0.30855   0.00000  Uiso   1.00
O202   O     0.24482   0.50737   0.19146   0.00000  Uiso   1.00
O203   O     0.18866   0.50207   0.31671   0.00000  Uiso   1.00
O204   O     0.14468   0.49793   0.18329   0.00000  Uiso   1.00
F205   F     0.32442   0.42619   0.03245   0.00000  Uiso   1.00
F206   F     0.00892   0.57380   0.46755   0.00000  Uiso   1.00
F207   F     0.15177   0.44258   0.10414   0.00000  Uiso   1.00
F208   F     0.18156   0.55742   0.39586   0.00000  Uiso   1.00
C209   C     0.06054   0.47732   0.08778   0.00000  Uiso   1.00
N210   N     0.03594   0.48066   0.12480   0.00000  Uiso   1.00
C211   C     0.27279   0.52267   0.41222   0.00000  Uiso   1.00
N212   N     0.29738   0.51931   0.37520   0.00000  Uiso   1.00
C213   C     0.25277   0.34493   0.21600   0.00000  Uiso   1.00
N214   N     0.30182   0.36334   0.19396   0.00000  Uiso   1.00
C215   C     0.08057   0.65507   0.28400   0.00000  Uiso   1.00
N216   N     0.03151   0.63666   0.30604   0.00000  Uiso   1.00
C217   C     0.51494   0.59967   0.25020   0.00000  Uiso   1.00
C218   C     0.48506   0.40033   0.24980   0.00000  Uiso   1.00
C219   C     0.42449   0.47288   0.04153   0.00000  Uiso   1.00
C220   C     0.57550   0.52713   0.45847   0.00000  Uiso   1.00
C221   C     0.38488   0.45134   0.01428   0.00000  Uiso   1.00
C222   C     0.61512   0.54866   0.48572   0.00000  Uiso   1.00
C223   C     0.52455   0.65434   0.24336   0.00000  Uiso   1.00
C224   C     0.47545   0.34566   0.25664   0.00000  Uiso   1.00
C225   C     0.46126   0.49572   0.33315   0.00000  Uiso   1.00
C226   C     0.53874   0.50428   0.16685   0.00000  Uiso   1.00
C227   C     0.43741   0.48690   0.38056   0.00000  Uiso   1.00
C228   C     0.56259   0.51310   0.11944   0.00000  Uiso   1.00
C229   C     0.36471   0.43804   0.44176   0.00000  Uiso   1.00
C230   C     0.63529   0.56196   0.05824   0.00000  Uiso   1.00
C231   C     0.38276   0.44947   0.39712   0.00000  Uiso   1.00
C232   C     0.61724   0.55053   0.10288   0.00000  Uiso   1.00
C233   C     0.47448   0.51143   0.40868   0.00000  Uiso   1.00
C234   C     0.52551   0.48857   0.09132   0.00000  Uiso   1.00
C235   C     0.46450   0.49206   0.45119   0.00000  Uiso   1.00
C236   C     0.53550   0.50795   0.04882   0.00000  Uiso   1.00
C237   C     0.40501   0.45940   0.46908   0.00000  Uiso   1.00
C238   C     0.59498   0.54060   0.03092   0.00000  Uiso   1.00
C239   C     0.51007   0.50543   0.47697   0.00000  Uiso   1.00
C240   C     0.48992   0.49457   0.02303   0.00000  Uiso   1.00
Cu241  Cu    0.44071   0.49441   0.24517   0.00000  Uiso   1.00
Cu242  Cu    0.55929   0.50559   0.25484   0.00000  Uiso   1.00
H243   H     0.64638   0.57014   0.12424   0.00000  Uiso   1.00
H244   H     0.35362   0.42985   0.37576   0.00000  Uiso   1.00
H245   H     0.65332   0.41163   0.45461   0.00000  Uiso   1.00
H246   H     0.34668   0.58837   0.04539   0.00000  Uiso   1.00
H247   H     0.33390   0.53694   0.28522   0.00000  Uiso   1.00
H248   H     0.66610   0.46306   0.21478   0.00000  Uiso   1.00
N249   N     0.64839   0.51401   0.26212   0.00000  Uiso   1.00
N250   N     0.35161   0.48599   0.23788   0.00000  Uiso   1.00
O251   O     0.46148   0.57142   0.24686   0.00000  Uiso   1.00
O252   O     0.53852   0.42858   0.25314   0.00000  Uiso   1.00
O253   O     0.56163   0.58086   0.25503   0.00000  Uiso   1.00
O254   O     0.43837   0.41914   0.24498   0.00000  Uiso   1.00
O255   O     0.42185   0.49263   0.30855   0.00000  Uiso   1.00
O256   O     0.57815   0.50737   0.19146   0.00000  Uiso   1.00
O257   O     0.52199   0.50207   0.31671   0.00000  Uiso   1.00
O258   O     0.47801   0.49793   0.18329   0.00000  Uiso   1.00
F259   F     0.65775   0.42619   0.03245   0.00000  Uiso   1.00
F260   F     0.34225   0.57380   0.46755   0.00000  Uiso   1.00
F261   F     0.48511   0.44258   0.10414   0.00000  Uiso   1.00
F262   F     0.51489   0.55742   0.39586   0.00000  Uiso   1.00
C263   C     0.39387   0.47732   0.08778   0.00000  Uiso   1.00
N264   N     0.36927   0.48066   0.12480   0.00000  Uiso   1.00
C265   C     0.60612   0.52267   0.41222   0.00000  Uiso   1.00
N266   N     0.63071   0.51931   0.37520   0.00000  Uiso   1.00
C267   C     0.58610   0.34493   0.21600   0.00000  Uiso   1.00
N268   N     0.63516   0.36334   0.19396   0.00000  Uiso   1.00
C269   C     0.41390   0.65507   0.28400   0.00000  Uiso   1.00
N270   N     0.36484   0.63666   0.30604   0.00000  Uiso   1.00
C271   C     0.84827   0.59967   0.25020   0.00000  Uiso   1.00
C272   C     0.81839   0.40033   0.24980   0.00000  Uiso   1.00
C273   C     0.75783   0.47288   0.04153   0.00000  Uiso   1.00
C274   C     0.90884   0.52713   0.45847   0.00000  Uiso   1.00
C275   C     0.71821   0.45134   0.01428   0.00000  Uiso   1.00
C276   C     0.94845   0.54866   0.48572   0.00000  Uiso   1.00
C277   C     0.85788   0.65434   0.24336   0.00000  Uiso   1.00
C278   C     0.80879   0.34566   0.25664   0.00000  Uiso   1.00
C279   C     0.79459   0.49572   0.33315   0.00000  Uiso   1.00
C280   C     0.87207   0.50428   0.16685   0.00000  Uiso   1.00
C281   C     0.77074   0.48690   0.38056   0.00000  Uiso   1.00
C282   C     0.89593   0.51310   0.11944   0.00000  Uiso   1.00
C283   C     0.69805   0.43804   0.44176   0.00000  Uiso   1.00
C284   C     0.96862   0.56196   0.05824   0.00000  Uiso   1.00
C285   C     0.71609   0.44947   0.39712   0.00000  Uiso   1.00
C286   C     0.95057   0.55053   0.10288   0.00000  Uiso   1.00
C287   C     0.80782   0.51143   0.40868   0.00000  Uiso   1.00
C288   C     0.85885   0.48857   0.09132   0.00000  Uiso   1.00
C289   C     0.79783   0.49206   0.45119   0.00000  Uiso   1.00
C290   C     0.86883   0.50795   0.04882   0.00000  Uiso   1.00
C291   C     0.73835   0.45940   0.46908   0.00000  Uiso   1.00
C292   C     0.92832   0.54060   0.03092   0.00000  Uiso   1.00
C293   C     0.84340   0.50543   0.47697   0.00000  Uiso   1.00
C294   C     0.82326   0.49457   0.02303   0.00000  Uiso   1.00
Cu295  Cu    0.77404   0.49441   0.24517   0.00000  Uiso   1.00
Cu296  Cu    0.89263   0.50559   0.25484   0.00000  Uiso   1.00
H297   H     0.97972   0.57014   0.12424   0.00000  Uiso   1.00
H298   H     0.68695   0.42985   0.37576   0.00000  Uiso   1.00
H299   H     0.98665   0.41163   0.45461   0.00000  Uiso   1.00
H300   H     0.68001   0.58837   0.04539   0.00000  Uiso   1.00
H301   H     0.66723   0.53694   0.28522   0.00000  Uiso   1.00
H302   H     0.99943   0.46306   0.21478   0.00000  Uiso   1.00
N303   N     0.98173   0.51401   0.26212   0.00000  Uiso   1.00
N304   N     0.68494   0.48599   0.23788   0.00000  Uiso   1.00
O305   O     0.79482   0.57142   0.24686   0.00000  Uiso   1.00
O306   O     0.87185   0.42858   0.25314   0.00000  Uiso   1.00
O307   O     0.89496   0.58086   0.25503   0.00000  Uiso   1.00
O308   O     0.77171   0.41914   0.24498   0.00000  Uiso   1.00
O309   O     0.75518   0.49263   0.30855   0.00000  Uiso   1.00
O310   O     0.91149   0.50737   0.19146   0.00000  Uiso   1.00
O311   O     0.85532   0.50207   0.31671   0.00000  Uiso   1.00
O312   O     0.81134   0.49793   0.18329   0.00000  Uiso   1.00
F313   F     0.99108   0.42619   0.03245   0.00000  Uiso   1.00
F314   F     0.67558   0.57380   0.46755   0.00000  Uiso   1.00
F315   F     0.81844   0.44258   0.10414   0.00000  Uiso   1.00
F316   F     0.84822   0.55742   0.39586   0.00000  Uiso   1.00
C317   C     0.72720   0.47732   0.08778   0.00000  Uiso   1.00
N318   N     0.70261   0.48066   0.12480   0.00000  Uiso   1.00
C319   C     0.93946   0.52267   0.41222   0.00000  Uiso   1.00
N320   N     0.96405   0.51931   0.37520   0.00000  Uiso   1.00
C321   C     0.91943   0.34493   0.21600   0.00000  Uiso   1.00
N322   N     0.96849   0.36334   0.19396   0.00000  Uiso   1.00
C323   C     0.74723   0.65507   0.28400   0.00000  Uiso   1.00
N324   N     0.69818   0.63666   0.30604   0.00000  Uiso   1.00
C325   C     0.18161   0.93300   0.25020   0.00000  Uiso   1.00
C326   C     0.15173   0.73366   0.24980   0.00000  Uiso   1.00
C327   C     0.09116   0.80621   0.04153   0.00000  Uiso   1.00
C328   C     0.24217   0.86046   0.45847   0.00000  Uiso   1.00
C329   C     0.05155   0.78467   0.01428   0.00000  Uiso   1.00
C330   C     0.28178   0.88199   0.48572   0.00000  Uiso   1.00
C331   C     0.19121   0.98767   0.24336   0.00000  Uiso   1.00
C332   C     0.14212   0.67899   0.25664   0.00000  Uiso   1.00
C333   C     0.12793   0.82906   0.33315   0.00000  Uiso   1.00
C334   C     0.20541   0.83761   0.16685   0.00000  Uiso   1.00
C335   C     0.10407   0.82023   0.38056   0.00000  Uiso   1.00
C336   C     0.22926   0.84644   0.11944   0.00000  Uiso   1.00
C337   C     0.03138   0.77137   0.44176   0.00000  Uiso   1.00
C338   C     0.30196   0.89529   0.05824   0.00000  Uiso   1.00
C339   C     0.04943   0.78280   0.39712   0.00000  Uiso   1.00
C340   C     0.28391   0.88386   0.10288   0.00000  Uiso   1.00
C341   C     0.14115   0.84476   0.40868   0.00000  Uiso   1.00
C342   C     0.19218   0.82191   0.09132   0.00000  Uiso   1.00
C343   C     0.13117   0.82539   0.45119   0.00000  Uiso   1.00
C344   C     0.20216   0.84128   0.04882   0.00000  Uiso   1.00
C345   C     0.07168   0.79273   0.46908   0.00000  Uiso   1.00
C346   C     0.26165   0.87394   0.03092   0.00000  Uiso   1.00
C347   C     0.17674   0.83877   0.47697   0.00000  Uiso   1.00
C348   C     0.15659   0.82790   0.02303   0.00000  Uiso   1.00
Cu349  Cu    0.10737   0.82775   0.24517   0.00000  Uiso   1.00
Cu350  Cu    0.22596   0.83892   0.25484   0.00000  Uiso   1.00
H351   H     0.31305   0.90348   0.12424   0.00000  Uiso   1.00
H352   H     0.02029   0.76318   0.37576   0.00000  Uiso   1.00
H353   H     0.31999   0.74496   0.45461   0.00000  Uiso   1.00
H354   H     0.01335   0.92170   0.04539   0.00000  Uiso   1.00
H355   H     0.00057   0.87027   0.28522   0.00000  Uiso   1.00
H356   H     0.33277   0.79639   0.21478   0.00000  Uiso   1.00
N357   N     0.31506   0.84735   0.26212   0.00000  Uiso   1.00
N358   N     0.01827   0.81932   0.23788   0.00000  Uiso   1.00
O359   O     0.12815   0.90476   0.24686   0.00000  Uiso   1.00
O360   O     0.20518   0.76191   0.25314   0.00000  Uiso   1.00
O361   O     0.22829   0.91420   0.25503   0.00000  Uiso   1.00
O362   O     0.10504   0.75247   0.24498   0.00000  Uiso   1.00
O363   O     0.08851   0.82597   0.30855   0.00000  Uiso   1.00
O364   O     0.24482   0.84070   0.19146   0.00000  Uiso   1.00
O365   O     0.18866   0.83540   0.31671   0.00000  Uiso   1.00
O366   O     0.14468   0.83126   0.18329   0.00000  Uiso   1.00
F367   F     0.32442   0.75952   0.03245   0.00000  Uiso   1.00
F368   F     0.00892   0.90714   0.46755   0.00000  Uiso   1.00
F369   F     0.15177   0.77591   0.10414   0.00000  Uiso   1.00
F370   F     0.18156   0.89075   0.39586   0.00000  Uiso   1.00
C371   C     0.06054   0.81065   0.08778   0.00000  Uiso   1.00
N372   N     0.03594   0.81400   0.12480   0.00000  Uiso   1.00
C373   C     0.27279   0.85600   0.41222   0.00000  Uiso   1.00
N374   N     0.29738   0.85265   0.37520   0.00000  Uiso   1.00
C375   C     0.25277   0.67826   0.21600   0.00000  Uiso   1.00
N376   N     0.30182   0.69668   0.19396   0.00000  Uiso   1.00
C377   C     0.08057   0.98840   0.28400   0.00000  Uiso   1.00
N378   N     0.03151   0.96999   0.30604   0.00000  Uiso   1.00
C379   C     0.51494   0.93300   0.25020   0.00000  Uiso   1.00
C380   C     0.48506   0.73366   0.24980   0.00000  Uiso   1.00
C381   C     0.42449   0.80621   0.04153   0.00000  Uiso   1.00
C382   C     0.57550   0.86046   0.45847   0.00000  Uiso   1.00
C383   C     0.38488   0.78467   0.01428   0.00000  Uiso   1.00
C384   C     0.61512   0.88199   0.48572   0.00000  Uiso   1.00
C385   C     0.52455   0.98767   0.24336   0.00000  Uiso   1.00
C386   C     0.47545   0.67899   0.25664   0.00000  Uiso   1.00
C387   C     0.46126   0.82906   0.33315   0.00000  Uiso   1.00
C388   C     0.53874   0.83761   0.16685   0.00000  Uiso   1.00
C389   C     0.43741   0.82023   0.38056   0.00000  Uiso   1.00
C390   C     0.56259   0.84644   0.11944   0.00000  Uiso   1.00
C391   C     0.36471   0.77137   0.44176   0.00000  Uiso   1.00
C392   C     0.63529   0.89529   0.05824   0.00000  Uiso   1.00
C393   C     0.38276   0.78280   0.39712   0.00000  Uiso   1.00
C394   C     0.61724   0.88386   0.10288   0.00000  Uiso   1.00
C395   C     0.47448   0.84476   0.40868   0.00000  Uiso   1.00
C396   C     0.52551   0.82191   0.09132   0.00000  Uiso   1.00
C397   C     0.46450   0.82539   0.45119   0.00000  Uiso   1.00
C398   C     0.53550   0.84128   0.04882   0.00000  Uiso   1.00
C399   C     0.40501   0.79273   0.46908   0.00000  Uiso   1.00
C400   C     0.59498   0.87394   0.03092   0.00000  Uiso   1.00
C401   C     0.51007   0.83877   0.47697   0.00000  Uiso   1.00
C402   C     0.48992   0.82790   0.02303   0.00000  Uiso   1.00
Cu403  Cu    0.44071   0.82775   0.24517   0.00000  Uiso   1.00
Cu404  Cu    0.55929   0.83892   0.25484   0.00000  Uiso   1.00
H405   H     0.64638   0.90348   0.12424   0.00000  Uiso   1.00
H406   H     0.35362   0.76318   0.37576   0.00000  Uiso   1.00
H407   H     0.65332   0.74496   0.45461   0.00000  Uiso   1.00
H408   H     0.34668   0.92170   0.04539   0.00000  Uiso   1.00
H409   H     0.33390   0.87027   0.28522   0.00000  Uiso   1.00
H410   H     0.66610   0.79639   0.21478   0.00000  Uiso   1.00
N411   N     0.64839   0.84735   0.26212   0.00000  Uiso   1.00
N412   N     0.35161   0.81932   0.23788   0.00000  Uiso   1.00
O413   O     0.46148   0.90476   0.24686   0.00000  Uiso   1.00
O414   O     0.53852   0.76191   0.25314   0.00000  Uiso   1.00
O415   O     0.56163   0.91420   0.25503   0.00000  Uiso   1.00
O416   O     0.43837   0.75247   0.24498   0.00000  Uiso   1.00
O417   O     0.42185   0.82597   0.30855   0.00000  Uiso   1.00
O418   O     0.57815   0.84070   0.19146   0.00000  Uiso   1.00
O419   O     0.52199   0.83540   0.31671   0.00000  Uiso   1.00
O420   O     0.47801   0.83126   0.18329   0.00000  Uiso   1.00
F421   F     0.65775   0.75952   0.03245   0.00000  Uiso   1.00
F422   F     0.34225   0.90714   0.46755   0.00000  Uiso   1.00
F423   F     0.48511   0.77591   0.10414   0.00000  Uiso   1.00
F424   F     0.51489   0.89075   0.39586   0.00000  Uiso   1.00
C425   C     0.39387   0.81065   0.08778   0.00000  Uiso   1.00
N426   N     0.36927   0.81400   0.12480   0.00000  Uiso   1.00
C427   C     0.60612   0.85600   0.41222   0.00000  Uiso   1.00
N428   N     0.63071   0.85265   0.37520   0.00000  Uiso   1.00
C429   C     0.58610   0.67826   0.21600   0.00000  Uiso   1.00
N430   N     0.63516   0.69668   0.19396   0.00000  Uiso   1.00
C431   C     0.41390   0.98840   0.28400   0.00000  Uiso   1.00
N432   N     0.36484   0.96999   0.30604   0.00000  Uiso   1.00
C433   C     0.84827   0.93300   0.25020   0.00000  Uiso   1.00
C434   C     0.81839   0.73366   0.24980   0.00000  Uiso   1.00
C435   C     0.75783   0.80621   0.04153   0.00000  Uiso   1.00
C436   C     0.90884   0.86046   0.45847   0.00000  Uiso   1.00
C437   C     0.71821   0.78467   0.01428   0.00000  Uiso   1.00
C438   C     0.94845   0.88199   0.48572   0.00000  Uiso   1.00
C439   C     0.85788   0.98767   0.24336   0.00000  Uiso   1.00
C440   C     0.80879   0.67899   0.25664   0.00000  Uiso   1.00
C441   C     0.79459   0.82906   0.33315   0.00000  Uiso   1.00
C442   C     0.87207   0.83761   0.16685   0.00000  Uiso   1.00
C443   C     0.77074   0.82023   0.38056   0.00000  Uiso   1.00
C444   C     0.89593   0.84644   0.11944   0.00000  Uiso   1.00
C445   C     0.69805   0.77137   0.44176   0.00000  Uiso   1.00
C446   C     0.96862   0.89529   0.05824   0.00000  Uiso   1.00
C447   C     0.71609   0.78280   0.39712   0.00000  Uiso   1.00
C448   C     0.95057   0.88386   0.10288   0.00000  Uiso   1.00
C449   C     0.80782   0.84476   0.40868   0.00000  Uiso   1.00
C450   C     0.85885   0.82191   0.09132   0.00000  Uiso   1.00
C451   C     0.79783   0.82539   0.45119   0.00000  Uiso   1.00
C452   C     0.86883   0.84128   0.04882   0.00000  Uiso   1.00
C453   C     0.73835   0.79273   0.46908   0.00000  Uiso   1.00
C454   C     0.92832   0.87394   0.03092   0.00000  Uiso   1.00
C455   C     0.84340   0.83877   0.47697   0.00000  Uiso   1.00
C456   C     0.82326   0.82790   0.02303   0.00000  Uiso   1.00
Cu457  Cu    0.77404   0.82775   0.24517   0.00000  Uiso   1.00
Cu458  Cu    0.89263   0.83892   0.25484   0.00000  Uiso   1.00
H459   H     0.97972   0.90348   0.12424   0.00000  Uiso   1.00
H460   H     0.68695   0.76318   0.37576   0.00000  Uiso   1.00
H461   H     0.98665   0.74496   0.45461   0.00000  Uiso   1.00
H462   H     0.68001   0.92170   0.04539   0.00000  Uiso   1.00
H463   H     0.66723   0.87027   0.28522   0.00000  Uiso   1.00
H464   H     0.99943   0.79639   0.21478   0.00000  Uiso   1.00
N465   N     0.98173   0.84735   0.26212   0.00000  Uiso   1.00
N466   N     0.68494   0.81932   0.23788   0.00000  Uiso   1.00
O467   O     0.79482   0.90476   0.24686   0.00000  Uiso   1.00
O468   O     0.87185   0.76191   0.25314   0.00000  Uiso   1.00
O469   O     0.89496   0.91420   0.25503   0.00000  Uiso   1.00
O470   O     0.77171   0.75247   0.24498   0.00000  Uiso   1.00
O471   O     0.75518   0.82597   0.30855   0.00000  Uiso   1.00
O472   O     0.91149   0.84070   0.19146   0.00000  Uiso   1.00
O473   O     0.85532   0.83540   0.31671   0.00000  Uiso   1.00
O474   O     0.81134   0.83126   0.18329   0.00000  Uiso   1.00
F475   F     0.99108   0.75952   0.03245   0.00000  Uiso   1.00
F476   F     0.67558   0.90714   0.46755   0.00000  Uiso   1.00
F477   F     0.81844   0.77591   0.10414   0.00000  Uiso   1.00
F478   F     0.84822   0.89075   0.39586   0.00000  Uiso   1.00
C479   C     0.72720   0.81065   0.08778   0.00000  Uiso   1.00
N480   N     0.70261   0.81400   0.12480   0.00000  Uiso   1.00
C481   C     0.93946   0.85600   0.41222   0.00000  Uiso   1.00
N482   N     0.96405   0.85265   0.37520   0.00000  Uiso   1.00
C483   C     0.91943   0.67826   0.21600   0.00000  Uiso   1.00
N484   N     0.96849   0.69668   0.19396   0.00000  Uiso   1.00
C485   C     0.74723   0.98840   0.28400   0.00000  Uiso   1.00
N486   N     0.69818   0.96999   0.30604   0.00000  Uiso   1.00
C487   C     0.18161   0.26634   0.75020   0.00000  Uiso   1.00
C488   C     0.15173   0.06700   0.74980   0.00000  Uiso   1.00
C489   C     0.09116   0.13954   0.54153   0.00000  Uiso   1.00
C490   C     0.24217   0.19379   0.95847   0.00000  Uiso   1.00
C491   C     0.05155   0.11801   0.51428   0.00000  Uiso   1.00
C492   C     0.28178   0.21533   0.98572   0.00000  Uiso   1.00
C493   C     0.19121   0.32101   0.74336   0.00000  Uiso   1.00
C494   C     0.14212   0.01233   0.75664   0.00000  Uiso   1.00
C495   C     0.12793   0.16239   0.83315   0.00000  Uiso   1.00
C496   C     0.20541   0.17094   0.66685   0.00000  Uiso   1.00
C497   C     0.10407   0.15356   0.88056   0.00000  Uiso   1.00
C498   C     0.22926   0.17977   0.61944   0.00000  Uiso   1.00
C499   C     0.03138   0.10470   0.94176   0.00000  Uiso   1.00
C500   C     0.30196   0.22863   0.55824   0.00000  Uiso   1.00
C501   C     0.04943   0.11613   0.89712   0.00000  Uiso   1.00
C502   C     0.28391   0.21720   0.60288   0.00000  Uiso   1.00
C503   C     0.14115   0.17809   0.90868   0.00000  Uiso   1.00
C504   C     0.19218   0.15524   0.59132   0.00000  Uiso   1.00
C505   C     0.13117   0.15872   0.95119   0.00000  Uiso   1.00
C506   C     0.20216   0.17461   0.54882   0.00000  Uiso   1.00
C507   C     0.07168   0.12607   0.96908   0.00000  Uiso   1.00
C508   C     0.26165   0.20727   0.53092   0.00000  Uiso   1.00
C509   C     0.17674   0.17210   0.97697   0.00000  Uiso   1.00
C510   C     0.15659   0.16124   0.52303   0.00000  Uiso   1.00
Cu511  Cu    0.10737   0.16108   0.74517   0.00000  Uiso   1.00
Cu512  Cu    0.22596   0.17225   0.75484   0.00000  Uiso   1.00
H513   H     0.31305   0.23681   0.62424   0.00000  Uiso   1.00
H514   H     0.02029   0.09652   0.87576   0.00000  Uiso   1.00
H515   H     0.31999   0.07830   0.95461   0.00000  Uiso   1.00
H516   H     0.01335   0.25503   0.54539   0.00000  Uiso   1.00
H517   H     0.00057   0.20361   0.78522   0.00000  Uiso   1.00
H518   H     0.33277   0.12973   0.71478   0.00000  Uiso   1.00
N519   N     0.31506   0.18068   0.76212   0.00000  Uiso   1.00
N520   N     0.01827   0.15265   0.73788   0.00000  Uiso   1.00
O521   O     0.12815   0.23809   0.74686   0.00000  Uiso   1.00
O522   O     0.20518   0.09524   0.75314   0.00000  Uiso   1.00
O523   O     0.22829   0.24753   0.75503   0.00000  Uiso   1.00
O524   O     0.10504   0.08580   0.74498   0.00000  Uiso   1.00
O525   O     0.08851   0.15930   0.80855   0.00000  Uiso   1.00
O526   O     0.24482   0.17403   0.69146   0.00000  Uiso   1.00
O527   O     0.18866   0.16874   0.81671   0.00000  Uiso   1.00
O528   O     0.14468   0.16460   0.68329   0.00000  Uiso   1.00
F529   F     0.32442   0.09285   0.53245   0.00000  Uiso   1.00
F530   F     0.00892   0.24047   0.96755   0.00000  Uiso   1.00
F531   F     0.15177   0.10925   0.60414   0.00000  Uiso   1.00
F532   F     0.18156   0.22409   0.89586   0.00000  Uiso   1.00
C533   C     0.06054   0.14399   0.58778   0.00000  Uiso   1.00
N534   N     0.03594   0.14733   0.62480   0.00000  Uiso   1.00
C535   C     0.27279   0.18934   0.91222   0.00000  Uiso   1.00
N536   N     0.29738   0.18598   0.87520   0.00000  Uiso   1.00
C537   C     0.25277   0.01160   0.71600   0.00000  Uiso   1.00
N538   N     0.30182   0.03001   0.69396   0.00000  Uiso   1.00
C539   C     0.08057   0.32174   0.78400   0.00000  Uiso   1.00
N540   N     0.03151   0.30332   0.80604   0.00000  Uiso   1.00
C541   C     0.51494   0.26634   0.75020   0.00000  Uiso   1.00
C542   C     0.48506   0.06700   0.74980   0.00000  Uiso   1.00
C543   C     0.42449   0.13954   0.54153   0.00000  Uiso   1.00
C544   C     0.57550   0.19379   0.95847   0.00000  Uiso   1.00
C545   C     0.38488   0.11801   0.51428   0.00000  Uiso   1.00
C546   C     0.61512   0.21533   0.98572   0.00000  Uiso   1.00
C547   C     0.52455   0.32101   0.74336   0.00000  Uiso   1.00
C548   C     0.47545   0.01233   0.75664   0.00000  Uiso   1.00
C549   C     0.46126   0.16239   0.83315   0.00000  Uiso   1.00
C550   C     0.53874   0.17094   0.66685   0.00000  Uiso   1.00
C551   C     0.43741   0.15356   0.88056   0.00000  Uiso   1.00
C552   C     0.56259   0.17977   0.61944   0.00000  Uiso   1.00
C553   C     0.36471   0.10470   0.94176   0.00000  Uiso   1.00
C554   C     0.63529   0.22863   0.55824   0.00000  Uiso   1.00
C555   C     0.38276   0.11613   0.89712   0.00000  Uiso   1.00
C556   C     0.61724   0.21720   0.60288   0.00000  Uiso   1.00
C557   C     0.47448   0.17809   0.90868   0.00000  Uiso   1.00
C558   C     0.52551   0.15524   0.59132   0.00000  Uiso   1.00
C559   C     0.46450   0.15872   0.95119   0.00000  Uiso   1.00
C560   C     0.53550   0.17461   0.54882   0.00000  Uiso   1.00
C561   C     0.40501   0.12607   0.96908   0.00000  Uiso   1.00
C562   C     0.59498   0.20727   0.53092   0.00000  Uiso   1.00
C563   C     0.51007   0.17210   0.97697   0.00000  Uiso   1.00
C564   C     0.48992   0.16124   0.52303   0.00000  Uiso   1.00
Cu565  Cu    0.44071   0.16108   0.74517   0.00000  Uiso   1.00
Cu566  Cu    0.55929   0.17225   0.75484   0.00000  Uiso   1.00
H567   H     0.64638   0.23681   0.62424   0.00000  Uiso   1.00
H568   H     0.35362   0.09652   0.87576   0.00000  Uiso   1.00
H569   H     0.65332   0.07830   0.95461   0.00000  Uiso   1.00
H570   H     0.34668   0.25503   0.54539   0.00000  Uiso   1.00
H571   H     0.33390   0.20361   0.78522   0.00000  Uiso   1.00
H572   H     0.66610   0.12973   0.71478   0.00000  Uiso   1.00
N573   N     0.64839   0.18068   0.76212   0.00000  Uiso   1.00
N574   N     0.35161   0.15265   0.73788   0.00000  Uiso   1.00
O575   O     0.46148   0.23809   0.74686   0.00000  Uiso   1.00
O576   O     0.53852   0.09524   0.75314   0.00000  Uiso   1.00
O577   O     0.56163   0.24753   0.75503   0.00000  Uiso   1.00
O578   O     0.43837   0.08580   0.74498   0.00000  Uiso   1.00
O579   O     0.42185   0.15930   0.80855   0.00000  Uiso   1.00
O580   O     0.57815   0.17403   0.69146   0.00000  Uiso   1.00
O581   O     0.52199   0.16874   0.81671   0.00000  Uiso   1.00
O582   O     0.47801   0.16460   0.68329   0.00000  Uiso   1.00
F583   F     0.65775   0.09285   0.53245   0.00000  Uiso   1.00
F584   F     0.34225   0.24047   0.96755   0.00000  Uiso   1.00
F585   F     0.48511   0.10925   0.60414   0.00000  Uiso   1.00
F586   F     0.51489   0.22409   0.89586   0.00000  Uiso   1.00
C587   C     0.39387   0.14399   0.58778   0.00000  Uiso   1.00
N588   N     0.36927   0.14733   0.62480   0.00000  Uiso   1.00
C589   C     0.60612   0.18934   0.91222   0.00000  Uiso   1.00
N590   N     0.63071   0.18598   0.87520   0.00000  Uiso   1.00
C591   C     0.58610   0.01160   0.71600   0.00000  Uiso   1.00
N592   N     0.63516   0.03001   0.69396   0.00000  Uiso   1.00
C593   C     0.41390   0.32174   0.78400   0.00000  Uiso   1.00
N594   N     0.36484   0.30332   0.80604   0.00000  Uiso   1.00
C595   C     0.84827   0.26634   0.75020   0.00000  Uiso   1.00
C596   C     0.81839   0.06700   0.74980   0.00000  Uiso   1.00
C597   C     0.75783   0.13954   0.54153   0.00000  Uiso   1.00
C598   C     0.90884   0.19379   0.95847   0.00000  Uiso   1.00
C599   C     0.71821   0.11801   0.51428   0.00000  Uiso   1.00
C600   C     0.94845   0.21533   0.98572   0.00000  Uiso   1.00
C601   C     0.85788   0.32101   0.74336   0.00000  Uiso   1.00
C602   C     0.80879   0.01233   0.75664   0.00000  Uiso   1.00
C603   C     0.79459   0.16239   0.83315   0.00000  Uiso   1.00
C604   C     0.87207   0.17094   0.66685   0.00000  Uiso   1.00
C605   C     0.77074   0.15356   0.88056   0.00000  Uiso   1.00
C606   C     0.89593   0.17977   0.61944   0.00000  Uiso   1.00
C607   C     0.69805   0.10470   0.94176   0.00000  Uiso   1.00
C608   C     0.96862   0.22863   0.55824   0.00000  Uiso   1.00
C609   C     0.71609   0.11613   0.89712   0.00000  Uiso   1.00
C610   C     0.95057   0.21720   0.60288   0.00000  Uiso   1.00
C611   C     0.80782   0.17809   0.90868   0.00000  Uiso   1.00
C612   C     0.85885   0.15524   0.59132   0.00000  Uiso   1.00
C613   C     0.79783   0.15872   0.95119   0.00000  Uiso   1.00
C614   C     0.86883   0.17461   0.54882   0.00000  Uiso   1.00
C615   C     0.73835   0.12607   0.96908   0.00000  Uiso   1.00
C616   C     0.92832   0.20727   0.53092   0.00000  Uiso   1.00
C617   C     0.84340   0.17210   0.97697   0.00000  Uiso   1.00
C618   C     0.82326   0.16124   0.52303   0.00000  Uiso   1.00
Cu619  Cu    0.77404   0.16108   0.74517   0.00000  Uiso   1.00
Cu620  Cu    0.89263   0.17225   0.75484   0.00000  Uiso   1.00
H621   H     0.97972   0.23681   0.62424   0.00000  Uiso   1.00
H622   H     0.68695   0.09652   0.87576   0.00000  Uiso   1.00
H623   H     0.98665   0.07830   0.95461   0.00000  Uiso   1.00
H624   H     0.68001   0.25503   0.54539   0.00000  Uiso   1.00
H625   H     0.66723   0.20361   0.78522   0.00000  Uiso   1.00
H626   H     0.99943   0.12973   0.71478   0.00000  Uiso   1.00
N627   N     0.98173   0.18068   0.76212   0.00000  Uiso   1.00
N628   N     0.68494   0.15265   0.73788   0.00000  Uiso   1.00
O629   O     0.79482   0.23809   0.74686   0.00000  Uiso   1.00
O630   O     0.87185   0.09524   0.75314   0.00000  Uiso   1.00
O631   O     0.89496   0.24753   0.75503   0.00000  Uiso   1.00
O632   O     0.77171   0.08580   0.74498   0.00000  Uiso   1.00
O633   O     0.75518   0.15930   0.80855   0.00000  Uiso   1.00
O634   O     0.91149   0.17403   0.69146   0.00000  Uiso   1.00
O635   O     0.85532   0.16874   0.81671   0.00000  Uiso   1.00
O636   O     0.81134   0.16460   0.68329   0.00000  Uiso   1.00
F637   F     0.99108   0.09285   0.53245   0.00000  Uiso   1.00
F638   F     0.67558   0.24047   0.96755   0.00000  Uiso   1.00
F639   F     0.81844   0.10925   0.60414   0.00000  Uiso   1.00
F640   F     0.84822   0.22409   0.89586   0.00000  Uiso   1.00
C641   C     0.72720   0.14399   0.58778   0.00000  Uiso   1.00
N642   N     0.70261   0.14733   0.62480   0.00000  Uiso   1.00
C643   C     0.93946   0.18934   0.91222   0.00000  Uiso   1.00
N644   N     0.96405   0.18598   0.87520   0.00000  Uiso   1.00
C645   C     0.91943   0.01160   0.71600   0.00000  Uiso   1.00
N646   N     0.96849   0.03001   0.69396   0.00000  Uiso   1.00
C647   C     0.74723   0.32174   0.78400   0.00000  Uiso   1.00
N648   N     0.69818   0.30332   0.80604   0.00000  Uiso   1.00
C649   C     0.18161   0.59967   0.75020   0.00000  Uiso   1.00
C650   C     0.15173   0.40033   0.74980   0.00000  Uiso   1.00
C651   C     0.09116   0.47288   0.54153   0.00000  Uiso   1.00
C652   C     0.24217   0.52713   0.95847   0.00000  Uiso   1.00
C653   C     0.05155   0.45134   0.51428   0.00000  Uiso   1.00
C654   C     0.28178   0.54866   0.98572   0.00000  Uiso   1.00
C655   C     0.19121   0.65434   0.74336   0.00000  Uiso   1.00
C656   C     0.14212   0.34566   0.75664   0.00000  Uiso   1.00
C657   C     0.12793   0.49572   0.83315   0.00000  Uiso   1.00
C658   C     0.20541   0.50428   0.66685   0.00000  Uiso   1.00
C659   C     0.10407   0.48690   0.88056   0.00000  Uiso   1.00
C660   C     0.22926   0.51310   0.61944   0.00000  Uiso   1.00
C661   C     0.03138   0.43804   0.94176   0.00000  Uiso   1.00
C662   C     0.30196   0.56196   0.55824   0.00000  Uiso   1.00
C663   C     0.04943   0.44947   0.89712   0.00000  Uiso   1.00
C664   C     0.28391   0.55053   0.60288   0.00000  Uiso   1.00
C665   C     0.14115   0.51143   0.90868   0.00000  Uiso   1.00
C666   C     0.19218   0.48857   0.59132   0.00000  Uiso   1.00
C667   C     0.13117   0.49206   0.95119   0.00000  Uiso   1.00
C668   C     0.20216   0.50795   0.54882   0.00000  Uiso   1.00
C669   C     0.07168   0.45940   0.96908   0.00000  Uiso   1.00
C670   C     0.26165   0.54060   0.53092   0.00000  Uiso   1.00
C671   C     0.17674   0.50543   0.97697   0.00000  Uiso   1.00
C672   C     0.15659   0.49457   0.52303   0.00000  Uiso   1.00
Cu673  Cu    0.10737   0.49441   0.74517   0.00000  Uiso   1.00
Cu674  Cu    0.22596   0.50559   0.75484   0.00000  Uiso   1.00
H675   H     0.31305   0.57014   0.62424   0.00000  Uiso   1.00
H676   H     0.02029   0.42985   0.87576   0.00000  Uiso   1.00
H677   H     0.31999   0.41163   0.95461   0.00000  Uiso   1.00
H678   H     0.01335   0.58837   0.54539   0.00000  Uiso   1.00
H679   H     0.00057   0.53694   0.78522   0.00000  Uiso   1.00
H680   H     0.33277   0.46306   0.71478   0.00000  Uiso   1.00
N681   N     0.31506   0.51401   0.76212   0.00000  Uiso   1.00
N682   N     0.01827   0.48599   0.73788   0.00000  Uiso   1.00
O683   O     0.12815   0.57142   0.74686   0.00000  Uiso   1.00
O684   O     0.20518   0.42858   0.75314   0.00000  Uiso   1.00
O685   O     0.22829   0.58086   0.75503   0.00000  Uiso   1.00
O686   O     0.10504   0.41914   0.74498   0.00000  Uiso   1.00
O687   O     0.08851   0.49263   0.80855   0.00000  Uiso   1.00
O688   O     0.24482   0.50737   0.69146   0.00000  Uiso   1.00
O689   O     0.18866   0.50207   0.81671   0.00000  Uiso   1.00
O690   O     0.14468   0.49793   0.68329   0.00000  Uiso   1.00
F691   F     0.32442   0.42619   0.53245   0.00000  Uiso   1.00
F692   F     0.00892   0.57380   0.96755   0.00000  Uiso   1.00
F693   F     0.15177   0.44258   0.60414   0.00000  Uiso   1.00
F694   F     0.18156   0.55742   0.89586   0.00000  Uiso   1.00
C695   C     0.06054   0.47732   0.58778   0.00000  Uiso   1.00
N696   N     0.03594   0.48066   0.62480   0.00000  Uiso   1.00
C697   C     0.27279   0.52267   0.91222   0.00000  Uiso   1.00
N698   N     0.29738   0.51931   0.87520   0.00000  Uiso   1.00
C699   C     0.25277   0.34493   0.71600   0.00000  Uiso   1.00
N700   N     0.30182   0.36334   0.69396   0.00000  Uiso   1.00
C701   C     0.08057   0.65507   0.78400   0.00000  Uiso   1.00
N702   N     0.03151   0.63666   0.80604   0.00000  Uiso   1.00
C703   C     0.51494   0.59967   0.75020   0.00000  Uiso   1.00
C704   C     0.48506   0.40033   0.74980   0.00000  Uiso   1.00
C705   C     0.42449   0.47288   0.54153   0.00000  Uiso   1.00
C706   C     0.57550   0.52713   0.95847   0.00000  Uiso   1.00
C707   C     0.38488   0.45134   0.51428   0.00000  Uiso   1.00
C708   C     0.61512   0.54866   0.98572   0.00000  Uiso   1.00
C709   C     0.52455   0.65434   0.74336   0.00000  Uiso   1.00
C710   C     0.47545   0.34566   0.75664   0.00000  Uiso   1.00
C711   C     0.46126   0.49572   0.83315   0.00000  Uiso   1.00
C712   C     0.53874   0.50428   0.66685   0.00000  Uiso   1.00
C713   C     0.43741   0.48690   0.88056   0.00000  Uiso   1.00
C714   C     0.56259   0.51310   0.61944   0.00000  Uiso   1.00
C715   C     0.36471   0.43804   0.94176   0.00000  Uiso   1.00
C716   C     0.63529   0.56196   0.55824   0.00000  Uiso   1.00
C717   C     0.38276   0.44947   0.89712   0.00000  Uiso   1.00
C718   C     0.61724   0.55053   0.60288   0.00000  Uiso   1.00
C719   C     0.47448   0.51143   0.90868   0.00000  Uiso   1.00
C720   C     0.52551   0.48857   0.59132   0.00000  Uiso   1.00
C721   C     0.46450   0.49206   0.95119   0.00000  Uiso   1.00
C722   C     0.53550   0.50795   0.54882   0.00000  Uiso   1.00
C723   C     0.40501   0.45940   0.96908   0.00000  Uiso   1.00
C724   C     0.59498   0.54060   0.53092   0.00000  Uiso   1.00
C725   C     0.51007   0.50543   0.97697   0.00000  Uiso   1.00
C726   C     0.48992   0.49457   0.52303   0.00000  Uiso   1.00
Cu727  Cu    0.44071   0.49441   0.74517   0.00000  Uiso   1.00
Cu728  Cu    0.55929   0.50559   0.75484   0.00000  Uiso   1.00
H729   H     0.64638   0.57014   0.62424   0.00000  Uiso   1.00
H730   H     0.35362   0.42985   0.87576   0.00000  Uiso   1.00
H731   H     0.65332   0.41163   0.95461   0.00000  Uiso   1.00
H732   H     0.34668   0.58837   0.54539   0.00000  Uiso   1.00
H733   H     0.33390   0.53694   0.78522   0.00000  Uiso   1.00
H734   H     0.66610   0.46306   0.71478   0.00000  Uiso   1.00
N735   N     0.64839   0.51401   0.76212   0.00000  Uiso   1.00
N736   N     0.35161   0.48599   0.73788   0.00000  Uiso   1.00
O737   O     0.46148   0.57142   0.74686   0.00000  Uiso   1.00
O738   O     0.53852   0.42858   0.75314   0.00000  Uiso   1.00
O739   O     0.56163   0.58086   0.75503   0.00000  Uiso   1.00
O740   O     0.43837   0.41914   0.74498   0.00000  Uiso   1.00
O741   O     0.42185   0.49263   0.80855   0.00000  Uiso   1.00
O742   O     0.57815   0.50737   0.69146   0.00000  Uiso   1.00
O743   O     0.52199   0.50207   0.81671   0.00000  Uiso   1.00
O744   O     0.47801   0.49793   0.68329   0.00000  Uiso   1.00
F745   F     0.65775   0.42619   0.53245   0.00000  Uiso   1.00
F746   F     0.34225   0.57380   0.96755   0.00000  Uiso   1.00
F747   F     0.48511   0.44258   0.60414   0.00000  Uiso   1.00
F748   F     0.51489   0.55742   0.89586   0.00000  Uiso   1.00
C749   C     0.39387   0.47732   0.58778   0.00000  Uiso   1.00
N750   N     0.36927   0.48066   0.62480   0.00000  Uiso   1.00
C751   C     0.60612   0.52267   0.91222   0.00000  Uiso   1.00
N752   N     0.63071   0.51931   0.87520   0.00000  Uiso   1.00
C753   C     0.58610   0.34493   0.71600   0.00000  Uiso   1.00
N754   N     0.63516   0.36334   0.69396   0.00000  Uiso   1.00
C755   C     0.41390   0.65507   0.78400   0.00000  Uiso   1.00
N756   N     0.36484   0.63666   0.80604   0.00000  Uiso   1.00
C757   C     0.84827   0.59967   0.75020   0.00000  Uiso   1.00
C758   C     0.81839   0.40033   0.74980   0.00000  Uiso   1.00
C759   C     0.75783   0.47288   0.54153   0.00000  Uiso   1.00
C760   C     0.90884   0.52713   0.95847   0.00000  Uiso   1.00
C761   C     0.71821   0.45134   0.51428   0.00000  Uiso   1.00
C762   C     0.94845   0.54866   0.98572   0.00000  Uiso   1.00
C763   C     0.85788   0.65434   0.74336   0.00000  Uiso   1.00
C764   C     0.80879   0.34566   0.75664   0.00000  Uiso   1.00
C765   C     0.79459   0.49572   0.83315   0.00000  Uiso   1.00
C766   C     0.87207   0.50428   0.66685   0.00000  Uiso   1.00
C767   C     0.77074   0.48690   0.88056   0.00000  Uiso   1.00
C768   C     0.89593   0.51310   0.61944   0.00000  Uiso   1.00
C769   C     0.69805   0.43804   0.94176   0.00000  Uiso   1.00
C770   C     0.96862   0.56196   0.55824   0.00000  Uiso   1.00
C771   C     0.71609   0.44947   0.89712   0.00000  Uiso   1.00
C772   C     0.95057   0.55053   0.60288   0.00000  Uiso   1.00
C773   C     0.80782   0.51143   0.90868   0.00000  Uiso   1.00
C774   C     0.85885   0.48857   0.59132   0.00000  Uiso   1.00
C775   C     0.79783   0.49206   0.95119   0.00000  Uiso   1.00
C776   C     0.86883   0.50795   0.54882   0.00000  Uiso   1.00
C777   C     0.73835   0.45940   0.96908   0.00000  Uiso   1.00
C778   C     0.92832   0.54060   0.53092   0.00000  Uiso   1.00
C779   C     0.84340   0.50543   0.97697   0.00000  Uiso   1.00
C780   C     0.82326   0.49457   0.52303   0.00000  Uiso   1.00
Cu781  Cu    0.77404   0.49441   0.74517   0.00000  Uiso   1.00
Cu782  Cu    0.89263   0.50559   0.75484   0.00000  Uiso   1.00
H783   H     0.97972   0.57014   0.62424   0.00000  Uiso   1.00
H784   H     0.68695   0.42985   0.87576   0.00000  Uiso   1.00
H785   H     0.98665   0.41163   0.95461   0.00000  Uiso   1.00
H786   H     0.68001   0.58837   0.54539   0.00000  Uiso   1.00
H787   H     0.66723   0.53694   0.78522   0.00000  Uiso   1.00
H788   H     0.99943   0.46306   0.71478   0.00000  Uiso   1.00
N789   N     0.98173   0.51401   0.76212   0.00000  Uiso   1.00
N790   N     0.68494   0.48599   0.73788   0.00000  Uiso   1.00
O791   O     0.79482   0.57142   0.74686   0.00000  Uiso   1.00
O792   O     0.87185   0.42858   0.75314   0.00000  Uiso   1.00
O793   O     0.89496   0.58086   0.75503   0.00000  Uiso   1.00
O794   O     0.77171   0.41914   0.74498   0.00000  Uiso   1.00
O795   O     0.75518   0.49263   0.80855   0.00000  Uiso   1.00
O796   O     0.91149   0.50737   0.69146   0.00000  Uiso   1.00
O797   O     0.85532   0.50207   0.81671   0.00000  Uiso   1.00
O798   O     0.81134   0.49793   0.68329   0.00000  Uiso   1.00
F799   F     0.99108   0.42619   0.53245   0.00000  Uiso   1.00
F800   F     0.67558   0.57380   0.96755   0.00000  Uiso   1.00
F801   F     0.81844   0.44258   0.60414   0.00000  Uiso   1.00
F802   F     0.84822   0.55742   0.89586   0.00000  Uiso   1.00
C803   C     0.72720   0.47732   0.58778   0.00000  Uiso   1.00
N804   N     0.70261   0.48066   0.62480   0.00000  Uiso   1.00
C805   C     0.93946   0.52267   0.91222   0.00000  Uiso   1.00
N806   N     0.96405   0.51931   0.87520   0.00000  Uiso   1.00
C807   C     0.91943   0.34493   0.71600   0.00000  Uiso   1.00
N808   N     0.96849   0.36334   0.69396   0.00000  Uiso   1.00
C809   C     0.74723   0.65507   0.78400   0.00000  Uiso   1.00
N810   N     0.69818   0.63666   0.80604   0.00000  Uiso   1.00
C811   C     0.18161   0.93300   0.75020   0.00000  Uiso   1.00
C812   C     0.15173   0.73366   0.74980   0.00000  Uiso   1.00
C813   C     0.09116   0.80621   0.54153   0.00000  Uiso   1.00
C814   C     0.24217   0.86046   0.95847   0.00000  Uiso   1.00
C815   C     0.05155   0.78467   0.51428   0.00000  Uiso   1.00
C816   C     0.28178   0.88199   0.98572   0.00000  Uiso   1.00
C817   C     0.19121   0.98767   0.74336   0.00000  Uiso   1.00
C818   C     0.14212   0.67899   0.75664   0.00000  Uiso   1.00
C819   C     0.12793   0.82906   0.83315   0.00000  Uiso   1.00
C820   C     0.20541   0.83761   0.66685   0.00000  Uiso   1.00
C821   C     0.10407   0.82023   0.88056   0.00000  Uiso   1.00
C822   C     0.22926   0.84644   0.61944   0.00000  Uiso   1.00
C823   C     0.03138   0.77137   0.94176   0.00000  Uiso   1.00
C824   C     0.30196   0.89529   0.55824   0.00000  Uiso   1.00
C825   C     0.04943   0.78280   0.89712   0.00000  Uiso   1.00
C826   C     0.28391   0.88386   0.60288   0.00000  Uiso   1.00
C827   C     0.14115   0.84476   0.90868   0.00000  Uiso   1.00
C828   C     0.19218   0.82191   0.59132   0.00000  Uiso   1.00
C829   C     0.13117   0.82539   0.95119   0.00000  Uiso   1.00
C830   C     0.20216   0.84128   0.54882   0.00000  Uiso   1.00
C831   C     0.07168   0.79273   0.96908   0.00000  Uiso   1.00
C832   C     0.26165   0.87394   0.53092   0.00000  Uiso   1.00
C833   C     0.17674   0.83877   0.97697   0.00000  Uiso   1.00
C834   C     0.15659   0.82790   0.52303   0.00000  Uiso   1.00
Cu835  Cu    0.10737   0.82775   0.74517   0.00000  Uiso   1.00
Cu836  Cu    0.22596   0.83892   0.75484   0.00000  Uiso   1.00
H837   H     0.31305   0.90348   0.62424   0.00000  Uiso   1.00
H838   H     0.02029   0.76318   0.87576   0.00000  Uiso   1.00
H839   H     0.31999   0.74496   0.95461   0.00000  Uiso   1.00
H840   H     0.01335   0.92170   0.54539   0.00000  Uiso   1.00
H841   H     0.00057   0.87027   0.78522   0.00000  Uiso   1.00
H842   H     0.33277   0.79639   0.71478   0.00000  Uiso   1.00
N843   N     0.31506   0.84735   0.76212   0.00000  Uiso   1.00
N844   N     0.01827   0.81932   0.73788   0.00000  Uiso   1.00
O845   O     0.12815   0.90476   0.74686   0.00000  Uiso   1.00
O846   O     0.20518   0.76191   0.75314   0.00000  Uiso   1.00
O847   O     0.22829   0.91420   0.75503   0.00000  Uiso   1.00
O848   O     0.10504   0.75247   0.74498   0.00000  Uiso   1.00
O849   O     0.08851   0.82597   0.80855   0.00000  Uiso   1.00
O850   O     0.24482   0.84070   0.69146   0.00000  Uiso   1.00
O851   O     0.18866   0.83540   0.81671   0.00000  Uiso   1.00
O852   O     0.14468   0.83126   0.68329   0.00000  Uiso   1.00
F853   F     0.32442   0.75952   0.53245   0.00000  Uiso   1.00
F854   F     0.00892   0.90714   0.96755   0.00000  Uiso   1.00
F855   F     0.15177   0.77591   0.60414   0.00000  Uiso   1.00
F856   F     0.18156   0.89075   0.89586   0.00000  Uiso   1.00
C857   C     0.06054   0.81065   0.58778   0.00000  Uiso   1.00
N858   N     0.03594   0.81400   0.62480   0.00000  Uiso   1.00
C859   C     0.27279   0.85600   0.91222   0.00000  Uiso   1.00
N860   N     0.29738   0.85265   0.87520   0.00000  Uiso   1.00
C861   C     0.25277   0.67826   0.71600   0.00000  Uiso   1.00
N862   N     0.30182   0.69668   0.69396   0.00000  Uiso   1.00
C863   C     0.08057   0.98840   0.78400   0.00000  Uiso   1.00
N864   N     0.03151   0.96999   0.80604   0.00000  Uiso   1.00
C865   C     0.51494   0.93300   0.75020   0.00000  Uiso   1.00
C866   C     0.48506   0.73366   0.74980   0.00000  Uiso   1.00
C867   C     0.42449   0.80621   0.54153   0.00000  Uiso   1.00
C868   C     0.57550   0.86046   0.95847   0.00000  Uiso   1.00
C869   C     0.38488   0.78467   0.51428   0.00000  Uiso   1.00
C870   C     0.61512   0.88199   0.98572   0.00000  Uiso   1.00
C871   C     0.52455   0.98767   0.74336   0.00000  Uiso   1.00
C872   C     0.47545   0.67899   0.75664   0.00000  Uiso   1.00
C873   C     0.46126   0.82906   0.83315   0.00000  Uiso   1.00
C874   C     0.53874   0.83761   0.66685   0.00000  Uiso   1.00
C875   C     0.43741   0.82023   0.88056   0.00000  Uiso   1.00
C876   C     0.56259   0.84644   0.61944   0.00000  Uiso   1.00
C877   C     0.36471   0.77137   0.94176   0.00000  Uiso   1.00
C878   C     0.63529   0.89529   0.55824   0.00000  Uiso   1.00
C879   C     0.38276   0.78280   0.89712   0.00000  Uiso   1.00
C880   C     0.61724   0.88386   0.60288   0.00000  Uiso   1.00
C881   C     0.47448   0.84476   0.90868   0.00000  Uiso   1.00
C882   C     0.52551   0.82191   0.59132   0.00000  Uiso   1.00
C883   C     0.46450   0.82539   0.95119   0.00000  Uiso   1.00
C884   C     0.53550   0.84128   0.54882   0.00000  Uiso   1.00
C885   C     0.40501   0.79273   0.96908   0.00000  Uiso   1.00
C886   C     0.59498   0.87394   0.53092   0.00000  Uiso   1.00
C887   C     0.51007   0.83877   0.97697   0.00000  Uiso   1.00
C888   C     0.48992   0.82790   0.52303   0.00000  Uiso   1.00
Cu889  Cu    0.44071   0.82775   0.74517   0.00000  Uiso   1.00
Cu890  Cu    0.55929   0.83892   0.75484   0.00000  Uiso   1.00
H891   H     0.64638   0.90348   0.62424   0.00000  Uiso   1.00
H892   H     0.35362   0.76318   0.87576   0.00000  Uiso   1.00
H893   H     0.65332   0.74496   0.95461   0.00000  Uiso   1.00
H894   H     0.34668   0.92170   0.54539   0.00000  Uiso   1.00
H895   H     0.33390   0.87027   0.78522   0.00000  Uiso   1.00
H896   H     0.66610   0.79639   0.71478   0.00000  Uiso   1.00
N897   N     0.64839   0.84735   0.76212   0.00000  Uiso   1.00
N898   N     0.35161   0.81932   0.73788   0.00000  Uiso   1.00
O899   O     0.46148   0.90476   0.74686   0.00000  Uiso   1.00
O900   O     0.53852   0.76191   0.75314   0.00000  Uiso   1.00
O901   O     0.56163   0.91420   0.75503   0.00000  Uiso   1.00
O902   O     0.43837   0.75247   0.74498   0.00000  Uiso   1.00
O903   O     0.42185   0.82597   0.80855   0.00000  Uiso   1.00
O904   O     0.57815   0.84070   0.69146   0.00000  Uiso   1.00
O905   O     0.52199   0.83540   0.81671   0.00000  Uiso   1.00
O906   O     0.47801   0.83126   0.68329   0.00000  Uiso   1.00
F907   F     0.65775   0.75952   0.53245   0.00000  Uiso   1.00
F908   F     0.34225   0.90714   0.96755   0.00000  Uiso   1.00
F909   F     0.48511   0.77591   0.60414   0.00000  Uiso   1.00
F910   F     0.51489   0.89075   0.89586   0.00000  Uiso   1.00
C911   C     0.39387   0.81065   0.58778   0.00000  Uiso   1.00
N912   N     0.36927   0.81400   0.62480   0.00000  Uiso   1.00
C913   C     0.60612   0.85600   0.91222   0.00000  Uiso   1.00
N914   N     0.63071   0.85265   0.87520   0.00000  Uiso   1.00
C915   C     0.58610   0.67826   0.71600   0.00000  Uiso   1.00
N916   N     0.63516   0.69668   0.69396   0.00000  Uiso   1.00
C917   C     0.41390   0.98840   0.78400   0.00000  Uiso   1.00
N918   N     0.36484   0.96999   0.80604   0.00000  Uiso   1.00
C919   C     0.84827   0.93300   0.75020   0.00000  Uiso   1.00
C920   C     0.81839   0.73366   0.74980   0.00000  Uiso   1.00
C921   C     0.75783   0.80621   0.54153   0.00000  Uiso   1.00
C922   C     0.90884   0.86046   0.95847   0.00000  Uiso   1.00
C923   C     0.71821   0.78467   0.51428   0.00000  Uiso   1.00
C924   C     0.94845   0.88199   0.98572   0.00000  Uiso   1.00
C925   C     0.85788   0.98767   0.74336   0.00000  Uiso   1.00
C926   C     0.80879   0.67899   0.75664   0.00000  Uiso   1.00
C927   C     0.79459   0.82906   0.83315   0.00000  Uiso   1.00
C928   C     0.87207   0.83761   0.66685   0.00000  Uiso   1.00
C929   C     0.77074   0.82023   0.88056   0.00000  Uiso   1.00
C930   C     0.89593   0.84644   0.61944   0.00000  Uiso   1.00
C931   C     0.69805   0.77137   0.94176   0.00000  Uiso   1.00
C932   C     0.96862   0.89529   0.55824   0.00000  Uiso   1.00
C933   C     0.71609   0.78280   0.89712   0.00000  Uiso   1.00
C934   C     0.95057   0.88386   0.60288   0.00000  Uiso   1.00
C935   C     0.80782   0.84476   0.90868   0.00000  Uiso   1.00
C936   C     0.85885   0.82191   0.59132   0.00000  Uiso   1.00
C937   C     0.79783   0.82539   0.95119   0.00000  Uiso   1.00
C938   C     0.86883   0.84128   0.54882   0.00000  Uiso   1.00
C939   C     0.73835   0.79273   0.96908   0.00000  Uiso   1.00
C940   C     0.92832   0.87394   0.53092   0.00000  Uiso   1.00
C941   C     0.84340   0.83877   0.97697   0.00000  Uiso   1.00
C942   C     0.82326   0.82790   0.52303   0.00000  Uiso   1.00
Cu943  Cu    0.77404   0.82775   0.74517   0.00000  Uiso   1.00
Cu944  Cu    0.89263   0.83892   0.75484   0.00000  Uiso   1.00
H945   H     0.97972   0.90348   0.62424   0.00000  Uiso   1.00
H946   H     0.68695   0.76318   0.87576   0.00000  Uiso   1.00
H947   H     0.98665   0.74496   0.95461   0.00000  Uiso   1.00
H948   H     0.68001   0.92170   0.54539   0.00000  Uiso   1.00
H949   H     0.66723   0.87027   0.78522   0.00000  Uiso   1.00
H950   H     0.99943   0.79639   0.71478   0.00000  Uiso   1.00
N951   N     0.98173   0.84735   0.76212   0.00000  Uiso   1.00
N952   N     0.68494   0.81932   0.73788   0.00000  Uiso   1.00
O953   O     0.79482   0.90476   0.74686   0.00000  Uiso   1.00
O954   O     0.87185   0.76191   0.75314   0.00000  Uiso   1.00
O955   O     0.89496   0.91420   0.75503   0.00000  Uiso   1.00
O956   O     0.77171   0.75247   0.74498   0.00000  Uiso   1.00
O957   O     0.75518   0.82597   0.80855   0.00000  Uiso   1.00
O958   O     0.91149   0.84070   0.69146   0.00000  Uiso   1.00
O959   O     0.85532   0.83540   0.81671   0.00000  Uiso   1.00
O960   O     0.81134   0.83126   0.68329   0.00000  Uiso   1.00
F961   F     0.99108   0.75952   0.53245   0.00000  Uiso   1.00
F962   F     0.67558   0.90714   0.96755   0.00000  Uiso   1.00
F963   F     0.81844   0.77591   0.60414   0.00000  Uiso   1.00
F964   F     0.84822   0.89075   0.89586   0.00000  Uiso   1.00
C965   C     0.72720   0.81065   0.58778   0.00000  Uiso   1.00
N966   N     0.70261   0.81400   0.62480   0.00000  Uiso   1.00
C967   C     0.93946   0.85600   0.91222   0.00000  Uiso   1.00
N968   N     0.96405   0.85265   0.87520   0.00000  Uiso   1.00
C969   C     0.91943   0.67826   0.71600   0.00000  Uiso   1.00
N970   N     0.96849   0.69668   0.69396   0.00000  Uiso   1.00
C971   C     0.74723   0.98840   0.78400   0.00000  Uiso   1.00
N972   N     0.69818   0.96999   0.80604   0.00000  Uiso   1.00
loop_
_geom_bond_atom_site_label_1
_geom_bond_atom_site_label_2
_geom_bond_distance
_geom_bond_site_symmetry_2
_ccdc_geom_bond_type
C1     O37     1.291   .     A
C1     O35     1.288   .     A
C1     C7      1.428   .     S
C2     O38     1.291   .     A
C2     C8      1.428   .     S
C2     O36     1.288   .     A
C3     C24     1.430   .     A
C3     C47     1.446   .     S
C3     C5      1.395   .     A
C4     C49     1.446   .     S
C4     C6      1.395   .     A
C4     C23     1.430   .     A
C5     C507    1.393   1_554 S
C5     F151    1.362   1_455 S
C6     C508    1.393   .     S
C6     F98     1.362   .     S
C7     C170    1.350   .     S
C7     C213    1.454   .     S
C8     C331    1.350   1_545 S
C8     C377    1.454   1_545 S
C9     O41     1.298   .     A
C9     C11     1.464   .     S
C9     O39     1.302   .     A
C10    O42     1.298   .     A
C10    C12     1.464   .     S
C10    O40     1.302   .     A
C11    C17     1.397   .     A
C11    C15     1.397   .     A
C12    C18     1.397   .     A
C12    C16     1.397   .     A
C13    C21     1.406   .     A
C13    C15     1.393   .     A
C13    H137    1.083   1_455 S
C14    C22     1.406   .     A
C14    C16     1.393   .     A
C14    H84     1.083   .     S
C15    H28     1.083   .     S
C16    H27     1.083   .     S
C17    F46     1.359   .     S
C17    C19     1.411   .     A
C18    C20     1.411   .     A
C18    F45     1.359   .     S
C19    C23     1.432   .     A
C19    C21     1.416   .     A
C20    C22     1.416   .     A
C20    C24     1.432   .     A
C21    C491    1.393   .     S
C22    C492    1.393   1_554 S
C23    C510    1.432   .     S
C24    C509    1.432   1_554 S
Cu25   O42     1.908   .     S
Cu25   O38     1.965   .     S
Cu25   O39     1.930   .     S
Cu25   O35     1.975   .     S
Cu25   N34     2.024   .     S
Cu25   Cu26    2.694   .     S
Cu26   O37     1.965   .     S
Cu26   N33     2.024   .     S
Cu26   O40     1.930   .     S
Cu26   O36     1.975   .     S
Cu26   O41     1.908   .     S
H29    C67     1.083   .     S
H30    C122    1.083   1_455 S
H31    N141    1.027   1_455 S
H32    N88     1.027   .     S
N33    H85     1.027   .     S
N33    N88     1.282   .     S
N34    H140    1.027   1_455 S
N34    N141    1.282   1_455 S
F43    C59     1.362   .     S
F44    C114    1.362   1_455 S
C47    N48     1.157   .     T
C49    N50     1.157   .     T
C51    N52     1.157   .     T
C51    C331    1.454   1_545 S
C53    N54     1.157   .     T
C53    C170    1.454   .     S
C55    O91     1.291   .     A
C55    O89     1.288   .     A
C55    C61     1.428   .     S
C56    O92     1.291   .     A
C56    C62     1.428   .     S
C56    O90     1.288   .     A
C57    C78     1.430   .     A
C57    C101    1.446   .     S
C57    C59     1.395   .     A
C58    C103    1.446   .     S
C58    C60     1.395   .     A
C58    C77     1.430   .     A
C59    C561    1.393   1_554 S
C60    C562    1.393   .     S
C60    F152    1.362   .     S
C61    C224    1.350   .     S
C61    C267    1.454   .     S
C62    C385    1.350   1_545 S
C62    C431    1.454   1_545 S
C63    O95     1.298   .     A
C63    C65     1.464   .     S
C63    O93     1.302   .     A
C64    O96     1.298   .     A
C64    C66     1.464   .     S
C64    O94     1.302   .     A
C65    C71     1.397   .     A
C65    C69     1.397   .     A
C66    C72     1.397   .     A
C66    C70     1.397   .     A
C67    C75     1.406   .     A
C67    C69     1.393   .     A
C68    C76     1.406   .     A
C68    C70     1.393   .     A
C68    H138    1.083   .     S
C69    H82     1.083   .     S
C70    H81     1.083   .     S
C71    F100    1.359   .     S
C71    C73     1.411   .     A
C72    C74     1.411   .     A
C72    F99     1.359   .     S
C73    C77     1.432   .     A
C73    C75     1.416   .     A
C74    C76     1.416   .     A
C74    C78     1.432   .     A
C75    C545    1.393   .     S
C76    C546    1.393   1_554 S
C77    C564    1.432   .     S
C78    C563    1.432   1_554 S
Cu79   O96     1.908   .     S
Cu79   O92     1.965   .     S
Cu79   O93     1.930   .     S
Cu79   O89     1.975   .     S
Cu79   N88     2.024   .     S
Cu79   Cu80    2.694   .     S
Cu80   O91     1.965   .     S
Cu80   N87     2.024   .     S
Cu80   O94     1.930   .     S
Cu80   O90     1.975   .     S
Cu80   O95     1.908   .     S
H83    C121    1.083   .     S
H86    N142    1.027   .     S
N87    H139    1.027   .     S
N87    N142    1.282   .     S
F97    C113    1.362   .     S
C101   N102    1.157   .     T
C103   N104    1.157   .     T
C105   N106    1.157   .     T
C105   C385    1.454   1_545 S
C107   N108    1.157   .     T
C107   C224    1.454   .     S
C109   O145    1.291   .     A
C109   O143    1.288   .     A
C109   C115    1.428   .     S
C110   O146    1.291   .     A
C110   C116    1.428   .     S
C110   O144    1.288   .     A
C111   C132    1.430   .     A
C111   C155    1.446   .     S
C111   C113    1.395   .     A
C112   C157    1.446   .     S
C112   C114    1.395   .     A
C112   C131    1.430   .     A
C113   C615    1.393   1_554 S
C114   C616    1.393   .     S
C114   F44     1.362   1_655 S
C115   C278    1.350   .     S
C115   C321    1.454   .     S
C116   C439    1.350   1_545 S
C116   C485    1.454   1_545 S
C117   O149    1.298   .     A
C117   C119    1.464   .     S
C117   O147    1.302   .     A
C118   O150    1.298   .     A
C118   C120    1.464   .     S
C118   O148    1.302   .     A
C119   C125    1.397   .     A
C119   C123    1.397   .     A
C120   C126    1.397   .     A
C120   C124    1.397   .     A
C121   C129    1.406   .     A
C121   C123    1.393   .     A
C122   C130    1.406   .     A
C122   C124    1.393   .     A
C122   H30     1.083   1_655 S
C123   H136    1.083   .     S
C124   H135    1.083   .     S
C125   F154    1.359   .     S
C125   C127    1.411   .     A
C126   C128    1.411   .     A
C126   F153    1.359   .     S
C127   C131    1.432   .     A
C127   C129    1.416   .     A
C128   C130    1.416   .     A
C128   C132    1.432   .     A
C129   C599    1.393   .     S
C130   C600    1.393   1_554 S
C131   C618    1.432   .     S
C132   C617    1.432   1_554 S
Cu133  O150    1.908   .     S
Cu133  O146    1.965   .     S
Cu133  O147    1.930   .     S
Cu133  O143    1.975   .     S
Cu133  N142    2.024   .     S
Cu133  Cu134   2.694   .     S
Cu134  O145    1.965   .     S
Cu134  N141    2.024   .     S
Cu134  O148    1.930   .     S
Cu134  O144    1.975   .     S
Cu134  O149    1.908   .     S
H137   C13     1.083   1_655 S
H140   N34     1.027   1_655 S
N141   H31     1.027   1_655 S
N141   N34     1.282   1_655 S
F151   C5      1.362   1_655 S
C155   N156    1.157   .     T
C157   N158    1.157   .     T
C159   N160    1.157   .     T
C159   C439    1.454   1_545 S
C161   N162    1.157   .     T
C161   C278    1.454   .     S
C163   O199    1.291   .     A
C163   O197    1.288   .     A
C163   C169    1.428   .     S
C164   O200    1.291   .     A
C164   C170    1.428   .     S
C164   O198    1.288   .     A
C165   C186    1.430   .     A
C165   C209    1.446   .     S
C165   C167    1.395   .     A
C166   C211    1.446   .     S
C166   C168    1.395   .     A
C166   C185    1.430   .     A
C167   C669    1.393   1_554 S
C167   F313    1.362   1_455 S
C168   C670    1.393   .     S
C168   F260    1.362   .     S
C169   C332    1.350   .     S
C169   C375    1.454   .     S
C171   O203    1.298   .     A
C171   C173    1.464   .     S
C171   O201    1.302   .     A
C172   O204    1.298   .     A
C172   C174    1.464   .     S
C172   O202    1.302   .     A
C173   C179    1.397   .     A
C173   C177    1.397   .     A
C174   C180    1.397   .     A
C174   C178    1.397   .     A
C175   C183    1.406   .     A
C175   C177    1.393   .     A
C175   H299    1.083   1_455 S
C176   C184    1.406   .     A
C176   C178    1.393   .     A
C176   H246    1.083   .     S
C177   H190    1.083   .     S
C178   H189    1.083   .     S
C179   F208    1.359   .     S
C179   C181    1.411   .     A
C180   C182    1.411   .     A
C180   F207    1.359   .     S
C181   C185    1.432   .     A
C181   C183    1.416   .     A
C182   C184    1.416   .     A
C182   C186    1.432   .     A
C183   C653    1.393   .     S
C184   C654    1.393   1_554 S
C185   C672    1.432   .     S
C186   C671    1.432   1_554 S
Cu187  O204    1.908   .     S
Cu187  O200    1.965   .     S
Cu187  O201    1.930   .     S
Cu187  O197    1.975   .     S
Cu187  N196    2.024   .     S
Cu187  Cu188   2.694   .     S
Cu188  O199    1.965   .     S
Cu188  N195    2.024   .     S
Cu188  O202    1.930   .     S
Cu188  O198    1.975   .     S
Cu188  O203    1.908   .     S
H191   C229    1.083   .     S
H192   C284    1.083   1_455 S
H193   N303    1.027   1_455 S
H194   N250    1.027   .     S
N195   H247    1.027   .     S
N195   N250    1.282   .     S
N196   H302    1.027   1_455 S
N196   N303    1.282   1_455 S
F205   C221    1.362   .     S
F206   C276    1.362   1_455 S
C209   N210    1.157   .     T
C211   N212    1.157   .     T
C213   N214    1.157   .     T
C215   N216    1.157   .     T
C215   C332    1.454   .     S
C217   O253    1.291   .     A
C217   O251    1.288   .     A
C217   C223    1.428   .     S
C218   O254    1.291   .     A
C218   C224    1.428   .     S
C218   O252    1.288   .     A
C219   C240    1.430   .     A
C219   C263    1.446   .     S
C219   C221    1.395   .     A
C220   C265    1.446   .     S
C220   C222    1.395   .     A
C220   C239    1.430   .     A
C221   C723    1.393   1_554 S
C222   C724    1.393   .     S
C222   F314    1.362   .     S
C223   C386    1.350   .     S
C223   C429    1.454   .     S
C225   O257    1.298   .     A
C225   C227    1.464   .     S
C225   O255    1.302   .     A
C226   O258    1.298   .     A
C226   C228    1.464   .     S
C226   O256    1.302   .     A
C227   C233    1.397   .     A
C227   C231    1.397   .     A
C228   C234    1.397   .     A
C228   C232    1.397   .     A
C229   C237    1.406   .     A
C229   C231    1.393   .     A
C230   C238    1.406   .     A
C230   C232    1.393   .     A
C230   H300    1.083   .     S
C231   H244    1.083   .     S
C232   H243    1.083   .     S
C233   F262    1.359   .     S
C233   C235    1.411   .     A
C234   C236    1.411   .     A
C234   F261    1.359   .     S
C235   C239    1.432   .     A
C235   C237    1.416   .     A
C236   C238    1.416   .     A
C236   C240    1.432   .     A
C237   C707    1.393   .     S
C238   C708    1.393   1_554 S
C239   C726    1.432   .     S
C240   C725    1.432   1_554 S
Cu241  O258    1.908   .     S
Cu241  O254    1.965   .     S
Cu241  O255    1.930   .     S
Cu241  O251    1.975   .     S
Cu241  N250    2.024   .     S
Cu241  Cu242   2.694   .     S
Cu242  O253    1.965   .     S
Cu242  N249    2.024   .     S
Cu242  O256    1.930   .     S
Cu242  O252    1.975   .     S
Cu242  O257    1.908   .     S
H245   C283    1.083   .     S
H248   N304    1.027   .     S
N249   H301    1.027   .     S
N249   N304    1.282   .     S
F259   C275    1.362   .     S
C263   N264    1.157   .     T
C265   N266    1.157   .     T
C267   N268    1.157   .     T
C269   N270    1.157   .     T
C269   C386    1.454   .     S
C271   O307    1.291   .     A
C271   O305    1.288   .     A
C271   C277    1.428   .     S
C272   O308    1.291   .     A
C272   C278    1.428   .     S
C272   O306    1.288   .     A
C273   C294    1.430   .     A
C273   C317    1.446   .     S
C273   C275    1.395   .     A
C274   C319    1.446   .     S
C274   C276    1.395   .     A
C274   C293    1.430   .     A
C275   C777    1.393   1_554 S
C276   C778    1.393   .     S
C276   F206    1.362   1_655 S
C277   C440    1.350   .     S
C277   C483    1.454   .     S
C279   O311    1.298   .     A
C279   C281    1.464   .     S
C279   O309    1.302   .     A
C280   O312    1.298   .     A
C280   C282    1.464   .     S
C280   O310    1.302   .     A
C281   C287    1.397   .     A
C281   C285    1.397   .     A
C282   C288    1.397   .     A
C282   C286    1.397   .     A
C283   C291    1.406   .     A
C283   C285    1.393   .     A
C284   C292    1.406   .     A
C284   C286    1.393   .     A
C284   H192    1.083   1_655 S
C285   H298    1.083   .     S
C286   H297    1.083   .     S
C287   F316    1.359   .     S
C287   C289    1.411   .     A
C288   C290    1.411   .     A
C288   F315    1.359   .     S
C289   C293    1.432   .     A
C289   C291    1.416   .     A
C290   C292    1.416   .     A
C290   C294    1.432   .     A
C291   C761    1.393   .     S
C292   C762    1.393   1_554 S
C293   C780    1.432   .     S
C294   C779    1.432   1_554 S
Cu295  O312    1.908   .     S
Cu295  O308    1.965   .     S
Cu295  O309    1.930   .     S
Cu295  O305    1.975   .     S
Cu295  N304    2.024   .     S
Cu295  Cu296   2.694   .     S
Cu296  O307    1.965   .     S
Cu296  N303    2.024   .     S
Cu296  O310    1.930   .     S
Cu296  O306    1.975   .     S
Cu296  O311    1.908   .     S
H299   C175    1.083   1_655 S
H302   N196    1.027   1_655 S
N303   H193    1.027   1_655 S
N303   N196    1.282   1_655 S
F313   C167    1.362   1_655 S
C317   N318    1.157   .     T
C319   N320    1.157   .     T
C321   N322    1.157   .     T
C323   N324    1.157   .     T
C323   C440    1.454   .     S
C325   O361    1.291   .     A
C325   O359    1.288   .     A
C325   C331    1.428   .     S
C326   O362    1.291   .     A
C326   C332    1.428   .     S
C326   O360    1.288   .     A
C327   C348    1.430   .     A
C327   C371    1.446   .     S
C327   C329    1.395   .     A
C328   C373    1.446   .     S
C328   C330    1.395   .     A
C328   C347    1.430   .     A
C329   C831    1.393   1_554 S
C329   F475    1.362   1_455 S
C330   C832    1.393   .     S
C330   F422    1.362   .     S
C331   C8      1.350   1_565 S
C331   C51     1.454   1_565 S
C333   O365    1.298   .     A
C333   C335    1.464   .     S
C333   O363    1.302   .     A
C334   O366    1.298   .     A
C334   C336    1.464   .     S
C334   O364    1.302   .     A
C335   C341    1.397   .     A
C335   C339    1.397   .     A
C336   C342    1.397   .     A
C336   C340    1.397   .     A
C337   C345    1.406   .     A
C337   C339    1.393   .     A
C337   H461    1.083   1_455 S
C338   C346    1.406   .     A
C338   C340    1.393   .     A
C338   H408    1.083   .     S
C339   H352    1.083   .     S
C340   H351    1.083   .     S
C341   F370    1.359   .     S
C341   C343    1.411   .     A
C342   C344    1.411   .     A
C342   F369    1.359   .     S
C343   C347    1.432   .     A
C343   C345    1.416   .     A
C344   C346    1.416   .     A
C344   C348    1.432   .     A
C345   C815    1.393   .     S
C346   C816    1.393   1_554 S
C347   C834    1.432   .     S
C348   C833    1.432   1_554 S
Cu349  O366    1.908   .     S
Cu349  O362    1.965   .     S
Cu349  O363    1.930   .     S
Cu349  O359    1.975   .     S
Cu349  N358    2.024   .     S
Cu349  Cu350   2.694   .     S
Cu350  O361    1.965   .     S
Cu350  N357    2.024   .     S
Cu350  O364    1.930   .     S
Cu350  O360    1.975   .     S
Cu350  O365    1.908   .     S
H353   C391    1.083   .     S
H354   C446    1.083   1_455 S
H355   N465    1.027   1_455 S
H356   N412    1.027   .     S
N357   H409    1.027   .     S
N357   N412    1.282   .     S
N358   H464    1.027   1_455 S
N358   N465    1.282   1_455 S
F367   C383    1.362   .     S
F368   C438    1.362   1_455 S
C371   N372    1.157   .     T
C373   N374    1.157   .     T
C375   N376    1.157   .     T
C377   N378    1.157   .     T
C377   C8      1.454   1_565 S
C379   O415    1.291   .     A
C379   O413    1.288   .     A
C379   C385    1.428   .     S
C380   O416    1.291   .     A
C380   C386    1.428   .     S
C380   O414    1.288   .     A
C381   C402    1.430   .     A
C381   C425    1.446   .     S
C381   C383    1.395   .     A
C382   C427    1.446   .     S
C382   C384    1.395   .     A
C382   C401    1.430   .     A
C383   C885    1.393   1_554 S
C384   C886    1.393   .     S
C384   F476    1.362   .     S
C385   C62     1.350   1_565 S
C385   C105    1.454   1_565 S
C387   O419    1.298   .     A
C387   C389    1.464   .     S
C387   O417    1.302   .     A
C388   O420    1.298   .     A
C388   C390    1.464   .     S
C388   O418    1.302   .     A
C389   C395    1.397   .     A
C389   C393    1.397   .     A
C390   C396    1.397   .     A
C390   C394    1.397   .     A
C391   C399    1.406   .     A
C391   C393    1.393   .     A
C392   C400    1.406   .     A
C392   C394    1.393   .     A
C392   H462    1.083   .     S
C393   H406    1.083   .     S
C394   H405    1.083   .     S
C395   F424    1.359   .     S
C395   C397    1.411   .     A
C396   C398    1.411   .     A
C396   F423    1.359   .     S
C397   C401    1.432   .     A
C397   C399    1.416   .     A
C398   C400    1.416   .     A
C398   C402    1.432   .     A
C399   C869    1.393   .     S
C400   C870    1.393   1_554 S
C401   C888    1.432   .     S
C402   C887    1.432   1_554 S
Cu403  O420    1.908   .     S
Cu403  O416    1.965   .     S
Cu403  O417    1.930   .     S
Cu403  O413    1.975   .     S
Cu403  N412    2.024   .     S
Cu403  Cu404   2.694   .     S
Cu404  O415    1.965   .     S
Cu404  N411    2.024   .     S
Cu404  O418    1.930   .     S
Cu404  O414    1.975   .     S
Cu404  O419    1.908   .     S
H407   C445    1.083   .     S
H410   N466    1.027   .     S
N411   H463    1.027   .     S
N411   N466    1.282   .     S
F421   C437    1.362   .     S
C425   N426    1.157   .     T
C427   N428    1.157   .     T
C429   N430    1.157   .     T
C431   N432    1.157   .     T
C431   C62     1.454   1_565 S
C433   O469    1.291   .     A
C433   O467    1.288   .     A
C433   C439    1.428   .     S
C434   O470    1.291   .     A
C434   C440    1.428   .     S
C434   O468    1.288   .     A
C435   C456    1.430   .     A
C435   C479    1.446   .     S
C435   C437    1.395   .     A
C436   C481    1.446   .     S
C436   C438    1.395   .     A
C436   C455    1.430   .     A
C437   C939    1.393   1_554 S
C438   C940    1.393   .     S
C438   F368    1.362   1_655 S
C439   C116    1.350   1_565 S
C439   C159    1.454   1_565 S
C441   O473    1.298   .     A
C441   C443    1.464   .     S
C441   O471    1.302   .     A
C442   O474    1.298   .     A
C442   C444    1.464   .     S
C442   O472    1.302   .     A
C443   C449    1.397   .     A
C443   C447    1.397   .     A
C444   C450    1.397   .     A
C444   C448    1.397   .     A
C445   C453    1.406   .     A
C445   C447    1.393   .     A
C446   C454    1.406   .     A
C446   C448    1.393   .     A
C446   H354    1.083   1_655 S
C447   H460    1.083   .     S
C448   H459    1.083   .     S
C449   F478    1.359   .     S
C449   C451    1.411   .     A
C450   C452    1.411   .     A
C450   F477    1.359   .     S
C451   C455    1.432   .     A
C451   C453    1.416   .     A
C452   C454    1.416   .     A
C452   C456    1.432   .     A
C453   C923    1.393   .     S
C454   C924    1.393   1_554 S
C455   C942    1.432   .     S
C456   C941    1.432   1_554 S
Cu457  O474    1.908   .     S
Cu457  O470    1.965   .     S
Cu457  O471    1.930   .     S
Cu457  O467    1.975   .     S
Cu457  N466    2.024   .     S
Cu457  Cu458   2.694   .     S
Cu458  O469    1.965   .     S
Cu458  N465    2.024   .     S
Cu458  O472    1.930   .     S
Cu458  O468    1.975   .     S
Cu458  O473    1.908   .     S
H461   C337    1.083   1_655 S
H464   N358    1.027   1_655 S
N465   H355    1.027   1_655 S
N465   N358    1.282   1_655 S
F475   C329    1.362   1_655 S
C479   N480    1.157   .     T
C481   N482    1.157   .     T
C483   N484    1.157   .     T
C485   N486    1.157   .     T
C485   C116    1.454   1_565 S
C487   O523    1.291   .     A
C487   O521    1.288   .     A
C487   C493    1.428   .     S
C488   O524    1.291   .     A
C488   C494    1.428   .     S
C488   O522    1.288   .     A
C489   C510    1.430   .     A
C489   C533    1.446   .     S
C489   C491    1.395   .     A
C490   C535    1.446   .     S
C490   C492    1.395   .     A
C490   C509    1.430   .     A
C491   F637    1.362   1_455 S
C492   C22     1.393   1_556 S
C492   F584    1.362   .     S
C493   C656    1.350   .     S
C493   C699    1.454   .     S
C494   C817    1.350   1_545 S
C494   C863    1.454   1_545 S
C495   O527    1.298   .     A
C495   C497    1.464   .     S
C495   O525    1.302   .     A
C496   O528    1.298   .     A
C496   C498    1.464   .     S
C496   O526    1.302   .     A
C497   C503    1.397   .     A
C497   C501    1.397   .     A
C498   C504    1.397   .     A
C498   C502    1.397   .     A
C499   C507    1.406   .     A
C499   C501    1.393   .     A
C499   H623    1.083   1_455 S
C500   C508    1.406   .     A
C500   C502    1.393   .     A
C500   H570    1.083   .     S
C501   H514    1.083   .     S
C502   H513    1.083   .     S
C503   F532    1.359   .     S
C503   C505    1.411   .     A
C504   C506    1.411   .     A
C504   F531    1.359   .     S
C505   C509    1.432   .     A
C505   C507    1.416   .     A
C506   C508    1.416   .     A
C506   C510    1.432   .     A
C507   C5      1.393   1_556 S
C509   C24     1.432   1_556 S
Cu511  O528    1.908   .     S
Cu511  O524    1.965   .     S
Cu511  O525    1.930   .     S
Cu511  O521    1.975   .     S
Cu511  N520    2.024   .     S
Cu511  Cu512   2.694   .     S
Cu512  O523    1.965   .     S
Cu512  N519    2.024   .     S
Cu512  O526    1.930   .     S
Cu512  O522    1.975   .     S
Cu512  O527    1.908   .     S
H515   C553    1.083   .     S
H516   C608    1.083   1_455 S
H517   N627    1.027   1_455 S
H518   N574    1.027   .     S
N519   H571    1.027   .     S
N519   N574    1.282   .     S
N520   H626    1.027   1_455 S
N520   N627    1.282   1_455 S
F529   C545    1.362   .     S
F530   C600    1.362   1_455 S
C533   N534    1.157   .     T
C535   N536    1.157   .     T
C537   N538    1.157   .     T
C537   C817    1.454   1_545 S
C539   N540    1.157   .     T
C539   C656    1.454   .     S
C541   O577    1.291   .     A
C541   O575    1.288   .     A
C541   C547    1.428   .     S
C542   O578    1.291   .     A
C542   C548    1.428   .     S
C542   O576    1.288   .     A
C543   C564    1.430   .     A
C543   C587    1.446   .     S
C543   C545    1.395   .     A
C544   C589    1.446   .     S
C544   C546    1.395   .     A
C544   C563    1.430   .     A
C546   C76     1.393   1_556 S
C546   F638    1.362   .     S
C547   C710    1.350   .     S
C547   C753    1.454   .     S
C548   C871    1.350   1_545 S
C548   C917    1.454   1_545 S
C549   O581    1.298   .     A
C549   C551    1.464   .     S
C549   O579    1.302   .     A
C550   O582    1.298   .     A
C550   C552    1.464   .     S
C550   O580    1.302   .     A
C551   C557    1.397   .     A
C551   C555    1.397   .     A
C552   C558    1.397   .     A
C552   C556    1.397   .     A
C553   C561    1.406   .     A
C553   C555    1.393   .     A
C554   C562    1.406   .     A
C554   C556    1.393   .     A
C554   H624    1.083   .     S
C555   H568    1.083   .     S
C556   H567    1.083   .     S
C557   F586    1.359   .     S
C557   C559    1.411   .     A
C558   C560    1.411   .     A
C558   F585    1.359   .     S
C559   C563    1.432   .     A
C559   C561    1.416   .     A
C560   C562    1.416   .     A
C560   C564    1.432   .     A
C561   C59     1.393   1_556 S
C563   C78     1.432   1_556 S
Cu565  O582    1.908   .     S
Cu565  O578    1.965   .     S
Cu565  O579    1.930   .     S
Cu565  O575    1.975   .     S
Cu565  N574    2.024   .     S
Cu565  Cu566   2.694   .     S
Cu566  O577    1.965   .     S
Cu566  N573    2.024   .     S
Cu566  O580    1.930   .     S
Cu566  O576    1.975   .     S
Cu566  O581    1.908   .     S
H569   C607    1.083   .     S
H572   N628    1.027   .     S
N573   H625    1.027   .     S
N573   N628    1.282   .     S
F583   C599    1.362   .     S
C587   N588    1.157   .     T
C589   N590    1.157   .     T
C591   N592    1.157   .     T
C591   C871    1.454   1_545 S
C593   N594    1.157   .     T
C593   C710    1.454   .     S
C595   O631    1.291   .     A
C595   O629    1.288   .     A
C595   C601    1.428   .     S
C596   O632    1.291   .     A
C596   C602    1.428   .     S
C596   O630    1.288   .     A
C597   C618    1.430   .     A
C597   C641    1.446   .     S
C597   C599    1.395   .     A
C598   C643    1.446   .     S
C598   C600    1.395   .     A
C598   C617    1.430   .     A
C600   C130    1.393   1_556 S
C600   F530    1.362   1_655 S
C601   C764    1.350   .     S
C601   C807    1.454   .     S
C602   C925    1.350   1_545 S
C602   C971    1.454   1_545 S
C603   O635    1.298   .     A
C603   C605    1.464   .     S
C603   O633    1.302   .     A
C604   O636    1.298   .     A
C604   C606    1.464   .     S
C604   O634    1.302   .     A
C605   C611    1.397   .     A
C605   C609    1.397   .     A
C606   C612    1.397   .     A
C606   C610    1.397   .     A
C607   C615    1.406   .     A
C607   C609    1.393   .     A
C608   C616    1.406   .     A
C608   C610    1.393   .     A
C608   H516    1.083   1_655 S
C609   H622    1.083   .     S
C610   H621    1.083   .     S
C611   F640    1.359   .     S
C611   C613    1.411   .     A
C612   C614    1.411   .     A
C612   F639    1.359   .     S
C613   C617    1.432   .     A
C613   C615    1.416   .     A
C614   C616    1.416   .     A
C614   C618    1.432   .     A
C615   C113    1.393   1_556 S
C617   C132    1.432   1_556 S
Cu619  O636    1.908   .     S
Cu619  O632    1.965   .     S
Cu619  O633    1.930   .     S
Cu619  O629    1.975   .     S
Cu619  N628    2.024   .     S
Cu619  Cu620   2.694   .     S
Cu620  O631    1.965   .     S
Cu620  N627    2.024   .     S
Cu620  O634    1.930   .     S
Cu620  O630    1.975   .     S
Cu620  O635    1.908   .     S
H623   C499    1.083   1_655 S
H626   N520    1.027   1_655 S
N627   H517    1.027   1_655 S
N627   N520    1.282   1_655 S
F637   C491    1.362   1_655 S
C641   N642    1.157   .     T
C643   N644    1.157   .     T
C645   N646    1.157   .     T
C645   C925    1.454   1_545 S
C647   N648    1.157   .     T
C647   C764    1.454   .     S
C649   O685    1.291   .     A
C649   O683    1.288   .     A
C649   C655    1.428   .     S
C650   O686    1.291   .     A
C650   C656    1.428   .     S
C650   O684    1.288   .     A
C651   C672    1.430   .     A
C651   C695    1.446   .     S
C651   C653    1.395   .     A
C652   C697    1.446   .     S
C652   C654    1.395   .     A
C652   C671    1.430   .     A
C653   F799    1.362   1_455 S
C654   C184    1.393   1_556 S
C654   F746    1.362   .     S
C655   C818    1.350   .     S
C655   C861    1.454   .     S
C657   O689    1.298   .     A
C657   C659    1.464   .     S
C657   O687    1.302   .     A
C658   O690    1.298   .     A
C658   C660    1.464   .     S
C658   O688    1.302   .     A
C659   C665    1.397   .     A
C659   C663    1.397   .     A
C660   C666    1.397   .     A
C660   C664    1.397   .     A
C661   C669    1.406   .     A
C661   C663    1.393   .     A
C661   H785    1.083   1_455 S
C662   C670    1.406   .     A
C662   C664    1.393   .     A
C662   H732    1.083   .     S
C663   H676    1.083   .     S
C664   H675    1.083   .     S
C665   F694    1.359   .     S
C665   C667    1.411   .     A
C666   C668    1.411   .     A
C666   F693    1.359   .     S
C667   C671    1.432   .     A
C667   C669    1.416   .     A
C668   C670    1.416   .     A
C668   C672    1.432   .     A
C669   C167    1.393   1_556 S
C671   C186    1.432   1_556 S
Cu673  O690    1.908   .     S
Cu673  O686    1.965   .     S
Cu673  O687    1.930   .     S
Cu673  O683    1.975   .     S
Cu673  N682    2.024   .     S
Cu673  Cu674   2.694   .     S
Cu674  O685    1.965   .     S
Cu674  N681    2.024   .     S
Cu674  O688    1.930   .     S
Cu674  O684    1.975   .     S
Cu674  O689    1.908   .     S
H677   C715    1.083   .     S
H678   C770    1.083   1_455 S
H679   N789    1.027   1_455 S
H680   N736    1.027   .     S
N681   H733    1.027   .     S
N681   N736    1.282   .     S
N682   H788    1.027   1_455 S
N682   N789    1.282   1_455 S
F691   C707    1.362   .     S
F692   C762    1.362   1_455 S
C695   N696    1.157   .     T
C697   N698    1.157   .     T
C699   N700    1.157   .     T
C701   N702    1.157   .     T
C701   C818    1.454   .     S
C703   O739    1.291   .     A
C703   O737    1.288   .     A
C703   C709    1.428   .     S
C704   O740    1.291   .     A
C704   C710    1.428   .     S
C704   O738    1.288   .     A
C705   C726    1.430   .     A
C705   C749    1.446   .     S
C705   C707    1.395   .     A
C706   C751    1.446   .     S
C706   C708    1.395   .     A
C706   C725    1.430   .     A
C708   C238    1.393   1_556 S
C708   F800    1.362   .     S
C709   C872    1.350   .     S
C709   C915    1.454   .     S
C711   O743    1.298   .     A
C711   C713    1.464   .     S
C711   O741    1.302   .     A
C712   O744    1.298   .     A
C712   C714    1.464   .     S
C712   O742    1.302   .     A
C713   C719    1.397   .     A
C713   C717    1.397   .     A
C714   C720    1.397   .     A
C714   C718    1.397   .     A
C715   C723    1.406   .     A
C715   C717    1.393   .     A
C716   C724    1.406   .     A
C716   C718    1.393   .     A
C716   H786    1.083   .     S
C717   H730    1.083   .     S
C718   H729    1.083   .     S
C719   F748    1.359   .     S
C719   C721    1.411   .     A
C720   C722    1.411   .     A
C720   F747    1.359   .     S
C721   C725    1.432   .     A
C721   C723    1.416   .     A
C722   C724    1.416   .     A
C722   C726    1.432   .     A
C723   C221    1.393   1_556 S
C725   C240    1.432   1_556 S
Cu727  O744    1.908   .     S
Cu727  O740    1.965   .     S
Cu727  O741    1.930   .     S
Cu727  O737    1.975   .     S
Cu727  N736    2.024   .     S
Cu727  Cu728   2.694   .     S
Cu728  O739    1.965   .     S
Cu728  N735    2.024   .     S
Cu728  O742    1.930   .     S
Cu728  O738    1.975   .     S
Cu728  O743    1.908   .     S
H731   C769    1.083   .     S
H734   N790    1.027   .     S
N735   H787    1.027   .     S
N735   N790    1.282   .     S
F745   C761    1.362   .     S
C749   N750    1.157   .     T
C751   N752    1.157   .     T
C753   N754    1.157   .     T
C755   N756    1.157   .     T
C755   C872    1.454   .     S
C757   O793    1.291   .     A
C757   O791    1.288   .     A
C757   C763    1.428   .     S
C758   O794    1.291   .     A
C758   C764    1.428   .     S
C758   O792    1.288   .     A
C759   C780    1.430   .     A
C759   C803    1.446   .     S
C759   C761    1.395   .     A
C760   C805    1.446   .     S
C760   C762    1.395   .     A
C760   C779    1.430   .     A
C762   C292    1.393   1_556 S
C762   F692    1.362   1_655 S
C763   C926    1.350   .     S
C763   C969    1.454   .     S
C765   O797    1.298   .     A
C765   C767    1.464   .     S
C765   O795    1.302   .     A
C766   O798    1.298   .     A
C766   C768    1.464   .     S
C766   O796    1.302   .     A
C767   C773    1.397   .     A
C767   C771    1.397   .     A
C768   C774    1.397   .     A
C768   C772    1.397   .     A
C769   C777    1.406   .     A
C769   C771    1.393   .     A
C770   C778    1.406   .     A
C770   C772    1.393   .     A
C770   H678    1.083   1_655 S
C771   H784    1.083   .     S
C772   H783    1.083   .     S
C773   F802    1.359   .     S
C773   C775    1.411   .     A
C774   C776    1.411   .     A
C774   F801    1.359   .     S
C775   C779    1.432   .     A
C775   C777    1.416   .     A
C776   C778    1.416   .     A
C776   C780    1.432   .     A
C777   C275    1.393   1_556 S
C779   C294    1.432   1_556 S
Cu781  O798    1.908   .     S
Cu781  O794    1.965   .     S
Cu781  O795    1.930   .     S
Cu781  O791    1.975   .     S
Cu781  N790    2.024   .     S
Cu781  Cu782   2.694   .     S
Cu782  O793    1.965   .     S
Cu782  N789    2.024   .     S
Cu782  O796    1.930   .     S
Cu782  O792    1.975   .     S
Cu782  O797    1.908   .     S
H785   C661    1.083   1_655 S
H788   N682    1.027   1_655 S
N789   H679    1.027   1_655 S
N789   N682    1.282   1_655 S
F799   C653    1.362   1_655 S
C803   N804    1.157   .     T
C805   N806    1.157   .     T
C807   N808    1.157   .     T
C809   N810    1.157   .     T
C809   C926    1.454   .     S
C811   O847    1.291   .     A
C811   O845    1.288   .     A
C811   C817    1.428   .     S
C812   O848    1.291   .     A
C812   C818    1.428   .     S
C812   O846    1.288   .     A
C813   C834    1.430   .     A
C813   C857    1.446   .     S
C813   C815    1.395   .     A
C814   C859    1.446   .     S
C814   C816    1.395   .     A
C814   C833    1.430   .     A
C815   F961    1.362   1_455 S
C816   C346    1.393   1_556 S
C816   F908    1.362   .     S
C817   C494    1.350   1_565 S
C817   C537    1.454   1_565 S
C819   O851    1.298   .     A
C819   C821    1.464   .     S
C819   O849    1.302   .     A
C820   O852    1.298   .     A
C820   C822    1.464   .     S
C820   O850    1.302   .     A
C821   C827    1.397   .     A
C821   C825    1.397   .     A
C822   C828    1.397   .     A
C822   C826    1.397   .     A
C823   C831    1.406   .     A
C823   C825    1.393   .     A
C823   H947    1.083   1_455 S
C824   C832    1.406   .     A
C824   C826    1.393   .     A
C824   H894    1.083   .     S
C825   H838    1.083   .     S
C826   H837    1.083   .     S
C827   F856    1.359   .     S
C827   C829    1.411   .     A
C828   C830    1.411   .     A
C828   F855    1.359   .     S
C829   C833    1.432   .     A
C829   C831    1.416   .     A
C830   C832    1.416   .     A
C830   C834    1.432   .     A
C831   C329    1.393   1_556 S
C833   C348    1.432   1_556 S
Cu835  O852    1.908   .     S
Cu835  O848    1.965   .     S
Cu835  O849    1.930   .     S
Cu835  O845    1.975   .     S
Cu835  N844    2.024   .     S
Cu835  Cu836   2.694   .     S
Cu836  O847    1.965   .     S
Cu836  N843    2.024   .     S
Cu836  O850    1.930   .     S
Cu836  O846    1.975   .     S
Cu836  O851    1.908   .     S
H839   C877    1.083   .     S
H840   C932    1.083   1_455 S
H841   N951    1.027   1_455 S
H842   N898    1.027   .     S
N843   H895    1.027   .     S
N843   N898    1.282   .     S
N844   H950    1.027   1_455 S
N844   N951    1.282   1_455 S
F853   C869    1.362   .     S
F854   C924    1.362   1_455 S
C857   N858    1.157   .     T
C859   N860    1.157   .     T
C861   N862    1.157   .     T
C863   N864    1.157   .     T
C863   C494    1.454   1_565 S
C865   O901    1.291   .     A
C865   O899    1.288   .     A
C865   C871    1.428   .     S
C866   O902    1.291   .     A
C866   C872    1.428   .     S
C866   O900    1.288   .     A
C867   C888    1.430   .     A
C867   C911    1.446   .     S
C867   C869    1.395   .     A
C868   C913    1.446   .     S
C868   C870    1.395   .     A
C868   C887    1.430   .     A
C870   C400    1.393   1_556 S
C870   F962    1.362   .     S
C871   C548    1.350   1_565 S
C871   C591    1.454   1_565 S
C873   O905    1.298   .     A
C873   C875    1.464   .     S
C873   O903    1.302   .     A
C874   O906    1.298   .     A
C874   C876    1.464   .     S
C874   O904    1.302   .     A
C875   C881    1.397   .     A
C875   C879    1.397   .     A
C876   C882    1.397   .     A
C876   C880    1.397   .     A
C877   C885    1.406   .     A
C877   C879    1.393   .     A
C878   C886    1.406   .     A
C878   C880    1.393   .     A
C878   H948    1.083   .     S
C879   H892    1.083   .     S
C880   H891    1.083   .     S
C881   F910    1.359   .     S
C881   C883    1.411   .     A
C882   C884    1.411   .     A
C882   F909    1.359   .     S
C883   C887    1.432   .     A
C883   C885    1.416   .     A
C884   C886    1.416   .     A
C884   C888    1.432   .     A
C885   C383    1.393   1_556 S
C887   C402    1.432   1_556 S
Cu889  O906    1.908   .     S
Cu889  O902    1.965   .     S
Cu889  O903    1.930   .     S
Cu889  O899    1.975   .     S
Cu889  N898    2.024   .     S
Cu889  Cu890   2.694   .     S
Cu890  O901    1.965   .     S
Cu890  N897    2.024   .     S
Cu890  O904    1.930   .     S
Cu890  O900    1.975   .     S
Cu890  O905    1.908   .     S
H893   C931    1.083   .     S
H896   N952    1.027   .     S
N897   H949    1.027   .     S
N897   N952    1.282   .     S
F907   C923    1.362   .     S
C911   N912    1.157   .     T
C913   N914    1.157   .     T
C915   N916    1.157   .     T
C917   N918    1.157   .     T
C917   C548    1.454   1_565 S
C919   O955    1.291   .     A
C919   O953    1.288   .     A
C919   C925    1.428   .     S
C920   O956    1.291   .     A
C920   C926    1.428   .     S
C920   O954    1.288   .     A
C921   C942    1.430   .     A
C921   C965    1.446   .     S
C921   C923    1.395   .     A
C922   C967    1.446   .     S
C922   C924    1.395   .     A
C922   C941    1.430   .     A
C924   C454    1.393   1_556 S
C924   F854    1.362   1_655 S
C925   C602    1.350   1_565 S
C925   C645    1.454   1_565 S
C927   O959    1.298   .     A
C927   C929    1.464   .     S
C927   O957    1.302   .     A
C928   O960    1.298   .     A
C928   C930    1.464   .     S
C928   O958    1.302   .     A
C929   C935    1.397   .     A
C929   C933    1.397   .     A
C930   C936    1.397   .     A
C930   C934    1.397   .     A
C931   C939    1.406   .     A
C931   C933    1.393   .     A
C932   C940    1.406   .     A
C932   C934    1.393   .     A
C932   H840    1.083   1_655 S
C933   H946    1.083   .     S
C934   H945    1.083   .     S
C935   F964    1.359   .     S
C935   C937    1.411   .     A
C936   C938    1.411   .     A
C936   F963    1.359   .     S
C937   C941    1.432   .     A
C937   C939    1.416   .     A
C938   C940    1.416   .     A
C938   C942    1.432   .     A
C939   C437    1.393   1_556 S
C941   C456    1.432   1_556 S
Cu943  O960    1.908   .     S
Cu943  O956    1.965   .     S
Cu943  O957    1.930   .     S
Cu943  O953    1.975   .     S
Cu943  N952    2.024   .     S
Cu943  Cu944   2.694   .     S
Cu944  O955    1.965   .     S
Cu944  N951    2.024   .     S
Cu944  O958    1.930   .     S
Cu944  O954    1.975   .     S
Cu944  O959    1.908   .     S
H947   C823    1.083   1_655 S
H950   N844    1.027   1_655 S
N951   H841    1.027   1_655 S
N951   N844    1.282   1_655 S
F961   C815    1.362   1_655 S
C965   N966    1.157   .     T
C967   N968    1.157   .     T
C969   N970    1.157   .     T
C971   N972    1.157   .     T
C971   C602    1.454   1_565 S
