data_str_m2_o1_o18_pcu_sym.81
_audit_creation_date              2020-01-03
_audit_creation_method            'Materials Studio'
_symmetry_space_group_name_H-M    'P1'
_symmetry_Int_Tables_number       1
_symmetry_cell_setting            triclinic
loop_
_symmetry_equiv_pos_as_xyz
  x,y,z
_cell_length_a                    28.6381
_cell_length_b                    32.5263
_cell_length_c                    30.8829
_cell_angle_alpha                 89.1694
_cell_angle_beta                  74.7150
_cell_angle_gamma                 89.4397
loop_
_atom_site_label
_atom_site_type_symbol
_atom_site_fract_x
_atom_site_fract_y
_atom_site_fract_z
_atom_site_U_iso_or_equiv
_atom_site_adp_type
_atom_site_occupancy
C1     C     0.00025   0.08739   0.24987   0.00000  Uiso   1.00
C2     C     0.04435   0.02064   0.24052   0.00000  Uiso   1.00
C3     C     0.33279   0.29057   0.25015   0.00000  Uiso   1.00
C4     C     0.00054   0.04276   0.24987   0.00000  Uiso   1.00
C5     C     0.18382   0.14187   0.27886   0.00000  Uiso   1.00
C6     C     0.14951   0.19147   0.22114   0.00000  Uiso   1.00
C7     C     0.13438   0.14177   0.27900   0.00000  Uiso   1.00
C8     C     0.19895   0.19157   0.22100   0.00000  Uiso   1.00
C9     C     0.30616   0.16704   0.33608   0.00000  Uiso   1.00
C10    C     0.02718   0.16664   0.16389   0.00000  Uiso   1.00
C11    C     0.29100   0.17083   0.38508   0.00000  Uiso   1.00
C12    C     0.33309   0.24594   0.25013   0.00000  Uiso   1.00
C13    C     0.04218   0.16581   0.11462   0.00000  Uiso   1.00
C14    C     0.30560   0.19311   0.45457   0.00000  Uiso   1.00
C15    C     0.02563   0.15272   0.04335   0.00000  Uiso   1.00
C16    C     0.32273   0.18505   0.40895   0.00000  Uiso   1.00
C17    C     0.00940   0.15650   0.08975   0.00000  Uiso   1.00
C18    C     0.24249   0.16365   0.40743   0.00000  Uiso   1.00
C19    C     0.09088   0.17269   0.09254   0.00000  Uiso   1.00
C20    C     0.22377   0.17308   0.45303   0.00000  Uiso   1.00
C21    C     0.10809   0.16994   0.04562   0.00000  Uiso   1.00
C22    C     0.25654   0.18733   0.47672   0.00000  Uiso   1.00
C23    C     0.19178   0.19079   0.04474   0.00000  Uiso   1.00
C24    C     0.07460   0.15896   0.02121   0.00000  Uiso   1.00
C25    C     0.17362   0.16900   0.47558   0.00000  Uiso   1.00
C26    C     0.15771   0.17649   0.02256   0.00000  Uiso   1.00
C27    C     0.13870   0.15861   0.45255   0.00000  Uiso   1.00
C28    C     0.24007   0.19619   0.02213   0.00000  Uiso   1.00
C29    C     0.09027   0.15391   0.47500   0.00000  Uiso   1.00
C30    C     0.28970   0.02188   0.25929   0.00000  Uiso   1.00
C31    C     0.04363   0.31145   0.24073   0.00000  Uiso   1.00
C32    C     0.28898   0.31269   0.25950   0.00000  Uiso   1.00
Cl33   Cl    0.09593   0.10861   0.31741   0.00000  Uiso   1.00
Cl34   Cl    0.23739   0.22474   0.18260   0.00000  Uiso   1.00
Cu35   Cu    0.04689   0.16667   0.25000   0.00000  Uiso   1.00
Cu36   Cu    0.28645   0.16666   0.25000   0.00000  Uiso   1.00
F37    F     0.24545   0.29352   0.26954   0.00000  Uiso   1.00
F38    F     0.08788   0.03981   0.23049   0.00000  Uiso   1.00
H39    H     0.26476   0.20746   0.04044   0.00000  Uiso   1.00
H40    H     0.14716   0.15467   0.41678   0.00000  Uiso   1.00
H41    H     0.25552   0.03840   0.26690   0.00000  Uiso   1.00
H42    H     0.07781   0.29493   0.23312   0.00000  Uiso   1.00
H43    H     0.19642   0.12199   0.30188   0.00000  Uiso   1.00
H44    H     0.13691   0.21135   0.19812   0.00000  Uiso   1.00
H45    H     0.06492   0.14576   0.45598   0.00000  Uiso   1.00
H46    H     0.11494   0.17895   0.11306   0.00000  Uiso   1.00
H47    H     0.22013   0.15068   0.38814   0.00000  Uiso   1.00
H48    H     0.30494   0.15097   0.10621   0.00000  Uiso   1.00
H49    H     0.02702   0.19099   0.39218   0.00000  Uiso   1.00
H50    H     0.33054   0.20474   0.47237   0.00000  Uiso   1.00
H51    H     0.33332   0.14417   0.02484   0.00000  Uiso   1.00
H52    H     0.18231   0.19929   0.07953   0.00000  Uiso   1.00
N53    N     0.11736   0.16668   0.24999   0.00000  Uiso   1.00
N54    N     0.21597   0.16666   0.25001   0.00000  Uiso   1.00
O55    O     0.03958   0.10655   0.25000   0.00000  Uiso   1.00
O56    O     0.29375   0.22678   0.25000   0.00000  Uiso   1.00
O57    O     0.29372   0.10654   0.25000   0.00000  Uiso   1.00
O58    O     0.03961   0.22679   0.24999   0.00000  Uiso   1.00
O59    O     0.01852   0.16668   0.31491   0.00000  Uiso   1.00
O60    O     0.31481   0.16666   0.18508   0.00000  Uiso   1.00
O61    O     0.27267   0.16667   0.31492   0.00000  Uiso   1.00
O62    O     0.06067   0.16667   0.18508   0.00000  Uiso   1.00
C63    C     0.33358   0.08739   0.24987   0.00000  Uiso   1.00
C64    C     0.37769   0.02064   0.24052   0.00000  Uiso   1.00
C65    C     0.66612   0.29057   0.25015   0.00000  Uiso   1.00
C66    C     0.33388   0.04276   0.24987   0.00000  Uiso   1.00
C67    C     0.51716   0.14187   0.27886   0.00000  Uiso   1.00
C68    C     0.48284   0.19147   0.22114   0.00000  Uiso   1.00
C69    C     0.46771   0.14177   0.27900   0.00000  Uiso   1.00
C70    C     0.53229   0.19157   0.22100   0.00000  Uiso   1.00
C71    C     0.63949   0.16704   0.33608   0.00000  Uiso   1.00
C72    C     0.36051   0.16664   0.16389   0.00000  Uiso   1.00
C73    C     0.62433   0.17083   0.38508   0.00000  Uiso   1.00
C74    C     0.66642   0.24594   0.25013   0.00000  Uiso   1.00
C75    C     0.37551   0.16581   0.11462   0.00000  Uiso   1.00
C76    C     0.63894   0.19311   0.45457   0.00000  Uiso   1.00
C77    C     0.35896   0.15272   0.04335   0.00000  Uiso   1.00
C78    C     0.65607   0.18505   0.40895   0.00000  Uiso   1.00
C79    C     0.34273   0.15650   0.08975   0.00000  Uiso   1.00
C80    C     0.57582   0.16365   0.40743   0.00000  Uiso   1.00
C81    C     0.42421   0.17269   0.09254   0.00000  Uiso   1.00
C82    C     0.55710   0.17308   0.45303   0.00000  Uiso   1.00
C83    C     0.44142   0.16994   0.04562   0.00000  Uiso   1.00
C84    C     0.58988   0.18733   0.47672   0.00000  Uiso   1.00
C85    C     0.52512   0.19079   0.04474   0.00000  Uiso   1.00
C86    C     0.40793   0.15896   0.02121   0.00000  Uiso   1.00
C87    C     0.50695   0.16900   0.47558   0.00000  Uiso   1.00
C88    C     0.49104   0.17649   0.02256   0.00000  Uiso   1.00
C89    C     0.47203   0.15861   0.45255   0.00000  Uiso   1.00
C90    C     0.57340   0.19619   0.02213   0.00000  Uiso   1.00
C91    C     0.42360   0.15391   0.47500   0.00000  Uiso   1.00
C92    C     0.62303   0.02188   0.25929   0.00000  Uiso   1.00
C93    C     0.37697   0.31145   0.24073   0.00000  Uiso   1.00
C94    C     0.62231   0.31269   0.25950   0.00000  Uiso   1.00
Cl95   Cl    0.42927   0.10861   0.31741   0.00000  Uiso   1.00
Cl96   Cl    0.57072   0.22474   0.18260   0.00000  Uiso   1.00
Cu97   Cu    0.38022   0.16667   0.25000   0.00000  Uiso   1.00
Cu98   Cu    0.61978   0.16666   0.25000   0.00000  Uiso   1.00
F99    F     0.57879   0.29352   0.26954   0.00000  Uiso   1.00
F100   F     0.42121   0.03981   0.23049   0.00000  Uiso   1.00
H101   H     0.59810   0.20746   0.04044   0.00000  Uiso   1.00
H102   H     0.48050   0.15467   0.41678   0.00000  Uiso   1.00
H103   H     0.58885   0.03840   0.26690   0.00000  Uiso   1.00
H104   H     0.41114   0.29493   0.23312   0.00000  Uiso   1.00
H105   H     0.52975   0.12199   0.30188   0.00000  Uiso   1.00
H106   H     0.47024   0.21135   0.19812   0.00000  Uiso   1.00
H107   H     0.39826   0.14576   0.45598   0.00000  Uiso   1.00
H108   H     0.44827   0.17895   0.11306   0.00000  Uiso   1.00
H109   H     0.55347   0.15068   0.38814   0.00000  Uiso   1.00
H110   H     0.63827   0.15097   0.10621   0.00000  Uiso   1.00
H111   H     0.36036   0.19099   0.39218   0.00000  Uiso   1.00
H112   H     0.66388   0.20474   0.47237   0.00000  Uiso   1.00
H113   H     0.66665   0.14417   0.02484   0.00000  Uiso   1.00
H114   H     0.51565   0.19929   0.07953   0.00000  Uiso   1.00
N115   N     0.45069   0.16668   0.24999   0.00000  Uiso   1.00
N116   N     0.54931   0.16666   0.25001   0.00000  Uiso   1.00
O117   O     0.37291   0.10655   0.25000   0.00000  Uiso   1.00
O118   O     0.62709   0.22678   0.25000   0.00000  Uiso   1.00
O119   O     0.62706   0.10654   0.25000   0.00000  Uiso   1.00
O120   O     0.37294   0.22679   0.24999   0.00000  Uiso   1.00
O121   O     0.35186   0.16668   0.31491   0.00000  Uiso   1.00
O122   O     0.64814   0.16666   0.18508   0.00000  Uiso   1.00
O123   O     0.60600   0.16667   0.31492   0.00000  Uiso   1.00
O124   O     0.39400   0.16667   0.18508   0.00000  Uiso   1.00
C125   C     0.66691   0.08739   0.24987   0.00000  Uiso   1.00
C126   C     0.71102   0.02064   0.24052   0.00000  Uiso   1.00
C127   C     0.99945   0.29057   0.25015   0.00000  Uiso   1.00
C128   C     0.66721   0.04276   0.24987   0.00000  Uiso   1.00
C129   C     0.85049   0.14187   0.27886   0.00000  Uiso   1.00
C130   C     0.81618   0.19147   0.22114   0.00000  Uiso   1.00
C131   C     0.80104   0.14177   0.27900   0.00000  Uiso   1.00
C132   C     0.86562   0.19157   0.22100   0.00000  Uiso   1.00
C133   C     0.97283   0.16704   0.33608   0.00000  Uiso   1.00
C134   C     0.69384   0.16664   0.16389   0.00000  Uiso   1.00
C135   C     0.95767   0.17083   0.38508   0.00000  Uiso   1.00
C136   C     0.99975   0.24594   0.25013   0.00000  Uiso   1.00
C137   C     0.70885   0.16581   0.11462   0.00000  Uiso   1.00
C138   C     0.97227   0.19311   0.45457   0.00000  Uiso   1.00
C139   C     0.69230   0.15272   0.04335   0.00000  Uiso   1.00
C140   C     0.98940   0.18505   0.40895   0.00000  Uiso   1.00
C141   C     0.67606   0.15650   0.08975   0.00000  Uiso   1.00
C142   C     0.90916   0.16365   0.40743   0.00000  Uiso   1.00
C143   C     0.75754   0.17269   0.09254   0.00000  Uiso   1.00
C144   C     0.89043   0.17308   0.45303   0.00000  Uiso   1.00
C145   C     0.77476   0.16994   0.04562   0.00000  Uiso   1.00
C146   C     0.92321   0.18733   0.47672   0.00000  Uiso   1.00
C147   C     0.85845   0.19079   0.04474   0.00000  Uiso   1.00
C148   C     0.74127   0.15896   0.02121   0.00000  Uiso   1.00
C149   C     0.84028   0.16900   0.47558   0.00000  Uiso   1.00
C150   C     0.82437   0.17649   0.02256   0.00000  Uiso   1.00
C151   C     0.80537   0.15861   0.45255   0.00000  Uiso   1.00
C152   C     0.90674   0.19619   0.02213   0.00000  Uiso   1.00
C153   C     0.75693   0.15391   0.47500   0.00000  Uiso   1.00
C154   C     0.95636   0.02188   0.25929   0.00000  Uiso   1.00
C155   C     0.71030   0.31145   0.24073   0.00000  Uiso   1.00
C156   C     0.95564   0.31269   0.25950   0.00000  Uiso   1.00
Cl157  Cl    0.76260   0.10861   0.31741   0.00000  Uiso   1.00
Cl158  Cl    0.90406   0.22474   0.18260   0.00000  Uiso   1.00
Cu159  Cu    0.71355   0.16667   0.25000   0.00000  Uiso   1.00
Cu160  Cu    0.95311   0.16666   0.25000   0.00000  Uiso   1.00
F161   F     0.91212   0.29352   0.26954   0.00000  Uiso   1.00
F162   F     0.75454   0.03981   0.23049   0.00000  Uiso   1.00
H163   H     0.93143   0.20746   0.04044   0.00000  Uiso   1.00
H164   H     0.81383   0.15467   0.41678   0.00000  Uiso   1.00
H165   H     0.92219   0.03840   0.26690   0.00000  Uiso   1.00
H166   H     0.74448   0.29493   0.23312   0.00000  Uiso   1.00
H167   H     0.86309   0.12199   0.30188   0.00000  Uiso   1.00
H168   H     0.80358   0.21135   0.19812   0.00000  Uiso   1.00
H169   H     0.73159   0.14576   0.45598   0.00000  Uiso   1.00
H170   H     0.78160   0.17895   0.11306   0.00000  Uiso   1.00
H171   H     0.88680   0.15068   0.38814   0.00000  Uiso   1.00
H172   H     0.97161   0.15097   0.10621   0.00000  Uiso   1.00
H173   H     0.69369   0.19099   0.39218   0.00000  Uiso   1.00
H174   H     0.99721   0.20474   0.47237   0.00000  Uiso   1.00
H175   H     0.99999   0.14417   0.02484   0.00000  Uiso   1.00
H176   H     0.84898   0.19929   0.07953   0.00000  Uiso   1.00
N177   N     0.78403   0.16668   0.24999   0.00000  Uiso   1.00
N178   N     0.88264   0.16666   0.25001   0.00000  Uiso   1.00
O179   O     0.70625   0.10655   0.25000   0.00000  Uiso   1.00
O180   O     0.96042   0.22678   0.25000   0.00000  Uiso   1.00
O181   O     0.96039   0.10654   0.25000   0.00000  Uiso   1.00
O182   O     0.70628   0.22679   0.24999   0.00000  Uiso   1.00
O183   O     0.68519   0.16668   0.31491   0.00000  Uiso   1.00
O184   O     0.98148   0.16666   0.18508   0.00000  Uiso   1.00
O185   O     0.93933   0.16667   0.31492   0.00000  Uiso   1.00
O186   O     0.72733   0.16667   0.18508   0.00000  Uiso   1.00
C187   C     0.00025   0.42073   0.24987   0.00000  Uiso   1.00
C188   C     0.04435   0.35397   0.24052   0.00000  Uiso   1.00
C189   C     0.33279   0.62390   0.25015   0.00000  Uiso   1.00
C190   C     0.00054   0.37610   0.24987   0.00000  Uiso   1.00
C191   C     0.18382   0.47520   0.27886   0.00000  Uiso   1.00
C192   C     0.14951   0.52480   0.22114   0.00000  Uiso   1.00
C193   C     0.13438   0.47510   0.27900   0.00000  Uiso   1.00
C194   C     0.19895   0.52491   0.22100   0.00000  Uiso   1.00
C195   C     0.30616   0.50038   0.33608   0.00000  Uiso   1.00
C196   C     0.02718   0.49997   0.16389   0.00000  Uiso   1.00
C197   C     0.29100   0.50416   0.38508   0.00000  Uiso   1.00
C198   C     0.33309   0.57927   0.25013   0.00000  Uiso   1.00
C199   C     0.04218   0.49914   0.11462   0.00000  Uiso   1.00
C200   C     0.30560   0.52644   0.45457   0.00000  Uiso   1.00
C201   C     0.02563   0.48605   0.04335   0.00000  Uiso   1.00
C202   C     0.32273   0.51838   0.40895   0.00000  Uiso   1.00
C203   C     0.00940   0.48984   0.08975   0.00000  Uiso   1.00
C204   C     0.24249   0.49698   0.40743   0.00000  Uiso   1.00
C205   C     0.09088   0.50602   0.09254   0.00000  Uiso   1.00
C206   C     0.22377   0.50641   0.45303   0.00000  Uiso   1.00
C207   C     0.10809   0.50327   0.04562   0.00000  Uiso   1.00
C208   C     0.25654   0.52066   0.47672   0.00000  Uiso   1.00
C209   C     0.19178   0.52412   0.04474   0.00000  Uiso   1.00
C210   C     0.07460   0.49229   0.02121   0.00000  Uiso   1.00
C211   C     0.17362   0.50233   0.47558   0.00000  Uiso   1.00
C212   C     0.15771   0.50982   0.02256   0.00000  Uiso   1.00
C213   C     0.13870   0.49195   0.45255   0.00000  Uiso   1.00
C214   C     0.24007   0.52952   0.02213   0.00000  Uiso   1.00
C215   C     0.09027   0.48724   0.47500   0.00000  Uiso   1.00
C216   C     0.28970   0.35521   0.25929   0.00000  Uiso   1.00
C217   C     0.04363   0.64478   0.24073   0.00000  Uiso   1.00
C218   C     0.28898   0.64603   0.25950   0.00000  Uiso   1.00
Cl219  Cl    0.09593   0.44195   0.31741   0.00000  Uiso   1.00
Cl220  Cl    0.23739   0.55807   0.18260   0.00000  Uiso   1.00
Cu221  Cu    0.04689   0.50001   0.25000   0.00000  Uiso   1.00
Cu222  Cu    0.28645   0.49999   0.25000   0.00000  Uiso   1.00
F223   F     0.24545   0.62685   0.26954   0.00000  Uiso   1.00
F224   F     0.08788   0.37314   0.23049   0.00000  Uiso   1.00
H225   H     0.26476   0.54079   0.04044   0.00000  Uiso   1.00
H226   H     0.14716   0.48801   0.41678   0.00000  Uiso   1.00
H227   H     0.25552   0.37174   0.26690   0.00000  Uiso   1.00
H228   H     0.07781   0.62826   0.23312   0.00000  Uiso   1.00
H229   H     0.19642   0.45532   0.30188   0.00000  Uiso   1.00
H230   H     0.13691   0.54468   0.19812   0.00000  Uiso   1.00
H231   H     0.06492   0.47909   0.45598   0.00000  Uiso   1.00
H232   H     0.11494   0.51229   0.11306   0.00000  Uiso   1.00
H233   H     0.22013   0.48401   0.38814   0.00000  Uiso   1.00
H234   H     0.30494   0.48430   0.10621   0.00000  Uiso   1.00
H235   H     0.02702   0.52432   0.39218   0.00000  Uiso   1.00
H236   H     0.33054   0.53808   0.47237   0.00000  Uiso   1.00
H237   H     0.33332   0.47750   0.02484   0.00000  Uiso   1.00
H238   H     0.18231   0.53263   0.07953   0.00000  Uiso   1.00
N239   N     0.11736   0.50001   0.24999   0.00000  Uiso   1.00
N240   N     0.21597   0.49999   0.25001   0.00000  Uiso   1.00
O241   O     0.03958   0.43989   0.25000   0.00000  Uiso   1.00
O242   O     0.29375   0.56011   0.25000   0.00000  Uiso   1.00
O243   O     0.29372   0.43988   0.25000   0.00000  Uiso   1.00
O244   O     0.03961   0.56012   0.24999   0.00000  Uiso   1.00
O245   O     0.01852   0.50001   0.31491   0.00000  Uiso   1.00
O246   O     0.31481   0.49999   0.18508   0.00000  Uiso   1.00
O247   O     0.27267   0.50000   0.31492   0.00000  Uiso   1.00
O248   O     0.06067   0.50000   0.18508   0.00000  Uiso   1.00
C249   C     0.33358   0.42073   0.24987   0.00000  Uiso   1.00
C250   C     0.37769   0.35397   0.24052   0.00000  Uiso   1.00
C251   C     0.66612   0.62390   0.25015   0.00000  Uiso   1.00
C252   C     0.33388   0.37610   0.24987   0.00000  Uiso   1.00
C253   C     0.51716   0.47520   0.27886   0.00000  Uiso   1.00
C254   C     0.48284   0.52480   0.22114   0.00000  Uiso   1.00
C255   C     0.46771   0.47510   0.27900   0.00000  Uiso   1.00
C256   C     0.53229   0.52491   0.22100   0.00000  Uiso   1.00
C257   C     0.63949   0.50038   0.33608   0.00000  Uiso   1.00
C258   C     0.36051   0.49997   0.16389   0.00000  Uiso   1.00
C259   C     0.62433   0.50416   0.38508   0.00000  Uiso   1.00
C260   C     0.66642   0.57927   0.25013   0.00000  Uiso   1.00
C261   C     0.37551   0.49914   0.11462   0.00000  Uiso   1.00
C262   C     0.63894   0.52644   0.45457   0.00000  Uiso   1.00
C263   C     0.35896   0.48605   0.04335   0.00000  Uiso   1.00
C264   C     0.65607   0.51838   0.40895   0.00000  Uiso   1.00
C265   C     0.34273   0.48984   0.08975   0.00000  Uiso   1.00
C266   C     0.57582   0.49698   0.40743   0.00000  Uiso   1.00
C267   C     0.42421   0.50602   0.09254   0.00000  Uiso   1.00
C268   C     0.55710   0.50641   0.45303   0.00000  Uiso   1.00
C269   C     0.44142   0.50327   0.04562   0.00000  Uiso   1.00
C270   C     0.58988   0.52066   0.47672   0.00000  Uiso   1.00
C271   C     0.52512   0.52412   0.04474   0.00000  Uiso   1.00
C272   C     0.40793   0.49229   0.02121   0.00000  Uiso   1.00
C273   C     0.50695   0.50233   0.47558   0.00000  Uiso   1.00
C274   C     0.49104   0.50982   0.02256   0.00000  Uiso   1.00
C275   C     0.47203   0.49195   0.45255   0.00000  Uiso   1.00
C276   C     0.57340   0.52952   0.02213   0.00000  Uiso   1.00
C277   C     0.42360   0.48724   0.47500   0.00000  Uiso   1.00
C278   C     0.62303   0.35521   0.25929   0.00000  Uiso   1.00
C279   C     0.37697   0.64478   0.24073   0.00000  Uiso   1.00
C280   C     0.62231   0.64603   0.25950   0.00000  Uiso   1.00
Cl281  Cl    0.42927   0.44195   0.31741   0.00000  Uiso   1.00
Cl282  Cl    0.57072   0.55807   0.18260   0.00000  Uiso   1.00
Cu283  Cu    0.38022   0.50001   0.25000   0.00000  Uiso   1.00
Cu284  Cu    0.61978   0.49999   0.25000   0.00000  Uiso   1.00
F285   F     0.57879   0.62685   0.26954   0.00000  Uiso   1.00
F286   F     0.42121   0.37314   0.23049   0.00000  Uiso   1.00
H287   H     0.59810   0.54079   0.04044   0.00000  Uiso   1.00
H288   H     0.48050   0.48801   0.41678   0.00000  Uiso   1.00
H289   H     0.58885   0.37174   0.26690   0.00000  Uiso   1.00
H290   H     0.41114   0.62826   0.23312   0.00000  Uiso   1.00
H291   H     0.52975   0.45532   0.30188   0.00000  Uiso   1.00
H292   H     0.47024   0.54468   0.19812   0.00000  Uiso   1.00
H293   H     0.39826   0.47909   0.45598   0.00000  Uiso   1.00
H294   H     0.44827   0.51229   0.11306   0.00000  Uiso   1.00
H295   H     0.55347   0.48401   0.38814   0.00000  Uiso   1.00
H296   H     0.63827   0.48430   0.10621   0.00000  Uiso   1.00
H297   H     0.36036   0.52432   0.39218   0.00000  Uiso   1.00
H298   H     0.66388   0.53808   0.47237   0.00000  Uiso   1.00
H299   H     0.66665   0.47750   0.02484   0.00000  Uiso   1.00
H300   H     0.51565   0.53263   0.07953   0.00000  Uiso   1.00
N301   N     0.45069   0.50001   0.24999   0.00000  Uiso   1.00
N302   N     0.54931   0.49999   0.25001   0.00000  Uiso   1.00
O303   O     0.37291   0.43989   0.25000   0.00000  Uiso   1.00
O304   O     0.62709   0.56011   0.25000   0.00000  Uiso   1.00
O305   O     0.62706   0.43988   0.25000   0.00000  Uiso   1.00
O306   O     0.37294   0.56012   0.24999   0.00000  Uiso   1.00
O307   O     0.35186   0.50001   0.31491   0.00000  Uiso   1.00
O308   O     0.64814   0.49999   0.18508   0.00000  Uiso   1.00
O309   O     0.60600   0.50000   0.31492   0.00000  Uiso   1.00
O310   O     0.39400   0.50000   0.18508   0.00000  Uiso   1.00
C311   C     0.66691   0.42073   0.24987   0.00000  Uiso   1.00
C312   C     0.71102   0.35397   0.24052   0.00000  Uiso   1.00
C313   C     0.99945   0.62390   0.25015   0.00000  Uiso   1.00
C314   C     0.66721   0.37610   0.24987   0.00000  Uiso   1.00
C315   C     0.85049   0.47520   0.27886   0.00000  Uiso   1.00
C316   C     0.81618   0.52480   0.22114   0.00000  Uiso   1.00
C317   C     0.80104   0.47510   0.27900   0.00000  Uiso   1.00
C318   C     0.86562   0.52491   0.22100   0.00000  Uiso   1.00
C319   C     0.97283   0.50038   0.33608   0.00000  Uiso   1.00
C320   C     0.69384   0.49997   0.16389   0.00000  Uiso   1.00
C321   C     0.95767   0.50416   0.38508   0.00000  Uiso   1.00
C322   C     0.99975   0.57927   0.25013   0.00000  Uiso   1.00
C323   C     0.70885   0.49914   0.11462   0.00000  Uiso   1.00
C324   C     0.97227   0.52644   0.45457   0.00000  Uiso   1.00
C325   C     0.69230   0.48605   0.04335   0.00000  Uiso   1.00
C326   C     0.98940   0.51838   0.40895   0.00000  Uiso   1.00
C327   C     0.67606   0.48984   0.08975   0.00000  Uiso   1.00
C328   C     0.90916   0.49698   0.40743   0.00000  Uiso   1.00
C329   C     0.75754   0.50602   0.09254   0.00000  Uiso   1.00
C330   C     0.89043   0.50641   0.45303   0.00000  Uiso   1.00
C331   C     0.77476   0.50327   0.04562   0.00000  Uiso   1.00
C332   C     0.92321   0.52066   0.47672   0.00000  Uiso   1.00
C333   C     0.85845   0.52412   0.04474   0.00000  Uiso   1.00
C334   C     0.74127   0.49229   0.02121   0.00000  Uiso   1.00
C335   C     0.84028   0.50233   0.47558   0.00000  Uiso   1.00
C336   C     0.82437   0.50982   0.02256   0.00000  Uiso   1.00
C337   C     0.80537   0.49195   0.45255   0.00000  Uiso   1.00
C338   C     0.90674   0.52952   0.02213   0.00000  Uiso   1.00
C339   C     0.75693   0.48724   0.47500   0.00000  Uiso   1.00
C340   C     0.95636   0.35521   0.25929   0.00000  Uiso   1.00
C341   C     0.71030   0.64478   0.24073   0.00000  Uiso   1.00
C342   C     0.95564   0.64603   0.25950   0.00000  Uiso   1.00
Cl343  Cl    0.76260   0.44195   0.31741   0.00000  Uiso   1.00
Cl344  Cl    0.90406   0.55807   0.18260   0.00000  Uiso   1.00
Cu345  Cu    0.71355   0.50001   0.25000   0.00000  Uiso   1.00
Cu346  Cu    0.95311   0.49999   0.25000   0.00000  Uiso   1.00
F347   F     0.91212   0.62685   0.26954   0.00000  Uiso   1.00
F348   F     0.75454   0.37314   0.23049   0.00000  Uiso   1.00
H349   H     0.93143   0.54079   0.04044   0.00000  Uiso   1.00
H350   H     0.81383   0.48801   0.41678   0.00000  Uiso   1.00
H351   H     0.92219   0.37174   0.26690   0.00000  Uiso   1.00
H352   H     0.74448   0.62826   0.23312   0.00000  Uiso   1.00
H353   H     0.86309   0.45532   0.30188   0.00000  Uiso   1.00
H354   H     0.80358   0.54468   0.19812   0.00000  Uiso   1.00
H355   H     0.73159   0.47909   0.45598   0.00000  Uiso   1.00
H356   H     0.78160   0.51229   0.11306   0.00000  Uiso   1.00
H357   H     0.88680   0.48401   0.38814   0.00000  Uiso   1.00
H358   H     0.97161   0.48430   0.10621   0.00000  Uiso   1.00
H359   H     0.69369   0.52432   0.39218   0.00000  Uiso   1.00
H360   H     0.99721   0.53808   0.47237   0.00000  Uiso   1.00
H361   H     0.99999   0.47750   0.02484   0.00000  Uiso   1.00
H362   H     0.84898   0.53263   0.07953   0.00000  Uiso   1.00
N363   N     0.78403   0.50001   0.24999   0.00000  Uiso   1.00
N364   N     0.88264   0.49999   0.25001   0.00000  Uiso   1.00
O365   O     0.70625   0.43989   0.25000   0.00000  Uiso   1.00
O366   O     0.96042   0.56011   0.25000   0.00000  Uiso   1.00
O367   O     0.96039   0.43988   0.25000   0.00000  Uiso   1.00
O368   O     0.70628   0.56012   0.24999   0.00000  Uiso   1.00
O369   O     0.68519   0.50001   0.31491   0.00000  Uiso   1.00
O370   O     0.98148   0.49999   0.18508   0.00000  Uiso   1.00
O371   O     0.93933   0.50000   0.31492   0.00000  Uiso   1.00
O372   O     0.72733   0.50000   0.18508   0.00000  Uiso   1.00
C373   C     0.00025   0.75406   0.24987   0.00000  Uiso   1.00
C374   C     0.04435   0.68730   0.24052   0.00000  Uiso   1.00
C375   C     0.33279   0.95723   0.25015   0.00000  Uiso   1.00
C376   C     0.00054   0.70943   0.24987   0.00000  Uiso   1.00
C377   C     0.18382   0.80854   0.27886   0.00000  Uiso   1.00
C378   C     0.14951   0.85814   0.22114   0.00000  Uiso   1.00
C379   C     0.13438   0.80843   0.27900   0.00000  Uiso   1.00
C380   C     0.19895   0.85824   0.22100   0.00000  Uiso   1.00
C381   C     0.30616   0.83371   0.33608   0.00000  Uiso   1.00
C382   C     0.02718   0.83331   0.16389   0.00000  Uiso   1.00
C383   C     0.29100   0.83749   0.38508   0.00000  Uiso   1.00
C384   C     0.33309   0.91261   0.25013   0.00000  Uiso   1.00
C385   C     0.04218   0.83247   0.11462   0.00000  Uiso   1.00
C386   C     0.30560   0.85978   0.45457   0.00000  Uiso   1.00
C387   C     0.02563   0.81938   0.04335   0.00000  Uiso   1.00
C388   C     0.32273   0.85172   0.40895   0.00000  Uiso   1.00
C389   C     0.00940   0.82317   0.08975   0.00000  Uiso   1.00
C390   C     0.24249   0.83031   0.40743   0.00000  Uiso   1.00
C391   C     0.09088   0.83936   0.09254   0.00000  Uiso   1.00
C392   C     0.22377   0.83975   0.45303   0.00000  Uiso   1.00
C393   C     0.10809   0.83661   0.04562   0.00000  Uiso   1.00
C394   C     0.25654   0.85400   0.47672   0.00000  Uiso   1.00
C395   C     0.19178   0.85746   0.04474   0.00000  Uiso   1.00
C396   C     0.07460   0.82563   0.02121   0.00000  Uiso   1.00
C397   C     0.17362   0.83567   0.47558   0.00000  Uiso   1.00
C398   C     0.15771   0.84316   0.02256   0.00000  Uiso   1.00
C399   C     0.13870   0.82528   0.45255   0.00000  Uiso   1.00
C400   C     0.24007   0.86285   0.02213   0.00000  Uiso   1.00
C401   C     0.09027   0.82057   0.47500   0.00000  Uiso   1.00
C402   C     0.28970   0.68855   0.25929   0.00000  Uiso   1.00
C403   C     0.04363   0.97812   0.24073   0.00000  Uiso   1.00
C404   C     0.28898   0.97936   0.25950   0.00000  Uiso   1.00
Cl405  Cl    0.09593   0.77528   0.31741   0.00000  Uiso   1.00
Cl406  Cl    0.23739   0.89141   0.18260   0.00000  Uiso   1.00
Cu407  Cu    0.04689   0.83334   0.25000   0.00000  Uiso   1.00
Cu408  Cu    0.28645   0.83333   0.25000   0.00000  Uiso   1.00
F409   F     0.24545   0.96019   0.26954   0.00000  Uiso   1.00
F410   F     0.08788   0.70648   0.23049   0.00000  Uiso   1.00
H411   H     0.26476   0.87413   0.04044   0.00000  Uiso   1.00
H412   H     0.14716   0.82134   0.41678   0.00000  Uiso   1.00
H413   H     0.25552   0.70507   0.26690   0.00000  Uiso   1.00
H414   H     0.07781   0.96160   0.23312   0.00000  Uiso   1.00
H415   H     0.19642   0.78866   0.30188   0.00000  Uiso   1.00
H416   H     0.13691   0.87802   0.19812   0.00000  Uiso   1.00
H417   H     0.06492   0.81242   0.45598   0.00000  Uiso   1.00
H418   H     0.11494   0.84562   0.11306   0.00000  Uiso   1.00
H419   H     0.22013   0.81735   0.38814   0.00000  Uiso   1.00
H420   H     0.30494   0.81764   0.10621   0.00000  Uiso   1.00
H421   H     0.02702   0.85765   0.39218   0.00000  Uiso   1.00
H422   H     0.33054   0.87141   0.47237   0.00000  Uiso   1.00
H423   H     0.33332   0.81083   0.02484   0.00000  Uiso   1.00
H424   H     0.18231   0.86596   0.07953   0.00000  Uiso   1.00
N425   N     0.11736   0.83334   0.24999   0.00000  Uiso   1.00
N426   N     0.21597   0.83332   0.25001   0.00000  Uiso   1.00
O427   O     0.03958   0.77322   0.25000   0.00000  Uiso   1.00
O428   O     0.29375   0.89345   0.25000   0.00000  Uiso   1.00
O429   O     0.29372   0.77321   0.25000   0.00000  Uiso   1.00
O430   O     0.03961   0.89346   0.24999   0.00000  Uiso   1.00
O431   O     0.01852   0.83334   0.31491   0.00000  Uiso   1.00
O432   O     0.31481   0.83332   0.18508   0.00000  Uiso   1.00
O433   O     0.27267   0.83333   0.31492   0.00000  Uiso   1.00
O434   O     0.06067   0.83333   0.18508   0.00000  Uiso   1.00
C435   C     0.33358   0.75406   0.24987   0.00000  Uiso   1.00
C436   C     0.37769   0.68730   0.24052   0.00000  Uiso   1.00
C437   C     0.66612   0.95723   0.25015   0.00000  Uiso   1.00
C438   C     0.33388   0.70943   0.24987   0.00000  Uiso   1.00
C439   C     0.51716   0.80854   0.27886   0.00000  Uiso   1.00
C440   C     0.48284   0.85814   0.22114   0.00000  Uiso   1.00
C441   C     0.46771   0.80843   0.27900   0.00000  Uiso   1.00
C442   C     0.53229   0.85824   0.22100   0.00000  Uiso   1.00
C443   C     0.63949   0.83371   0.33608   0.00000  Uiso   1.00
C444   C     0.36051   0.83331   0.16389   0.00000  Uiso   1.00
C445   C     0.62433   0.83749   0.38508   0.00000  Uiso   1.00
C446   C     0.66642   0.91261   0.25013   0.00000  Uiso   1.00
C447   C     0.37551   0.83247   0.11462   0.00000  Uiso   1.00
C448   C     0.63894   0.85978   0.45457   0.00000  Uiso   1.00
C449   C     0.35896   0.81938   0.04335   0.00000  Uiso   1.00
C450   C     0.65607   0.85172   0.40895   0.00000  Uiso   1.00
C451   C     0.34273   0.82317   0.08975   0.00000  Uiso   1.00
C452   C     0.57582   0.83031   0.40743   0.00000  Uiso   1.00
C453   C     0.42421   0.83936   0.09254   0.00000  Uiso   1.00
C454   C     0.55710   0.83975   0.45303   0.00000  Uiso   1.00
C455   C     0.44142   0.83661   0.04562   0.00000  Uiso   1.00
C456   C     0.58988   0.85400   0.47672   0.00000  Uiso   1.00
C457   C     0.52512   0.85746   0.04474   0.00000  Uiso   1.00
C458   C     0.40793   0.82563   0.02121   0.00000  Uiso   1.00
C459   C     0.50695   0.83567   0.47558   0.00000  Uiso   1.00
C460   C     0.49104   0.84316   0.02256   0.00000  Uiso   1.00
C461   C     0.47203   0.82528   0.45255   0.00000  Uiso   1.00
C462   C     0.57340   0.86285   0.02213   0.00000  Uiso   1.00
C463   C     0.42360   0.82057   0.47500   0.00000  Uiso   1.00
C464   C     0.62303   0.68855   0.25929   0.00000  Uiso   1.00
C465   C     0.37697   0.97812   0.24073   0.00000  Uiso   1.00
C466   C     0.62231   0.97936   0.25950   0.00000  Uiso   1.00
Cl467  Cl    0.42927   0.77528   0.31741   0.00000  Uiso   1.00
Cl468  Cl    0.57072   0.89141   0.18260   0.00000  Uiso   1.00
Cu469  Cu    0.38022   0.83334   0.25000   0.00000  Uiso   1.00
Cu470  Cu    0.61978   0.83333   0.25000   0.00000  Uiso   1.00
F471   F     0.57879   0.96019   0.26954   0.00000  Uiso   1.00
F472   F     0.42121   0.70648   0.23049   0.00000  Uiso   1.00
H473   H     0.59810   0.87413   0.04044   0.00000  Uiso   1.00
H474   H     0.48050   0.82134   0.41678   0.00000  Uiso   1.00
H475   H     0.58885   0.70507   0.26690   0.00000  Uiso   1.00
H476   H     0.41114   0.96160   0.23312   0.00000  Uiso   1.00
H477   H     0.52975   0.78866   0.30188   0.00000  Uiso   1.00
H478   H     0.47024   0.87802   0.19812   0.00000  Uiso   1.00
H479   H     0.39826   0.81242   0.45598   0.00000  Uiso   1.00
H480   H     0.44827   0.84562   0.11306   0.00000  Uiso   1.00
H481   H     0.55347   0.81735   0.38814   0.00000  Uiso   1.00
H482   H     0.63827   0.81764   0.10621   0.00000  Uiso   1.00
H483   H     0.36036   0.85765   0.39218   0.00000  Uiso   1.00
H484   H     0.66388   0.87141   0.47237   0.00000  Uiso   1.00
H485   H     0.66665   0.81083   0.02484   0.00000  Uiso   1.00
H486   H     0.51565   0.86596   0.07953   0.00000  Uiso   1.00
N487   N     0.45069   0.83334   0.24999   0.00000  Uiso   1.00
N488   N     0.54931   0.83332   0.25001   0.00000  Uiso   1.00
O489   O     0.37291   0.77322   0.25000   0.00000  Uiso   1.00
O490   O     0.62709   0.89345   0.25000   0.00000  Uiso   1.00
O491   O     0.62706   0.77321   0.25000   0.00000  Uiso   1.00
O492   O     0.37294   0.89346   0.24999   0.00000  Uiso   1.00
O493   O     0.35186   0.83334   0.31491   0.00000  Uiso   1.00
O494   O     0.64814   0.83332   0.18508   0.00000  Uiso   1.00
O495   O     0.60600   0.83333   0.31492   0.00000  Uiso   1.00
O496   O     0.39400   0.83333   0.18508   0.00000  Uiso   1.00
C497   C     0.66691   0.75406   0.24987   0.00000  Uiso   1.00
C498   C     0.71102   0.68730   0.24052   0.00000  Uiso   1.00
C499   C     0.99945   0.95723   0.25015   0.00000  Uiso   1.00
C500   C     0.66721   0.70943   0.24987   0.00000  Uiso   1.00
C501   C     0.85049   0.80854   0.27886   0.00000  Uiso   1.00
C502   C     0.81618   0.85814   0.22114   0.00000  Uiso   1.00
C503   C     0.80104   0.80843   0.27900   0.00000  Uiso   1.00
C504   C     0.86562   0.85824   0.22100   0.00000  Uiso   1.00
C505   C     0.97283   0.83371   0.33608   0.00000  Uiso   1.00
C506   C     0.69384   0.83331   0.16389   0.00000  Uiso   1.00
C507   C     0.95767   0.83749   0.38508   0.00000  Uiso   1.00
C508   C     0.99975   0.91261   0.25013   0.00000  Uiso   1.00
C509   C     0.70885   0.83247   0.11462   0.00000  Uiso   1.00
C510   C     0.97227   0.85978   0.45457   0.00000  Uiso   1.00
C511   C     0.69230   0.81938   0.04335   0.00000  Uiso   1.00
C512   C     0.98940   0.85172   0.40895   0.00000  Uiso   1.00
C513   C     0.67606   0.82317   0.08975   0.00000  Uiso   1.00
C514   C     0.90916   0.83031   0.40743   0.00000  Uiso   1.00
C515   C     0.75754   0.83936   0.09254   0.00000  Uiso   1.00
C516   C     0.89043   0.83975   0.45303   0.00000  Uiso   1.00
C517   C     0.77476   0.83661   0.04562   0.00000  Uiso   1.00
C518   C     0.92321   0.85400   0.47672   0.00000  Uiso   1.00
C519   C     0.85845   0.85746   0.04474   0.00000  Uiso   1.00
C520   C     0.74127   0.82563   0.02121   0.00000  Uiso   1.00
C521   C     0.84028   0.83567   0.47558   0.00000  Uiso   1.00
C522   C     0.82437   0.84316   0.02256   0.00000  Uiso   1.00
C523   C     0.80537   0.82528   0.45255   0.00000  Uiso   1.00
C524   C     0.90674   0.86285   0.02213   0.00000  Uiso   1.00
C525   C     0.75693   0.82057   0.47500   0.00000  Uiso   1.00
C526   C     0.95636   0.68855   0.25929   0.00000  Uiso   1.00
C527   C     0.71030   0.97812   0.24073   0.00000  Uiso   1.00
C528   C     0.95564   0.97936   0.25950   0.00000  Uiso   1.00
Cl529  Cl    0.76260   0.77528   0.31741   0.00000  Uiso   1.00
Cl530  Cl    0.90406   0.89141   0.18260   0.00000  Uiso   1.00
Cu531  Cu    0.71355   0.83334   0.25000   0.00000  Uiso   1.00
Cu532  Cu    0.95311   0.83333   0.25000   0.00000  Uiso   1.00
F533   F     0.91212   0.96019   0.26954   0.00000  Uiso   1.00
F534   F     0.75454   0.70648   0.23049   0.00000  Uiso   1.00
H535   H     0.93143   0.87413   0.04044   0.00000  Uiso   1.00
H536   H     0.81383   0.82134   0.41678   0.00000  Uiso   1.00
H537   H     0.92219   0.70507   0.26690   0.00000  Uiso   1.00
H538   H     0.74448   0.96160   0.23312   0.00000  Uiso   1.00
H539   H     0.86309   0.78866   0.30188   0.00000  Uiso   1.00
H540   H     0.80358   0.87802   0.19812   0.00000  Uiso   1.00
H541   H     0.73159   0.81242   0.45598   0.00000  Uiso   1.00
H542   H     0.78160   0.84562   0.11306   0.00000  Uiso   1.00
H543   H     0.88680   0.81735   0.38814   0.00000  Uiso   1.00
H544   H     0.97161   0.81764   0.10621   0.00000  Uiso   1.00
H545   H     0.69369   0.85765   0.39218   0.00000  Uiso   1.00
H546   H     0.99721   0.87141   0.47237   0.00000  Uiso   1.00
H547   H     0.99999   0.81083   0.02484   0.00000  Uiso   1.00
H548   H     0.84898   0.86596   0.07953   0.00000  Uiso   1.00
N549   N     0.78403   0.83334   0.24999   0.00000  Uiso   1.00
N550   N     0.88264   0.83332   0.25001   0.00000  Uiso   1.00
O551   O     0.70625   0.77322   0.25000   0.00000  Uiso   1.00
O552   O     0.96042   0.89345   0.25000   0.00000  Uiso   1.00
O553   O     0.96039   0.77321   0.25000   0.00000  Uiso   1.00
O554   O     0.70628   0.89346   0.24999   0.00000  Uiso   1.00
O555   O     0.68519   0.83334   0.31491   0.00000  Uiso   1.00
O556   O     0.98148   0.83332   0.18508   0.00000  Uiso   1.00
O557   O     0.93933   0.83333   0.31492   0.00000  Uiso   1.00
O558   O     0.72733   0.83333   0.18508   0.00000  Uiso   1.00
C559   C     0.00025   0.08739   0.74987   0.00000  Uiso   1.00
C560   C     0.04435   0.02064   0.74052   0.00000  Uiso   1.00
C561   C     0.33279   0.29057   0.75015   0.00000  Uiso   1.00
C562   C     0.00054   0.04276   0.74987   0.00000  Uiso   1.00
C563   C     0.18382   0.14187   0.77886   0.00000  Uiso   1.00
C564   C     0.14951   0.19147   0.72114   0.00000  Uiso   1.00
C565   C     0.13438   0.14177   0.77900   0.00000  Uiso   1.00
C566   C     0.19895   0.19157   0.72100   0.00000  Uiso   1.00
C567   C     0.30616   0.16704   0.83608   0.00000  Uiso   1.00
C568   C     0.02718   0.16664   0.66389   0.00000  Uiso   1.00
C569   C     0.29100   0.17083   0.88508   0.00000  Uiso   1.00
C570   C     0.33309   0.24594   0.75013   0.00000  Uiso   1.00
C571   C     0.04218   0.16581   0.61462   0.00000  Uiso   1.00
C572   C     0.30560   0.19311   0.95457   0.00000  Uiso   1.00
C573   C     0.02563   0.15272   0.54335   0.00000  Uiso   1.00
C574   C     0.32273   0.18505   0.90895   0.00000  Uiso   1.00
C575   C     0.00940   0.15650   0.58975   0.00000  Uiso   1.00
C576   C     0.24249   0.16365   0.90743   0.00000  Uiso   1.00
C577   C     0.09088   0.17269   0.59254   0.00000  Uiso   1.00
C578   C     0.22377   0.17308   0.95303   0.00000  Uiso   1.00
C579   C     0.10809   0.16994   0.54562   0.00000  Uiso   1.00
C580   C     0.25654   0.18733   0.97672   0.00000  Uiso   1.00
C581   C     0.19178   0.19079   0.54474   0.00000  Uiso   1.00
C582   C     0.07460   0.15896   0.52121   0.00000  Uiso   1.00
C583   C     0.17362   0.16900   0.97558   0.00000  Uiso   1.00
C584   C     0.15771   0.17649   0.52256   0.00000  Uiso   1.00
C585   C     0.13870   0.15861   0.95255   0.00000  Uiso   1.00
C586   C     0.24007   0.19619   0.52213   0.00000  Uiso   1.00
C587   C     0.09027   0.15391   0.97500   0.00000  Uiso   1.00
C588   C     0.28970   0.02188   0.75929   0.00000  Uiso   1.00
C589   C     0.04363   0.31145   0.74073   0.00000  Uiso   1.00
C590   C     0.28898   0.31269   0.75950   0.00000  Uiso   1.00
Cl591  Cl    0.09593   0.10861   0.81741   0.00000  Uiso   1.00
Cl592  Cl    0.23739   0.22474   0.68260   0.00000  Uiso   1.00
Cu593  Cu    0.04689   0.16667   0.75000   0.00000  Uiso   1.00
Cu594  Cu    0.28645   0.16666   0.75000   0.00000  Uiso   1.00
F595   F     0.24545   0.29352   0.76954   0.00000  Uiso   1.00
F596   F     0.08788   0.03981   0.73049   0.00000  Uiso   1.00
H597   H     0.26476   0.20746   0.54044   0.00000  Uiso   1.00
H598   H     0.14716   0.15467   0.91678   0.00000  Uiso   1.00
H599   H     0.25552   0.03840   0.76690   0.00000  Uiso   1.00
H600   H     0.07781   0.29493   0.73312   0.00000  Uiso   1.00
H601   H     0.19642   0.12199   0.80188   0.00000  Uiso   1.00
H602   H     0.13691   0.21135   0.69812   0.00000  Uiso   1.00
H603   H     0.06492   0.14576   0.95598   0.00000  Uiso   1.00
H604   H     0.11494   0.17895   0.61306   0.00000  Uiso   1.00
H605   H     0.22013   0.15068   0.88814   0.00000  Uiso   1.00
H606   H     0.30494   0.15097   0.60621   0.00000  Uiso   1.00
H607   H     0.02702   0.19099   0.89218   0.00000  Uiso   1.00
H608   H     0.33054   0.20474   0.97237   0.00000  Uiso   1.00
H609   H     0.33332   0.14417   0.52484   0.00000  Uiso   1.00
H610   H     0.18231   0.19929   0.57953   0.00000  Uiso   1.00
N611   N     0.11736   0.16668   0.74999   0.00000  Uiso   1.00
N612   N     0.21597   0.16666   0.75001   0.00000  Uiso   1.00
O613   O     0.03958   0.10655   0.75000   0.00000  Uiso   1.00
O614   O     0.29375   0.22678   0.75000   0.00000  Uiso   1.00
O615   O     0.29372   0.10654   0.75000   0.00000  Uiso   1.00
O616   O     0.03961   0.22679   0.74999   0.00000  Uiso   1.00
O617   O     0.01852   0.16668   0.81491   0.00000  Uiso   1.00
O618   O     0.31481   0.16666   0.68508   0.00000  Uiso   1.00
O619   O     0.27267   0.16667   0.81492   0.00000  Uiso   1.00
O620   O     0.06067   0.16667   0.68508   0.00000  Uiso   1.00
C621   C     0.33358   0.08739   0.74987   0.00000  Uiso   1.00
C622   C     0.37769   0.02064   0.74052   0.00000  Uiso   1.00
C623   C     0.66612   0.29057   0.75015   0.00000  Uiso   1.00
C624   C     0.33388   0.04276   0.74987   0.00000  Uiso   1.00
C625   C     0.51716   0.14187   0.77886   0.00000  Uiso   1.00
C626   C     0.48284   0.19147   0.72114   0.00000  Uiso   1.00
C627   C     0.46771   0.14177   0.77900   0.00000  Uiso   1.00
C628   C     0.53229   0.19157   0.72100   0.00000  Uiso   1.00
C629   C     0.63949   0.16704   0.83608   0.00000  Uiso   1.00
C630   C     0.36051   0.16664   0.66389   0.00000  Uiso   1.00
C631   C     0.62433   0.17083   0.88508   0.00000  Uiso   1.00
C632   C     0.66642   0.24594   0.75013   0.00000  Uiso   1.00
C633   C     0.37551   0.16581   0.61462   0.00000  Uiso   1.00
C634   C     0.63894   0.19311   0.95457   0.00000  Uiso   1.00
C635   C     0.35896   0.15272   0.54335   0.00000  Uiso   1.00
C636   C     0.65607   0.18505   0.90895   0.00000  Uiso   1.00
C637   C     0.34273   0.15650   0.58975   0.00000  Uiso   1.00
C638   C     0.57582   0.16365   0.90743   0.00000  Uiso   1.00
C639   C     0.42421   0.17269   0.59254   0.00000  Uiso   1.00
C640   C     0.55710   0.17308   0.95303   0.00000  Uiso   1.00
C641   C     0.44142   0.16994   0.54562   0.00000  Uiso   1.00
C642   C     0.58988   0.18733   0.97672   0.00000  Uiso   1.00
C643   C     0.52512   0.19079   0.54474   0.00000  Uiso   1.00
C644   C     0.40793   0.15896   0.52121   0.00000  Uiso   1.00
C645   C     0.50695   0.16900   0.97558   0.00000  Uiso   1.00
C646   C     0.49104   0.17649   0.52256   0.00000  Uiso   1.00
C647   C     0.47203   0.15861   0.95255   0.00000  Uiso   1.00
C648   C     0.57340   0.19619   0.52213   0.00000  Uiso   1.00
C649   C     0.42360   0.15391   0.97500   0.00000  Uiso   1.00
C650   C     0.62303   0.02188   0.75929   0.00000  Uiso   1.00
C651   C     0.37697   0.31145   0.74073   0.00000  Uiso   1.00
C652   C     0.62231   0.31269   0.75950   0.00000  Uiso   1.00
Cl653  Cl    0.42927   0.10861   0.81741   0.00000  Uiso   1.00
Cl654  Cl    0.57072   0.22474   0.68260   0.00000  Uiso   1.00
Cu655  Cu    0.38022   0.16667   0.75000   0.00000  Uiso   1.00
Cu656  Cu    0.61978   0.16666   0.75000   0.00000  Uiso   1.00
F657   F     0.57879   0.29352   0.76954   0.00000  Uiso   1.00
F658   F     0.42121   0.03981   0.73049   0.00000  Uiso   1.00
H659   H     0.59810   0.20746   0.54044   0.00000  Uiso   1.00
H660   H     0.48050   0.15467   0.91678   0.00000  Uiso   1.00
H661   H     0.58885   0.03840   0.76690   0.00000  Uiso   1.00
H662   H     0.41114   0.29493   0.73312   0.00000  Uiso   1.00
H663   H     0.52975   0.12199   0.80188   0.00000  Uiso   1.00
H664   H     0.47024   0.21135   0.69812   0.00000  Uiso   1.00
H665   H     0.39826   0.14576   0.95598   0.00000  Uiso   1.00
H666   H     0.44827   0.17895   0.61306   0.00000  Uiso   1.00
H667   H     0.55347   0.15068   0.88814   0.00000  Uiso   1.00
H668   H     0.63827   0.15097   0.60621   0.00000  Uiso   1.00
H669   H     0.36036   0.19099   0.89218   0.00000  Uiso   1.00
H670   H     0.66388   0.20474   0.97237   0.00000  Uiso   1.00
H671   H     0.66665   0.14417   0.52484   0.00000  Uiso   1.00
H672   H     0.51565   0.19929   0.57953   0.00000  Uiso   1.00
N673   N     0.45069   0.16668   0.74999   0.00000  Uiso   1.00
N674   N     0.54931   0.16666   0.75001   0.00000  Uiso   1.00
O675   O     0.37291   0.10655   0.75000   0.00000  Uiso   1.00
O676   O     0.62709   0.22678   0.75000   0.00000  Uiso   1.00
O677   O     0.62706   0.10654   0.75000   0.00000  Uiso   1.00
O678   O     0.37294   0.22679   0.74999   0.00000  Uiso   1.00
O679   O     0.35186   0.16668   0.81491   0.00000  Uiso   1.00
O680   O     0.64814   0.16666   0.68508   0.00000  Uiso   1.00
O681   O     0.60600   0.16667   0.81492   0.00000  Uiso   1.00
O682   O     0.39400   0.16667   0.68508   0.00000  Uiso   1.00
C683   C     0.66691   0.08739   0.74987   0.00000  Uiso   1.00
C684   C     0.71102   0.02064   0.74052   0.00000  Uiso   1.00
C685   C     0.99945   0.29057   0.75015   0.00000  Uiso   1.00
C686   C     0.66721   0.04276   0.74987   0.00000  Uiso   1.00
C687   C     0.85049   0.14187   0.77886   0.00000  Uiso   1.00
C688   C     0.81618   0.19147   0.72114   0.00000  Uiso   1.00
C689   C     0.80104   0.14177   0.77900   0.00000  Uiso   1.00
C690   C     0.86562   0.19157   0.72100   0.00000  Uiso   1.00
C691   C     0.97283   0.16704   0.83608   0.00000  Uiso   1.00
C692   C     0.69384   0.16664   0.66389   0.00000  Uiso   1.00
C693   C     0.95767   0.17083   0.88508   0.00000  Uiso   1.00
C694   C     0.99975   0.24594   0.75013   0.00000  Uiso   1.00
C695   C     0.70885   0.16581   0.61462   0.00000  Uiso   1.00
C696   C     0.97227   0.19311   0.95457   0.00000  Uiso   1.00
C697   C     0.69230   0.15272   0.54335   0.00000  Uiso   1.00
C698   C     0.98940   0.18505   0.90895   0.00000  Uiso   1.00
C699   C     0.67606   0.15650   0.58975   0.00000  Uiso   1.00
C700   C     0.90916   0.16365   0.90743   0.00000  Uiso   1.00
C701   C     0.75754   0.17269   0.59254   0.00000  Uiso   1.00
C702   C     0.89043   0.17308   0.95303   0.00000  Uiso   1.00
C703   C     0.77476   0.16994   0.54562   0.00000  Uiso   1.00
C704   C     0.92321   0.18733   0.97672   0.00000  Uiso   1.00
C705   C     0.85845   0.19079   0.54474   0.00000  Uiso   1.00
C706   C     0.74127   0.15896   0.52121   0.00000  Uiso   1.00
C707   C     0.84028   0.16900   0.97558   0.00000  Uiso   1.00
C708   C     0.82437   0.17649   0.52256   0.00000  Uiso   1.00
C709   C     0.80537   0.15861   0.95255   0.00000  Uiso   1.00
C710   C     0.90674   0.19619   0.52213   0.00000  Uiso   1.00
C711   C     0.75693   0.15391   0.97500   0.00000  Uiso   1.00
C712   C     0.95636   0.02188   0.75929   0.00000  Uiso   1.00
C713   C     0.71030   0.31145   0.74073   0.00000  Uiso   1.00
C714   C     0.95564   0.31269   0.75950   0.00000  Uiso   1.00
Cl715  Cl    0.76260   0.10861   0.81741   0.00000  Uiso   1.00
Cl716  Cl    0.90406   0.22474   0.68260   0.00000  Uiso   1.00
Cu717  Cu    0.71355   0.16667   0.75000   0.00000  Uiso   1.00
Cu718  Cu    0.95311   0.16666   0.75000   0.00000  Uiso   1.00
F719   F     0.91212   0.29352   0.76954   0.00000  Uiso   1.00
F720   F     0.75454   0.03981   0.73049   0.00000  Uiso   1.00
H721   H     0.93143   0.20746   0.54044   0.00000  Uiso   1.00
H722   H     0.81383   0.15467   0.91678   0.00000  Uiso   1.00
H723   H     0.92219   0.03840   0.76690   0.00000  Uiso   1.00
H724   H     0.74448   0.29493   0.73312   0.00000  Uiso   1.00
H725   H     0.86309   0.12199   0.80188   0.00000  Uiso   1.00
H726   H     0.80358   0.21135   0.69812   0.00000  Uiso   1.00
H727   H     0.73159   0.14576   0.95598   0.00000  Uiso   1.00
H728   H     0.78160   0.17895   0.61306   0.00000  Uiso   1.00
H729   H     0.88680   0.15068   0.88814   0.00000  Uiso   1.00
H730   H     0.97161   0.15097   0.60621   0.00000  Uiso   1.00
H731   H     0.69369   0.19099   0.89218   0.00000  Uiso   1.00
H732   H     0.99721   0.20474   0.97237   0.00000  Uiso   1.00
H733   H     0.99999   0.14417   0.52484   0.00000  Uiso   1.00
H734   H     0.84898   0.19929   0.57953   0.00000  Uiso   1.00
N735   N     0.78403   0.16668   0.74999   0.00000  Uiso   1.00
N736   N     0.88264   0.16666   0.75001   0.00000  Uiso   1.00
O737   O     0.70625   0.10655   0.75000   0.00000  Uiso   1.00
O738   O     0.96042   0.22678   0.75000   0.00000  Uiso   1.00
O739   O     0.96039   0.10654   0.75000   0.00000  Uiso   1.00
O740   O     0.70628   0.22679   0.74999   0.00000  Uiso   1.00
O741   O     0.68519   0.16668   0.81491   0.00000  Uiso   1.00
O742   O     0.98148   0.16666   0.68508   0.00000  Uiso   1.00
O743   O     0.93933   0.16667   0.81492   0.00000  Uiso   1.00
O744   O     0.72733   0.16667   0.68508   0.00000  Uiso   1.00
C745   C     0.00025   0.42073   0.74987   0.00000  Uiso   1.00
C746   C     0.04435   0.35397   0.74052   0.00000  Uiso   1.00
C747   C     0.33279   0.62390   0.75015   0.00000  Uiso   1.00
C748   C     0.00054   0.37610   0.74987   0.00000  Uiso   1.00
C749   C     0.18382   0.47520   0.77886   0.00000  Uiso   1.00
C750   C     0.14951   0.52480   0.72114   0.00000  Uiso   1.00
C751   C     0.13438   0.47510   0.77900   0.00000  Uiso   1.00
C752   C     0.19895   0.52491   0.72100   0.00000  Uiso   1.00
C753   C     0.30616   0.50038   0.83608   0.00000  Uiso   1.00
C754   C     0.02718   0.49997   0.66389   0.00000  Uiso   1.00
C755   C     0.29100   0.50416   0.88508   0.00000  Uiso   1.00
C756   C     0.33309   0.57927   0.75013   0.00000  Uiso   1.00
C757   C     0.04218   0.49914   0.61462   0.00000  Uiso   1.00
C758   C     0.30560   0.52644   0.95457   0.00000  Uiso   1.00
C759   C     0.02563   0.48605   0.54335   0.00000  Uiso   1.00
C760   C     0.32273   0.51838   0.90895   0.00000  Uiso   1.00
C761   C     0.00940   0.48984   0.58975   0.00000  Uiso   1.00
C762   C     0.24249   0.49698   0.90743   0.00000  Uiso   1.00
C763   C     0.09088   0.50602   0.59254   0.00000  Uiso   1.00
C764   C     0.22377   0.50641   0.95303   0.00000  Uiso   1.00
C765   C     0.10809   0.50327   0.54562   0.00000  Uiso   1.00
C766   C     0.25654   0.52066   0.97672   0.00000  Uiso   1.00
C767   C     0.19178   0.52412   0.54474   0.00000  Uiso   1.00
C768   C     0.07460   0.49229   0.52121   0.00000  Uiso   1.00
C769   C     0.17362   0.50233   0.97558   0.00000  Uiso   1.00
C770   C     0.15771   0.50982   0.52256   0.00000  Uiso   1.00
C771   C     0.13870   0.49195   0.95255   0.00000  Uiso   1.00
C772   C     0.24007   0.52952   0.52213   0.00000  Uiso   1.00
C773   C     0.09027   0.48724   0.97500   0.00000  Uiso   1.00
C774   C     0.28970   0.35521   0.75929   0.00000  Uiso   1.00
C775   C     0.04363   0.64478   0.74073   0.00000  Uiso   1.00
C776   C     0.28898   0.64603   0.75950   0.00000  Uiso   1.00
Cl777  Cl    0.09593   0.44195   0.81741   0.00000  Uiso   1.00
Cl778  Cl    0.23739   0.55807   0.68260   0.00000  Uiso   1.00
Cu779  Cu    0.04689   0.50001   0.75000   0.00000  Uiso   1.00
Cu780  Cu    0.28645   0.49999   0.75000   0.00000  Uiso   1.00
F781   F     0.24545   0.62685   0.76954   0.00000  Uiso   1.00
F782   F     0.08788   0.37314   0.73049   0.00000  Uiso   1.00
H783   H     0.26476   0.54079   0.54044   0.00000  Uiso   1.00
H784   H     0.14716   0.48801   0.91678   0.00000  Uiso   1.00
H785   H     0.25552   0.37174   0.76690   0.00000  Uiso   1.00
H786   H     0.07781   0.62826   0.73312   0.00000  Uiso   1.00
H787   H     0.19642   0.45532   0.80188   0.00000  Uiso   1.00
H788   H     0.13691   0.54468   0.69812   0.00000  Uiso   1.00
H789   H     0.06492   0.47909   0.95598   0.00000  Uiso   1.00
H790   H     0.11494   0.51229   0.61306   0.00000  Uiso   1.00
H791   H     0.22013   0.48401   0.88814   0.00000  Uiso   1.00
H792   H     0.30494   0.48430   0.60621   0.00000  Uiso   1.00
H793   H     0.02702   0.52432   0.89218   0.00000  Uiso   1.00
H794   H     0.33054   0.53808   0.97237   0.00000  Uiso   1.00
H795   H     0.33332   0.47750   0.52484   0.00000  Uiso   1.00
H796   H     0.18231   0.53263   0.57953   0.00000  Uiso   1.00
N797   N     0.11736   0.50001   0.74999   0.00000  Uiso   1.00
N798   N     0.21597   0.49999   0.75001   0.00000  Uiso   1.00
O799   O     0.03958   0.43989   0.75000   0.00000  Uiso   1.00
O800   O     0.29375   0.56011   0.75000   0.00000  Uiso   1.00
O801   O     0.29372   0.43988   0.75000   0.00000  Uiso   1.00
O802   O     0.03961   0.56012   0.74999   0.00000  Uiso   1.00
O803   O     0.01852   0.50001   0.81491   0.00000  Uiso   1.00
O804   O     0.31481   0.49999   0.68508   0.00000  Uiso   1.00
O805   O     0.27267   0.50000   0.81492   0.00000  Uiso   1.00
O806   O     0.06067   0.50000   0.68508   0.00000  Uiso   1.00
C807   C     0.33358   0.42073   0.74987   0.00000  Uiso   1.00
C808   C     0.37769   0.35397   0.74052   0.00000  Uiso   1.00
C809   C     0.66612   0.62390   0.75015   0.00000  Uiso   1.00
C810   C     0.33388   0.37610   0.74987   0.00000  Uiso   1.00
C811   C     0.51716   0.47520   0.77886   0.00000  Uiso   1.00
C812   C     0.48284   0.52480   0.72114   0.00000  Uiso   1.00
C813   C     0.46771   0.47510   0.77900   0.00000  Uiso   1.00
C814   C     0.53229   0.52491   0.72100   0.00000  Uiso   1.00
C815   C     0.63949   0.50038   0.83608   0.00000  Uiso   1.00
C816   C     0.36051   0.49997   0.66389   0.00000  Uiso   1.00
C817   C     0.62433   0.50416   0.88508   0.00000  Uiso   1.00
C818   C     0.66642   0.57927   0.75013   0.00000  Uiso   1.00
C819   C     0.37551   0.49914   0.61462   0.00000  Uiso   1.00
C820   C     0.63894   0.52644   0.95457   0.00000  Uiso   1.00
C821   C     0.35896   0.48605   0.54335   0.00000  Uiso   1.00
C822   C     0.65607   0.51838   0.90895   0.00000  Uiso   1.00
C823   C     0.34273   0.48984   0.58975   0.00000  Uiso   1.00
C824   C     0.57582   0.49698   0.90743   0.00000  Uiso   1.00
C825   C     0.42421   0.50602   0.59254   0.00000  Uiso   1.00
C826   C     0.55710   0.50641   0.95303   0.00000  Uiso   1.00
C827   C     0.44142   0.50327   0.54562   0.00000  Uiso   1.00
C828   C     0.58988   0.52066   0.97672   0.00000  Uiso   1.00
C829   C     0.52512   0.52412   0.54474   0.00000  Uiso   1.00
C830   C     0.40793   0.49229   0.52121   0.00000  Uiso   1.00
C831   C     0.50695   0.50233   0.97558   0.00000  Uiso   1.00
C832   C     0.49104   0.50982   0.52256   0.00000  Uiso   1.00
C833   C     0.47203   0.49195   0.95255   0.00000  Uiso   1.00
C834   C     0.57340   0.52952   0.52213   0.00000  Uiso   1.00
C835   C     0.42360   0.48724   0.97500   0.00000  Uiso   1.00
C836   C     0.62303   0.35521   0.75929   0.00000  Uiso   1.00
C837   C     0.37697   0.64478   0.74073   0.00000  Uiso   1.00
C838   C     0.62231   0.64603   0.75950   0.00000  Uiso   1.00
Cl839  Cl    0.42927   0.44195   0.81741   0.00000  Uiso   1.00
Cl840  Cl    0.57072   0.55807   0.68260   0.00000  Uiso   1.00
Cu841  Cu    0.38022   0.50001   0.75000   0.00000  Uiso   1.00
Cu842  Cu    0.61978   0.49999   0.75000   0.00000  Uiso   1.00
F843   F     0.57879   0.62685   0.76954   0.00000  Uiso   1.00
F844   F     0.42121   0.37314   0.73049   0.00000  Uiso   1.00
H845   H     0.59810   0.54079   0.54044   0.00000  Uiso   1.00
H846   H     0.48050   0.48801   0.91678   0.00000  Uiso   1.00
H847   H     0.58885   0.37174   0.76690   0.00000  Uiso   1.00
H848   H     0.41114   0.62826   0.73312   0.00000  Uiso   1.00
H849   H     0.52975   0.45532   0.80188   0.00000  Uiso   1.00
H850   H     0.47024   0.54468   0.69812   0.00000  Uiso   1.00
H851   H     0.39826   0.47909   0.95598   0.00000  Uiso   1.00
H852   H     0.44827   0.51229   0.61306   0.00000  Uiso   1.00
H853   H     0.55347   0.48401   0.88814   0.00000  Uiso   1.00
H854   H     0.63827   0.48430   0.60621   0.00000  Uiso   1.00
H855   H     0.36036   0.52432   0.89218   0.00000  Uiso   1.00
H856   H     0.66388   0.53808   0.97237   0.00000  Uiso   1.00
H857   H     0.66665   0.47750   0.52484   0.00000  Uiso   1.00
H858   H     0.51565   0.53263   0.57953   0.00000  Uiso   1.00
N859   N     0.45069   0.50001   0.74999   0.00000  Uiso   1.00
N860   N     0.54931   0.49999   0.75001   0.00000  Uiso   1.00
O861   O     0.37291   0.43989   0.75000   0.00000  Uiso   1.00
O862   O     0.62709   0.56011   0.75000   0.00000  Uiso   1.00
O863   O     0.62706   0.43988   0.75000   0.00000  Uiso   1.00
O864   O     0.37294   0.56012   0.74999   0.00000  Uiso   1.00
O865   O     0.35186   0.50001   0.81491   0.00000  Uiso   1.00
O866   O     0.64814   0.49999   0.68508   0.00000  Uiso   1.00
O867   O     0.60600   0.50000   0.81492   0.00000  Uiso   1.00
O868   O     0.39400   0.50000   0.68508   0.00000  Uiso   1.00
C869   C     0.66691   0.42073   0.74987   0.00000  Uiso   1.00
C870   C     0.71102   0.35397   0.74052   0.00000  Uiso   1.00
C871   C     0.99945   0.62390   0.75015   0.00000  Uiso   1.00
C872   C     0.66721   0.37610   0.74987   0.00000  Uiso   1.00
C873   C     0.85049   0.47520   0.77886   0.00000  Uiso   1.00
C874   C     0.81618   0.52480   0.72114   0.00000  Uiso   1.00
C875   C     0.80104   0.47510   0.77900   0.00000  Uiso   1.00
C876   C     0.86562   0.52491   0.72100   0.00000  Uiso   1.00
C877   C     0.97283   0.50038   0.83608   0.00000  Uiso   1.00
C878   C     0.69384   0.49997   0.66389   0.00000  Uiso   1.00
C879   C     0.95767   0.50416   0.88508   0.00000  Uiso   1.00
C880   C     0.99975   0.57927   0.75013   0.00000  Uiso   1.00
C881   C     0.70885   0.49914   0.61462   0.00000  Uiso   1.00
C882   C     0.97227   0.52644   0.95457   0.00000  Uiso   1.00
C883   C     0.69230   0.48605   0.54335   0.00000  Uiso   1.00
C884   C     0.98940   0.51838   0.90895   0.00000  Uiso   1.00
C885   C     0.67606   0.48984   0.58975   0.00000  Uiso   1.00
C886   C     0.90916   0.49698   0.90743   0.00000  Uiso   1.00
C887   C     0.75754   0.50602   0.59254   0.00000  Uiso   1.00
C888   C     0.89043   0.50641   0.95303   0.00000  Uiso   1.00
C889   C     0.77476   0.50327   0.54562   0.00000  Uiso   1.00
C890   C     0.92321   0.52066   0.97672   0.00000  Uiso   1.00
C891   C     0.85845   0.52412   0.54474   0.00000  Uiso   1.00
C892   C     0.74127   0.49229   0.52121   0.00000  Uiso   1.00
C893   C     0.84028   0.50233   0.97558   0.00000  Uiso   1.00
C894   C     0.82437   0.50982   0.52256   0.00000  Uiso   1.00
C895   C     0.80537   0.49195   0.95255   0.00000  Uiso   1.00
C896   C     0.90674   0.52952   0.52213   0.00000  Uiso   1.00
C897   C     0.75693   0.48724   0.97500   0.00000  Uiso   1.00
C898   C     0.95636   0.35521   0.75929   0.00000  Uiso   1.00
C899   C     0.71030   0.64478   0.74073   0.00000  Uiso   1.00
C900   C     0.95564   0.64603   0.75950   0.00000  Uiso   1.00
Cl901  Cl    0.76260   0.44195   0.81741   0.00000  Uiso   1.00
Cl902  Cl    0.90406   0.55807   0.68260   0.00000  Uiso   1.00
Cu903  Cu    0.71355   0.50001   0.75000   0.00000  Uiso   1.00
Cu904  Cu    0.95311   0.49999   0.75000   0.00000  Uiso   1.00
F905   F     0.91212   0.62685   0.76954   0.00000  Uiso   1.00
F906   F     0.75454   0.37314   0.73049   0.00000  Uiso   1.00
H907   H     0.93143   0.54079   0.54044   0.00000  Uiso   1.00
H908   H     0.81383   0.48801   0.91678   0.00000  Uiso   1.00
H909   H     0.92219   0.37174   0.76690   0.00000  Uiso   1.00
H910   H     0.74448   0.62826   0.73312   0.00000  Uiso   1.00
H911   H     0.86309   0.45532   0.80188   0.00000  Uiso   1.00
H912   H     0.80358   0.54468   0.69812   0.00000  Uiso   1.00
H913   H     0.73159   0.47909   0.95598   0.00000  Uiso   1.00
H914   H     0.78160   0.51229   0.61306   0.00000  Uiso   1.00
H915   H     0.88680   0.48401   0.88814   0.00000  Uiso   1.00
H916   H     0.97161   0.48430   0.60621   0.00000  Uiso   1.00
H917   H     0.69369   0.52432   0.89218   0.00000  Uiso   1.00
H918   H     0.99721   0.53808   0.97237   0.00000  Uiso   1.00
H919   H     0.99999   0.47750   0.52484   0.00000  Uiso   1.00
H920   H     0.84898   0.53263   0.57953   0.00000  Uiso   1.00
N921   N     0.78403   0.50001   0.74999   0.00000  Uiso   1.00
N922   N     0.88264   0.49999   0.75001   0.00000  Uiso   1.00
O923   O     0.70625   0.43989   0.75000   0.00000  Uiso   1.00
O924   O     0.96042   0.56011   0.75000   0.00000  Uiso   1.00
O925   O     0.96039   0.43988   0.75000   0.00000  Uiso   1.00
O926   O     0.70628   0.56012   0.74999   0.00000  Uiso   1.00
O927   O     0.68519   0.50001   0.81491   0.00000  Uiso   1.00
O928   O     0.98148   0.49999   0.68508   0.00000  Uiso   1.00
O929   O     0.93933   0.50000   0.81492   0.00000  Uiso   1.00
O930   O     0.72733   0.50000   0.68508   0.00000  Uiso   1.00
C931   C     0.00025   0.75406   0.74987   0.00000  Uiso   1.00
C932   C     0.04435   0.68730   0.74052   0.00000  Uiso   1.00
C933   C     0.33279   0.95723   0.75015   0.00000  Uiso   1.00
C934   C     0.00054   0.70943   0.74987   0.00000  Uiso   1.00
C935   C     0.18382   0.80854   0.77886   0.00000  Uiso   1.00
C936   C     0.14951   0.85814   0.72114   0.00000  Uiso   1.00
C937   C     0.13438   0.80843   0.77900   0.00000  Uiso   1.00
C938   C     0.19895   0.85824   0.72100   0.00000  Uiso   1.00
C939   C     0.30616   0.83371   0.83608   0.00000  Uiso   1.00
C940   C     0.02718   0.83331   0.66389   0.00000  Uiso   1.00
C941   C     0.29100   0.83749   0.88508   0.00000  Uiso   1.00
C942   C     0.33309   0.91261   0.75013   0.00000  Uiso   1.00
C943   C     0.04218   0.83247   0.61462   0.00000  Uiso   1.00
C944   C     0.30560   0.85978   0.95457   0.00000  Uiso   1.00
C945   C     0.02563   0.81938   0.54335   0.00000  Uiso   1.00
C946   C     0.32273   0.85172   0.90895   0.00000  Uiso   1.00
C947   C     0.00940   0.82317   0.58975   0.00000  Uiso   1.00
C948   C     0.24249   0.83031   0.90743   0.00000  Uiso   1.00
C949   C     0.09088   0.83936   0.59254   0.00000  Uiso   1.00
C950   C     0.22377   0.83975   0.95303   0.00000  Uiso   1.00
C951   C     0.10809   0.83661   0.54562   0.00000  Uiso   1.00
C952   C     0.25654   0.85400   0.97672   0.00000  Uiso   1.00
C953   C     0.19178   0.85746   0.54474   0.00000  Uiso   1.00
C954   C     0.07460   0.82563   0.52121   0.00000  Uiso   1.00
C955   C     0.17362   0.83567   0.97558   0.00000  Uiso   1.00
C956   C     0.15771   0.84316   0.52256   0.00000  Uiso   1.00
C957   C     0.13870   0.82528   0.95255   0.00000  Uiso   1.00
C958   C     0.24007   0.86285   0.52213   0.00000  Uiso   1.00
C959   C     0.09027   0.82057   0.97500   0.00000  Uiso   1.00
C960   C     0.28970   0.68855   0.75929   0.00000  Uiso   1.00
C961   C     0.04363   0.97812   0.74073   0.00000  Uiso   1.00
C962   C     0.28898   0.97936   0.75950   0.00000  Uiso   1.00
Cl963  Cl    0.09593   0.77528   0.81741   0.00000  Uiso   1.00
Cl964  Cl    0.23739   0.89141   0.68260   0.00000  Uiso   1.00
Cu965  Cu    0.04689   0.83334   0.75000   0.00000  Uiso   1.00
Cu966  Cu    0.28645   0.83333   0.75000   0.00000  Uiso   1.00
F967   F     0.24545   0.96019   0.76954   0.00000  Uiso   1.00
F968   F     0.08788   0.70648   0.73049   0.00000  Uiso   1.00
H969   H     0.26476   0.87413   0.54044   0.00000  Uiso   1.00
H970   H     0.14716   0.82134   0.91678   0.00000  Uiso   1.00
H971   H     0.25552   0.70507   0.76690   0.00000  Uiso   1.00
H972   H     0.07781   0.96160   0.73312   0.00000  Uiso   1.00
H973   H     0.19642   0.78866   0.80188   0.00000  Uiso   1.00
H974   H     0.13691   0.87802   0.69812   0.00000  Uiso   1.00
H975   H     0.06492   0.81242   0.95598   0.00000  Uiso   1.00
H976   H     0.11494   0.84562   0.61306   0.00000  Uiso   1.00
H977   H     0.22013   0.81735   0.88814   0.00000  Uiso   1.00
H978   H     0.30494   0.81764   0.60621   0.00000  Uiso   1.00
H979   H     0.02702   0.85765   0.89218   0.00000  Uiso   1.00
H980   H     0.33054   0.87141   0.97237   0.00000  Uiso   1.00
H981   H     0.33332   0.81083   0.52484   0.00000  Uiso   1.00
H982   H     0.18231   0.86596   0.57953   0.00000  Uiso   1.00
N983   N     0.11736   0.83334   0.74999   0.00000  Uiso   1.00
N984   N     0.21597   0.83332   0.75001   0.00000  Uiso   1.00
O985   O     0.03958   0.77322   0.75000   0.00000  Uiso   1.00
O986   O     0.29375   0.89345   0.75000   0.00000  Uiso   1.00
O987   O     0.29372   0.77321   0.75000   0.00000  Uiso   1.00
O988   O     0.03961   0.89346   0.74999   0.00000  Uiso   1.00
O989   O     0.01852   0.83334   0.81491   0.00000  Uiso   1.00
O990   O     0.31481   0.83332   0.68508   0.00000  Uiso   1.00
O991   O     0.27267   0.83333   0.81492   0.00000  Uiso   1.00
O992   O     0.06067   0.83333   0.68508   0.00000  Uiso   1.00
C993   C     0.33358   0.75406   0.74987   0.00000  Uiso   1.00
C994   C     0.37769   0.68730   0.74052   0.00000  Uiso   1.00
C995   C     0.66612   0.95723   0.75015   0.00000  Uiso   1.00
C996   C     0.33388   0.70943   0.74987   0.00000  Uiso   1.00
C997   C     0.51716   0.80854   0.77886   0.00000  Uiso   1.00
C998   C     0.48284   0.85814   0.72114   0.00000  Uiso   1.00
C999   C     0.46771   0.80843   0.77900   0.00000  Uiso   1.00
C1000  C     0.53229   0.85824   0.72100   0.00000  Uiso   1.00
C1001  C     0.63949   0.83371   0.83608   0.00000  Uiso   1.00
C1002  C     0.36051   0.83331   0.66389   0.00000  Uiso   1.00
C1003  C     0.62433   0.83749   0.88508   0.00000  Uiso   1.00
C1004  C     0.66642   0.91261   0.75013   0.00000  Uiso   1.00
C1005  C     0.37551   0.83247   0.61462   0.00000  Uiso   1.00
C1006  C     0.63894   0.85978   0.95457   0.00000  Uiso   1.00
C1007  C     0.35896   0.81938   0.54335   0.00000  Uiso   1.00
C1008  C     0.65607   0.85172   0.90895   0.00000  Uiso   1.00
C1009  C     0.34273   0.82317   0.58975   0.00000  Uiso   1.00
C1010  C     0.57582   0.83031   0.90743   0.00000  Uiso   1.00
C1011  C     0.42421   0.83936   0.59254   0.00000  Uiso   1.00
C1012  C     0.55710   0.83975   0.95303   0.00000  Uiso   1.00
C1013  C     0.44142   0.83661   0.54562   0.00000  Uiso   1.00
C1014  C     0.58988   0.85400   0.97672   0.00000  Uiso   1.00
C1015  C     0.52512   0.85746   0.54474   0.00000  Uiso   1.00
C1016  C     0.40793   0.82563   0.52121   0.00000  Uiso   1.00
C1017  C     0.50695   0.83567   0.97558   0.00000  Uiso   1.00
C1018  C     0.49104   0.84316   0.52256   0.00000  Uiso   1.00
C1019  C     0.47203   0.82528   0.95255   0.00000  Uiso   1.00
C1020  C     0.57340   0.86285   0.52213   0.00000  Uiso   1.00
C1021  C     0.42360   0.82057   0.97500   0.00000  Uiso   1.00
C1022  C     0.62303   0.68855   0.75929   0.00000  Uiso   1.00
C1023  C     0.37697   0.97812   0.74073   0.00000  Uiso   1.00
C1024  C     0.62231   0.97936   0.75950   0.00000  Uiso   1.00
Cl1025 Cl    0.42927   0.77528   0.81741   0.00000  Uiso   1.00
Cl1026 Cl    0.57072   0.89141   0.68260   0.00000  Uiso   1.00
Cu1027 Cu    0.38022   0.83334   0.75000   0.00000  Uiso   1.00
Cu1028 Cu    0.61978   0.83333   0.75000   0.00000  Uiso   1.00
F1029  F     0.57879   0.96019   0.76954   0.00000  Uiso   1.00
F1030  F     0.42121   0.70648   0.73049   0.00000  Uiso   1.00
H1031  H     0.59810   0.87413   0.54044   0.00000  Uiso   1.00
H1032  H     0.48050   0.82134   0.91678   0.00000  Uiso   1.00
H1033  H     0.58885   0.70507   0.76690   0.00000  Uiso   1.00
H1034  H     0.41114   0.96160   0.73312   0.00000  Uiso   1.00
H1035  H     0.52975   0.78866   0.80188   0.00000  Uiso   1.00
H1036  H     0.47024   0.87802   0.69812   0.00000  Uiso   1.00
H1037  H     0.39826   0.81242   0.95598   0.00000  Uiso   1.00
H1038  H     0.44827   0.84562   0.61306   0.00000  Uiso   1.00
H1039  H     0.55347   0.81735   0.88814   0.00000  Uiso   1.00
H1040  H     0.63827   0.81764   0.60621   0.00000  Uiso   1.00
H1041  H     0.36036   0.85765   0.89218   0.00000  Uiso   1.00
H1042  H     0.66388   0.87141   0.97237   0.00000  Uiso   1.00
H1043  H     0.66665   0.81083   0.52484   0.00000  Uiso   1.00
H1044  H     0.51565   0.86596   0.57953   0.00000  Uiso   1.00
N1045  N     0.45069   0.83334   0.74999   0.00000  Uiso   1.00
N1046  N     0.54931   0.83332   0.75001   0.00000  Uiso   1.00
O1047  O     0.37291   0.77322   0.75000   0.00000  Uiso   1.00
O1048  O     0.62709   0.89345   0.75000   0.00000  Uiso   1.00
O1049  O     0.62706   0.77321   0.75000   0.00000  Uiso   1.00
O1050  O     0.37294   0.89346   0.74999   0.00000  Uiso   1.00
O1051  O     0.35186   0.83334   0.81491   0.00000  Uiso   1.00
O1052  O     0.64814   0.83332   0.68508   0.00000  Uiso   1.00
O1053  O     0.60600   0.83333   0.81492   0.00000  Uiso   1.00
O1054  O     0.39400   0.83333   0.68508   0.00000  Uiso   1.00
C1055  C     0.66691   0.75406   0.74987   0.00000  Uiso   1.00
C1056  C     0.71102   0.68730   0.74052   0.00000  Uiso   1.00
C1057  C     0.99945   0.95723   0.75015   0.00000  Uiso   1.00
C1058  C     0.66721   0.70943   0.74987   0.00000  Uiso   1.00
C1059  C     0.85049   0.80854   0.77886   0.00000  Uiso   1.00
C1060  C     0.81618   0.85814   0.72114   0.00000  Uiso   1.00
C1061  C     0.80104   0.80843   0.77900   0.00000  Uiso   1.00
C1062  C     0.86562   0.85824   0.72100   0.00000  Uiso   1.00
C1063  C     0.97283   0.83371   0.83608   0.00000  Uiso   1.00
C1064  C     0.69384   0.83331   0.66389   0.00000  Uiso   1.00
C1065  C     0.95767   0.83749   0.88508   0.00000  Uiso   1.00
C1066  C     0.99975   0.91261   0.75013   0.00000  Uiso   1.00
C1067  C     0.70885   0.83247   0.61462   0.00000  Uiso   1.00
C1068  C     0.97227   0.85978   0.95457   0.00000  Uiso   1.00
C1069  C     0.69230   0.81938   0.54335   0.00000  Uiso   1.00
C1070  C     0.98940   0.85172   0.90895   0.00000  Uiso   1.00
C1071  C     0.67606   0.82317   0.58975   0.00000  Uiso   1.00
C1072  C     0.90916   0.83031   0.90743   0.00000  Uiso   1.00
C1073  C     0.75754   0.83936   0.59254   0.00000  Uiso   1.00
C1074  C     0.89043   0.83975   0.95303   0.00000  Uiso   1.00
C1075  C     0.77476   0.83661   0.54562   0.00000  Uiso   1.00
C1076  C     0.92321   0.85400   0.97672   0.00000  Uiso   1.00
C1077  C     0.85845   0.85746   0.54474   0.00000  Uiso   1.00
C1078  C     0.74127   0.82563   0.52121   0.00000  Uiso   1.00
C1079  C     0.84028   0.83567   0.97558   0.00000  Uiso   1.00
C1080  C     0.82437   0.84316   0.52256   0.00000  Uiso   1.00
C1081  C     0.80537   0.82528   0.95255   0.00000  Uiso   1.00
C1082  C     0.90674   0.86285   0.52213   0.00000  Uiso   1.00
C1083  C     0.75693   0.82057   0.97500   0.00000  Uiso   1.00
C1084  C     0.95636   0.68855   0.75929   0.00000  Uiso   1.00
C1085  C     0.71030   0.97812   0.74073   0.00000  Uiso   1.00
C1086  C     0.95564   0.97936   0.75950   0.00000  Uiso   1.00
Cl1087 Cl    0.76260   0.77528   0.81741   0.00000  Uiso   1.00
Cl1088 Cl    0.90406   0.89141   0.68260   0.00000  Uiso   1.00
Cu1089 Cu    0.71355   0.83334   0.75000   0.00000  Uiso   1.00
Cu1090 Cu    0.95311   0.83333   0.75000   0.00000  Uiso   1.00
F1091  F     0.91212   0.96019   0.76954   0.00000  Uiso   1.00
F1092  F     0.75454   0.70648   0.73049   0.00000  Uiso   1.00
H1093  H     0.93143   0.87413   0.54044   0.00000  Uiso   1.00
H1094  H     0.81383   0.82134   0.91678   0.00000  Uiso   1.00
H1095  H     0.92219   0.70507   0.76690   0.00000  Uiso   1.00
H1096  H     0.74448   0.96160   0.73312   0.00000  Uiso   1.00
H1097  H     0.86309   0.78866   0.80188   0.00000  Uiso   1.00
H1098  H     0.80358   0.87802   0.69812   0.00000  Uiso   1.00
H1099  H     0.73159   0.81242   0.95598   0.00000  Uiso   1.00
H1100  H     0.78160   0.84562   0.61306   0.00000  Uiso   1.00
H1101  H     0.88680   0.81735   0.88814   0.00000  Uiso   1.00
H1102  H     0.97161   0.81764   0.60621   0.00000  Uiso   1.00
H1103  H     0.69369   0.85765   0.89218   0.00000  Uiso   1.00
H1104  H     0.99721   0.87141   0.97237   0.00000  Uiso   1.00
H1105  H     0.99999   0.81083   0.52484   0.00000  Uiso   1.00
H1106  H     0.84898   0.86596   0.57953   0.00000  Uiso   1.00
N1107  N     0.78403   0.83334   0.74999   0.00000  Uiso   1.00
N1108  N     0.88264   0.83332   0.75001   0.00000  Uiso   1.00
O1109  O     0.70625   0.77322   0.75000   0.00000  Uiso   1.00
O1110  O     0.96042   0.89345   0.75000   0.00000  Uiso   1.00
O1111  O     0.96039   0.77321   0.75000   0.00000  Uiso   1.00
O1112  O     0.70628   0.89346   0.74999   0.00000  Uiso   1.00
O1113  O     0.68519   0.83334   0.81491   0.00000  Uiso   1.00
O1114  O     0.98148   0.83332   0.68508   0.00000  Uiso   1.00
O1115  O     0.93933   0.83333   0.81492   0.00000  Uiso   1.00
O1116  O     0.72733   0.83333   0.68508   0.00000  Uiso   1.00
loop_
_geom_bond_atom_site_label_1
_geom_bond_atom_site_label_2
_geom_bond_distance
_geom_bond_site_symmetry_2
_ccdc_geom_bond_type
C1     C4      1.452   .     S
C1     O55     1.294   .     A
C1     O181    1.294   1_455 S
C2     C4      1.405   .     A
C2     F38     1.358   .     S
C2     C403    1.383   1_545 S
C3     C32     1.405   .     A
C3     C12     1.452   .     S
C3     C93     1.401   .     S
C4     C154    1.401   1_455 S
C5     C7      1.415   .     A
C5     H43     1.082   .     S
C5     N54     1.361   .     A
C6     N53     1.361   .     A
C6     H44     1.082   .     S
C6     C8      1.415   .     A
C7     Cl33    1.755   .     S
C7     N53     1.378   .     A
C8     Cl34    1.755   .     S
C8     N54     1.378   .     A
C9     C11     1.467   .     S
C9     O61     1.295   .     A
C9     O121    1.300   .     S
C10    O62     1.296   .     A
C10    C13     1.468   .     S
C10    O184    1.300   1_455 S
C11    C16     1.398   .     A
C11    C18     1.399   .     A
C12    O56     1.294   .     A
C12    O120    1.294   .     S
C13    C17     1.399   .     A
C13    C19     1.400   .     A
C14    C22     1.404   .     A
C14    C16     1.392   .     A
C14    H50     1.083   .     S
C15    C24     1.404   .     A
C15    C17     1.392   .     A
C15    H175    1.083   1_455 S
C16    H111    1.083   .     S
C17    H172    1.083   1_455 S
C18    H47     1.075   .     S
C18    C20     1.406   .     A
C19    H46     1.074   .     S
C19    C21     1.406   .     A
C20    C22     1.418   .     A
C20    C25     1.428   .     A
C21    C26     1.428   .     A
C21    C24     1.418   .     A
C22    C586    1.390   .     S
C23    C28     1.387   .     A
C23    H52     1.076   .     S
C23    C26     1.417   .     A
C24    C587    1.390   1_554 S
C25    C27     1.417   .     A
C25    C584    1.425   .     S
C26    C583    1.425   1_554 S
C27    H40     1.076   .     S
C27    C29     1.386   .     A
C28    H39     1.085   .     S
C28    C580    1.390   1_554 S
C29    H45     1.084   .     S
C29    C582    1.390   .     S
C30    H41     1.084   .     S
C30    C66     1.401   .     S
C30    C404    1.383   1_545 S
C31    H42     1.084   .     S
C31    C127    1.401   1_455 S
C31    C188    1.383   .     S
C32    F37     1.358   .     S
C32    C216    1.383   .     S
Cu35   N53     2.018   .     S
Cu35   O58     1.964   .     S
Cu35   O62     1.939   .     S
Cu35   O55     1.969   .     S
Cu35   O59     1.955   .     S
Cu35   Cu160   2.685   1_455 S
Cu36   O56     1.969   .     S
Cu36   O61     1.939   .     S
Cu36   N54     2.018   .     S
Cu36   O57     1.964   .     S
Cu36   O60     1.955   .     S
Cu36   Cu97    2.685   .     S
H48    C79     1.083   .     S
H49    C140    1.083   1_455 S
H51    C77     1.083   .     S
O57    C63     1.294   .     S
O58    C136    1.294   1_455 S
O59    C133    1.300   1_455 S
O60    C72     1.300   .     S
C63    C66     1.452   .     S
C63    O117    1.294   .     A
C64    C66     1.405   .     A
C64    F100    1.358   .     S
C64    C465    1.383   1_545 S
C65    C94     1.405   .     A
C65    C74     1.452   .     S
C65    C155    1.401   .     S
C67    C69     1.415   .     A
C67    H105    1.082   .     S
C67    N116    1.361   .     A
C68    N115    1.361   .     A
C68    H106    1.082   .     S
C68    C70     1.415   .     A
C69    Cl95    1.755   .     S
C69    N115    1.378   .     A
C70    Cl96    1.755   .     S
C70    N116    1.378   .     A
C71    C73     1.467   .     S
C71    O123    1.295   .     A
C71    O183    1.300   .     S
C72    O124    1.296   .     A
C72    C75     1.468   .     S
C73    C78     1.398   .     A
C73    C80     1.399   .     A
C74    O118    1.294   .     A
C74    O182    1.294   .     S
C75    C79     1.399   .     A
C75    C81     1.400   .     A
C76    C84     1.404   .     A
C76    C78     1.392   .     A
C76    H112    1.083   .     S
C77    C86     1.404   .     A
C77    C79     1.392   .     A
C78    H173    1.083   .     S
C80    H109    1.075   .     S
C80    C82     1.406   .     A
C81    H108    1.074   .     S
C81    C83     1.406   .     A
C82    C84     1.418   .     A
C82    C87     1.428   .     A
C83    C88     1.428   .     A
C83    C86     1.418   .     A
C84    C648    1.390   .     S
C85    C90     1.387   .     A
C85    H114    1.076   .     S
C85    C88     1.417   .     A
C86    C649    1.390   1_554 S
C87    C89     1.417   .     A
C87    C646    1.425   .     S
C88    C645    1.425   1_554 S
C89    H102    1.076   .     S
C89    C91     1.386   .     A
C90    H101    1.085   .     S
C90    C642    1.390   1_554 S
C91    H107    1.084   .     S
C91    C644    1.390   .     S
C92    H103    1.084   .     S
C92    C128    1.401   .     S
C92    C466    1.383   1_545 S
C93    H104    1.084   .     S
C93    C250    1.383   .     S
C94    F99     1.358   .     S
C94    C278    1.383   .     S
Cu97   N115    2.018   .     S
Cu97   O120    1.964   .     S
Cu97   O124    1.939   .     S
Cu97   O117    1.969   .     S
Cu97   O121    1.955   .     S
Cu98   O118    1.969   .     S
Cu98   O123    1.939   .     S
Cu98   N116    2.018   .     S
Cu98   O119    1.964   .     S
Cu98   O122    1.955   .     S
Cu98   Cu159   2.685   .     S
H110   C141    1.083   .     S
H113   C139    1.083   .     S
O119   C125    1.294   .     S
O122   C134    1.300   .     S
C125   C128    1.452   .     S
C125   O179    1.294   .     A
C126   C128    1.405   .     A
C126   F162    1.358   .     S
C126   C527    1.383   1_545 S
C127   C156    1.405   .     A
C127   C136    1.452   .     S
C127   C31     1.401   1_655 S
C129   C131    1.415   .     A
C129   H167    1.082   .     S
C129   N178    1.361   .     A
C130   N177    1.361   .     A
C130   H168    1.082   .     S
C130   C132    1.415   .     A
C131   Cl157   1.755   .     S
C131   N177    1.378   .     A
C132   Cl158   1.755   .     S
C132   N178    1.378   .     A
C133   C135    1.467   .     S
C133   O185    1.295   .     A
C133   O59     1.300   1_655 S
C134   O186    1.296   .     A
C134   C137    1.468   .     S
C135   C140    1.398   .     A
C135   C142    1.399   .     A
C136   O180    1.294   .     A
C136   O58     1.294   1_655 S
C137   C141    1.399   .     A
C137   C143    1.400   .     A
C138   C146    1.404   .     A
C138   C140    1.392   .     A
C138   H174    1.083   .     S
C139   C148    1.404   .     A
C139   C141    1.392   .     A
C140   H49     1.083   1_655 S
C142   H171    1.075   .     S
C142   C144    1.406   .     A
C143   H170    1.074   .     S
C143   C145    1.406   .     A
C144   C146    1.418   .     A
C144   C149    1.428   .     A
C145   C150    1.428   .     A
C145   C148    1.418   .     A
C146   C710    1.390   .     S
C147   C152    1.387   .     A
C147   H176    1.076   .     S
C147   C150    1.417   .     A
C148   C711    1.390   1_554 S
C149   C151    1.417   .     A
C149   C708    1.425   .     S
C150   C707    1.425   1_554 S
C151   H164    1.076   .     S
C151   C153    1.386   .     A
C152   H163    1.085   .     S
C152   C704    1.390   1_554 S
C153   H169    1.084   .     S
C153   C706    1.390   .     S
C154   H165    1.084   .     S
C154   C4      1.401   1_655 S
C154   C528    1.383   1_545 S
C155   H166    1.084   .     S
C155   C312    1.383   .     S
C156   F161    1.358   .     S
C156   C340    1.383   .     S
Cu159  N177    2.018   .     S
Cu159  O182    1.964   .     S
Cu159  O186    1.939   .     S
Cu159  O179    1.969   .     S
Cu159  O183    1.955   .     S
Cu160  O180    1.969   .     S
Cu160  O185    1.939   .     S
Cu160  N178    2.018   .     S
Cu160  O181    1.964   .     S
Cu160  O184    1.955   .     S
Cu160  Cu35    2.685   1_655 S
H172   C17     1.083   1_655 S
H175   C15     1.083   1_655 S
O181   C1      1.294   1_655 S
O184   C10     1.300   1_655 S
C187   C190    1.452   .     S
C187   O241    1.294   .     A
C187   O367    1.294   1_455 S
C188   C190    1.405   .     A
C188   F224    1.358   .     S
C189   C218    1.405   .     A
C189   C198    1.452   .     S
C189   C279    1.401   .     S
C190   C340    1.401   1_455 S
C191   C193    1.415   .     A
C191   H229    1.082   .     S
C191   N240    1.361   .     A
C192   N239    1.361   .     A
C192   H230    1.082   .     S
C192   C194    1.415   .     A
C193   Cl219   1.755   .     S
C193   N239    1.378   .     A
C194   Cl220   1.755   .     S
C194   N240    1.378   .     A
C195   C197    1.467   .     S
C195   O247    1.295   .     A
C195   O307    1.300   .     S
C196   O248    1.296   .     A
C196   C199    1.468   .     S
C196   O370    1.300   1_455 S
C197   C202    1.398   .     A
C197   C204    1.399   .     A
C198   O242    1.294   .     A
C198   O306    1.294   .     S
C199   C203    1.399   .     A
C199   C205    1.400   .     A
C200   C208    1.404   .     A
C200   C202    1.392   .     A
C200   H236    1.083   .     S
C201   C210    1.404   .     A
C201   C203    1.392   .     A
C201   H361    1.083   1_455 S
C202   H297    1.083   .     S
C203   H358    1.083   1_455 S
C204   H233    1.075   .     S
C204   C206    1.406   .     A
C205   H232    1.074   .     S
C205   C207    1.406   .     A
C206   C208    1.418   .     A
C206   C211    1.428   .     A
C207   C212    1.428   .     A
C207   C210    1.418   .     A
C208   C772    1.390   .     S
C209   C214    1.387   .     A
C209   H238    1.076   .     S
C209   C212    1.417   .     A
C210   C773    1.390   1_554 S
C211   C213    1.417   .     A
C211   C770    1.425   .     S
C212   C769    1.425   1_554 S
C213   H226    1.076   .     S
C213   C215    1.386   .     A
C214   H225    1.085   .     S
C214   C766    1.390   1_554 S
C215   H231    1.084   .     S
C215   C768    1.390   .     S
C216   H227    1.084   .     S
C216   C252    1.401   .     S
C217   H228    1.084   .     S
C217   C313    1.401   1_455 S
C217   C374    1.383   .     S
C218   F223    1.358   .     S
C218   C402    1.383   .     S
Cu221  N239    2.018   .     S
Cu221  O244    1.964   .     S
Cu221  O248    1.939   .     S
Cu221  O241    1.969   .     S
Cu221  O245    1.955   .     S
Cu221  Cu346   2.685   1_455 S
Cu222  O242    1.969   .     S
Cu222  O247    1.939   .     S
Cu222  N240    2.018   .     S
Cu222  O243    1.964   .     S
Cu222  O246    1.955   .     S
Cu222  Cu283   2.685   .     S
H234   C265    1.083   .     S
H235   C326    1.083   1_455 S
H237   C263    1.083   .     S
O243   C249    1.294   .     S
O244   C322    1.294   1_455 S
O245   C319    1.300   1_455 S
O246   C258    1.300   .     S
C249   C252    1.452   .     S
C249   O303    1.294   .     A
C250   C252    1.405   .     A
C250   F286    1.358   .     S
C251   C280    1.405   .     A
C251   C260    1.452   .     S
C251   C341    1.401   .     S
C253   C255    1.415   .     A
C253   H291    1.082   .     S
C253   N302    1.361   .     A
C254   N301    1.361   .     A
C254   H292    1.082   .     S
C254   C256    1.415   .     A
C255   Cl281   1.755   .     S
C255   N301    1.378   .     A
C256   Cl282   1.755   .     S
C256   N302    1.378   .     A
C257   C259    1.467   .     S
C257   O309    1.295   .     A
C257   O369    1.300   .     S
C258   O310    1.296   .     A
C258   C261    1.468   .     S
C259   C264    1.398   .     A
C259   C266    1.399   .     A
C260   O304    1.294   .     A
C260   O368    1.294   .     S
C261   C265    1.399   .     A
C261   C267    1.400   .     A
C262   C270    1.404   .     A
C262   C264    1.392   .     A
C262   H298    1.083   .     S
C263   C272    1.404   .     A
C263   C265    1.392   .     A
C264   H359    1.083   .     S
C266   H295    1.075   .     S
C266   C268    1.406   .     A
C267   H294    1.074   .     S
C267   C269    1.406   .     A
C268   C270    1.418   .     A
C268   C273    1.428   .     A
C269   C274    1.428   .     A
C269   C272    1.418   .     A
C270   C834    1.390   .     S
C271   C276    1.387   .     A
C271   H300    1.076   .     S
C271   C274    1.417   .     A
C272   C835    1.390   1_554 S
C273   C275    1.417   .     A
C273   C832    1.425   .     S
C274   C831    1.425   1_554 S
C275   H288    1.076   .     S
C275   C277    1.386   .     A
C276   H287    1.085   .     S
C276   C828    1.390   1_554 S
C277   H293    1.084   .     S
C277   C830    1.390   .     S
C278   H289    1.084   .     S
C278   C314    1.401   .     S
C279   H290    1.084   .     S
C279   C436    1.383   .     S
C280   F285    1.358   .     S
C280   C464    1.383   .     S
Cu283  N301    2.018   .     S
Cu283  O306    1.964   .     S
Cu283  O310    1.939   .     S
Cu283  O303    1.969   .     S
Cu283  O307    1.955   .     S
Cu284  O304    1.969   .     S
Cu284  O309    1.939   .     S
Cu284  N302    2.018   .     S
Cu284  O305    1.964   .     S
Cu284  O308    1.955   .     S
Cu284  Cu345   2.685   .     S
H296   C327    1.083   .     S
H299   C325    1.083   .     S
O305   C311    1.294   .     S
O308   C320    1.300   .     S
C311   C314    1.452   .     S
C311   O365    1.294   .     A
C312   C314    1.405   .     A
C312   F348    1.358   .     S
C313   C342    1.405   .     A
C313   C322    1.452   .     S
C313   C217    1.401   1_655 S
C315   C317    1.415   .     A
C315   H353    1.082   .     S
C315   N364    1.361   .     A
C316   N363    1.361   .     A
C316   H354    1.082   .     S
C316   C318    1.415   .     A
C317   Cl343   1.755   .     S
C317   N363    1.378   .     A
C318   Cl344   1.755   .     S
C318   N364    1.378   .     A
C319   C321    1.467   .     S
C319   O371    1.295   .     A
C319   O245    1.300   1_655 S
C320   O372    1.296   .     A
C320   C323    1.468   .     S
C321   C326    1.398   .     A
C321   C328    1.399   .     A
C322   O366    1.294   .     A
C322   O244    1.294   1_655 S
C323   C327    1.399   .     A
C323   C329    1.400   .     A
C324   C332    1.404   .     A
C324   C326    1.392   .     A
C324   H360    1.083   .     S
C325   C334    1.404   .     A
C325   C327    1.392   .     A
C326   H235    1.083   1_655 S
C328   H357    1.075   .     S
C328   C330    1.406   .     A
C329   H356    1.074   .     S
C329   C331    1.406   .     A
C330   C332    1.418   .     A
C330   C335    1.428   .     A
C331   C336    1.428   .     A
C331   C334    1.418   .     A
C332   C896    1.390   .     S
C333   C338    1.387   .     A
C333   H362    1.076   .     S
C333   C336    1.417   .     A
C334   C897    1.390   1_554 S
C335   C337    1.417   .     A
C335   C894    1.425   .     S
C336   C893    1.425   1_554 S
C337   H350    1.076   .     S
C337   C339    1.386   .     A
C338   H349    1.085   .     S
C338   C890    1.390   1_554 S
C339   H355    1.084   .     S
C339   C892    1.390   .     S
C340   H351    1.084   .     S
C340   C190    1.401   1_655 S
C341   H352    1.084   .     S
C341   C498    1.383   .     S
C342   F347    1.358   .     S
C342   C526    1.383   .     S
Cu345  N363    2.018   .     S
Cu345  O368    1.964   .     S
Cu345  O372    1.939   .     S
Cu345  O365    1.969   .     S
Cu345  O369    1.955   .     S
Cu346  O366    1.969   .     S
Cu346  O371    1.939   .     S
Cu346  N364    2.018   .     S
Cu346  O367    1.964   .     S
Cu346  O370    1.955   .     S
Cu346  Cu221   2.685   1_655 S
H358   C203    1.083   1_655 S
H361   C201    1.083   1_655 S
O367   C187    1.294   1_655 S
O370   C196    1.300   1_655 S
C373   C376    1.452   .     S
C373   O427    1.294   .     A
C373   O553    1.294   1_455 S
C374   C376    1.405   .     A
C374   F410    1.358   .     S
C375   C404    1.405   .     A
C375   C384    1.452   .     S
C375   C465    1.401   .     S
C376   C526    1.401   1_455 S
C377   C379    1.415   .     A
C377   H415    1.082   .     S
C377   N426    1.361   .     A
C378   N425    1.361   .     A
C378   H416    1.082   .     S
C378   C380    1.415   .     A
C379   Cl405   1.755   .     S
C379   N425    1.378   .     A
C380   Cl406   1.755   .     S
C380   N426    1.378   .     A
C381   C383    1.467   .     S
C381   O433    1.295   .     A
C381   O493    1.300   .     S
C382   O434    1.296   .     A
C382   C385    1.468   .     S
C382   O556    1.300   1_455 S
C383   C388    1.398   .     A
C383   C390    1.399   .     A
C384   O428    1.294   .     A
C384   O492    1.294   .     S
C385   C389    1.399   .     A
C385   C391    1.400   .     A
C386   C394    1.404   .     A
C386   C388    1.392   .     A
C386   H422    1.083   .     S
C387   C396    1.404   .     A
C387   C389    1.392   .     A
C387   H547    1.083   1_455 S
C388   H483    1.083   .     S
C389   H544    1.083   1_455 S
C390   H419    1.075   .     S
C390   C392    1.406   .     A
C391   H418    1.074   .     S
C391   C393    1.406   .     A
C392   C394    1.418   .     A
C392   C397    1.428   .     A
C393   C398    1.428   .     A
C393   C396    1.418   .     A
C394   C958    1.390   .     S
C395   C400    1.387   .     A
C395   H424    1.076   .     S
C395   C398    1.417   .     A
C396   C959    1.390   1_554 S
C397   C399    1.417   .     A
C397   C956    1.425   .     S
C398   C955    1.425   1_554 S
C399   H412    1.076   .     S
C399   C401    1.386   .     A
C400   H411    1.085   .     S
C400   C952    1.390   1_554 S
C401   H417    1.084   .     S
C401   C954    1.390   .     S
C402   H413    1.084   .     S
C402   C438    1.401   .     S
C403   H414    1.084   .     S
C403   C499    1.401   1_455 S
C403   C2      1.383   1_565 S
C404   F409    1.358   .     S
C404   C30     1.383   1_565 S
Cu407  N425    2.018   .     S
Cu407  O430    1.964   .     S
Cu407  O434    1.939   .     S
Cu407  O427    1.969   .     S
Cu407  O431    1.955   .     S
Cu407  Cu532   2.685   1_455 S
Cu408  O428    1.969   .     S
Cu408  O433    1.939   .     S
Cu408  N426    2.018   .     S
Cu408  O429    1.964   .     S
Cu408  O432    1.955   .     S
Cu408  Cu469   2.685   .     S
H420   C451    1.083   .     S
H421   C512    1.083   1_455 S
H423   C449    1.083   .     S
O429   C435    1.294   .     S
O430   C508    1.294   1_455 S
O431   C505    1.300   1_455 S
O432   C444    1.300   .     S
C435   C438    1.452   .     S
C435   O489    1.294   .     A
C436   C438    1.405   .     A
C436   F472    1.358   .     S
C437   C466    1.405   .     A
C437   C446    1.452   .     S
C437   C527    1.401   .     S
C439   C441    1.415   .     A
C439   H477    1.082   .     S
C439   N488    1.361   .     A
C440   N487    1.361   .     A
C440   H478    1.082   .     S
C440   C442    1.415   .     A
C441   Cl467   1.755   .     S
C441   N487    1.378   .     A
C442   Cl468   1.755   .     S
C442   N488    1.378   .     A
C443   C445    1.467   .     S
C443   O495    1.295   .     A
C443   O555    1.300   .     S
C444   O496    1.296   .     A
C444   C447    1.468   .     S
C445   C450    1.398   .     A
C445   C452    1.399   .     A
C446   O490    1.294   .     A
C446   O554    1.294   .     S
C447   C451    1.399   .     A
C447   C453    1.400   .     A
C448   C456    1.404   .     A
C448   C450    1.392   .     A
C448   H484    1.083   .     S
C449   C458    1.404   .     A
C449   C451    1.392   .     A
C450   H545    1.083   .     S
C452   H481    1.075   .     S
C452   C454    1.406   .     A
C453   H480    1.074   .     S
C453   C455    1.406   .     A
C454   C456    1.418   .     A
C454   C459    1.428   .     A
C455   C460    1.428   .     A
C455   C458    1.418   .     A
C456   C1020   1.390   .     S
C457   C462    1.387   .     A
C457   H486    1.076   .     S
C457   C460    1.417   .     A
C458   C1021   1.390   1_554 S
C459   C461    1.417   .     A
C459   C1018   1.425   .     S
C460   C1017   1.425   1_554 S
C461   H474    1.076   .     S
C461   C463    1.386   .     A
C462   H473    1.085   .     S
C462   C1014   1.390   1_554 S
C463   H479    1.084   .     S
C463   C1016   1.390   .     S
C464   H475    1.084   .     S
C464   C500    1.401   .     S
C465   H476    1.084   .     S
C465   C64     1.383   1_565 S
C466   F471    1.358   .     S
C466   C92     1.383   1_565 S
Cu469  N487    2.018   .     S
Cu469  O492    1.964   .     S
Cu469  O496    1.939   .     S
Cu469  O489    1.969   .     S
Cu469  O493    1.955   .     S
Cu470  O490    1.969   .     S
Cu470  O495    1.939   .     S
Cu470  N488    2.018   .     S
Cu470  O491    1.964   .     S
Cu470  O494    1.955   .     S
Cu470  Cu531   2.685   .     S
H482   C513    1.083   .     S
H485   C511    1.083   .     S
O491   C497    1.294   .     S
O494   C506    1.300   .     S
C497   C500    1.452   .     S
C497   O551    1.294   .     A
C498   C500    1.405   .     A
C498   F534    1.358   .     S
C499   C528    1.405   .     A
C499   C508    1.452   .     S
C499   C403    1.401   1_655 S
C501   C503    1.415   .     A
C501   H539    1.082   .     S
C501   N550    1.361   .     A
C502   N549    1.361   .     A
C502   H540    1.082   .     S
C502   C504    1.415   .     A
C503   Cl529   1.755   .     S
C503   N549    1.378   .     A
C504   Cl530   1.755   .     S
C504   N550    1.378   .     A
C505   C507    1.467   .     S
C505   O557    1.295   .     A
C505   O431    1.300   1_655 S
C506   O558    1.296   .     A
C506   C509    1.468   .     S
C507   C512    1.398   .     A
C507   C514    1.399   .     A
C508   O552    1.294   .     A
C508   O430    1.294   1_655 S
C509   C513    1.399   .     A
C509   C515    1.400   .     A
C510   C518    1.404   .     A
C510   C512    1.392   .     A
C510   H546    1.083   .     S
C511   C520    1.404   .     A
C511   C513    1.392   .     A
C512   H421    1.083   1_655 S
C514   H543    1.075   .     S
C514   C516    1.406   .     A
C515   H542    1.074   .     S
C515   C517    1.406   .     A
C516   C518    1.418   .     A
C516   C521    1.428   .     A
C517   C522    1.428   .     A
C517   C520    1.418   .     A
C518   C1082   1.390   .     S
C519   C524    1.387   .     A
C519   H548    1.076   .     S
C519   C522    1.417   .     A
C520   C1083   1.390   1_554 S
C521   C523    1.417   .     A
C521   C1080   1.425   .     S
C522   C1079   1.425   1_554 S
C523   H536    1.076   .     S
C523   C525    1.386   .     A
C524   H535    1.085   .     S
C524   C1076   1.390   1_554 S
C525   H541    1.084   .     S
C525   C1078   1.390   .     S
C526   H537    1.084   .     S
C526   C376    1.401   1_655 S
C527   H538    1.084   .     S
C527   C126    1.383   1_565 S
C528   F533    1.358   .     S
C528   C154    1.383   1_565 S
Cu531  N549    2.018   .     S
Cu531  O554    1.964   .     S
Cu531  O558    1.939   .     S
Cu531  O551    1.969   .     S
Cu531  O555    1.955   .     S
Cu532  O552    1.969   .     S
Cu532  O557    1.939   .     S
Cu532  N550    2.018   .     S
Cu532  O553    1.964   .     S
Cu532  O556    1.955   .     S
Cu532  Cu407   2.685   1_655 S
H544   C389    1.083   1_655 S
H547   C387    1.083   1_655 S
O553   C373    1.294   1_655 S
O556   C382    1.300   1_655 S
C559   C562    1.452   .     S
C559   O613    1.294   .     A
C559   O739    1.294   1_455 S
C560   C562    1.405   .     A
C560   F596    1.358   .     S
C560   C961    1.383   1_545 S
C561   C590    1.405   .     A
C561   C570    1.452   .     S
C561   C651    1.401   .     S
C562   C712    1.401   1_455 S
C563   C565    1.415   .     A
C563   H601    1.082   .     S
C563   N612    1.361   .     A
C564   N611    1.361   .     A
C564   H602    1.082   .     S
C564   C566    1.415   .     A
C565   Cl591   1.755   .     S
C565   N611    1.378   .     A
C566   Cl592   1.755   .     S
C566   N612    1.378   .     A
C567   C569    1.467   .     S
C567   O619    1.295   .     A
C567   O679    1.300   .     S
C568   O620    1.296   .     A
C568   C571    1.468   .     S
C568   O742    1.300   1_455 S
C569   C574    1.398   .     A
C569   C576    1.399   .     A
C570   O614    1.294   .     A
C570   O678    1.294   .     S
C571   C575    1.399   .     A
C571   C577    1.400   .     A
C572   C580    1.404   .     A
C572   C574    1.392   .     A
C572   H608    1.083   .     S
C573   C582    1.404   .     A
C573   C575    1.392   .     A
C573   H733    1.083   1_455 S
C574   H669    1.083   .     S
C575   H730    1.083   1_455 S
C576   H605    1.075   .     S
C576   C578    1.406   .     A
C577   H604    1.074   .     S
C577   C579    1.406   .     A
C578   C580    1.418   .     A
C578   C583    1.428   .     A
C579   C584    1.428   .     A
C579   C582    1.418   .     A
C580   C28     1.390   1_556 S
C581   C586    1.387   .     A
C581   H610    1.076   .     S
C581   C584    1.417   .     A
C583   C585    1.417   .     A
C583   C26     1.425   1_556 S
C585   H598    1.076   .     S
C585   C587    1.386   .     A
C586   H597    1.085   .     S
C587   H603    1.084   .     S
C587   C24     1.390   1_556 S
C588   H599    1.084   .     S
C588   C624    1.401   .     S
C588   C962    1.383   1_545 S
C589   H600    1.084   .     S
C589   C685    1.401   1_455 S
C589   C746    1.383   .     S
C590   F595    1.358   .     S
C590   C774    1.383   .     S
Cu593  N611    2.018   .     S
Cu593  O616    1.964   .     S
Cu593  O620    1.939   .     S
Cu593  O613    1.969   .     S
Cu593  O617    1.955   .     S
Cu593  Cu718   2.685   1_455 S
Cu594  O614    1.969   .     S
Cu594  O619    1.939   .     S
Cu594  N612    2.018   .     S
Cu594  O615    1.964   .     S
Cu594  O618    1.955   .     S
Cu594  Cu655   2.685   .     S
H606   C637    1.083   .     S
H607   C698    1.083   1_455 S
H609   C635    1.083   .     S
O615   C621    1.294   .     S
O616   C694    1.294   1_455 S
O617   C691    1.300   1_455 S
O618   C630    1.300   .     S
C621   C624    1.452   .     S
C621   O675    1.294   .     A
C622   C624    1.405   .     A
C622   F658    1.358   .     S
C622   C1023   1.383   1_545 S
C623   C652    1.405   .     A
C623   C632    1.452   .     S
C623   C713    1.401   .     S
C625   C627    1.415   .     A
C625   H663    1.082   .     S
C625   N674    1.361   .     A
C626   N673    1.361   .     A
C626   H664    1.082   .     S
C626   C628    1.415   .     A
C627   Cl653   1.755   .     S
C627   N673    1.378   .     A
C628   Cl654   1.755   .     S
C628   N674    1.378   .     A
C629   C631    1.467   .     S
C629   O681    1.295   .     A
C629   O741    1.300   .     S
C630   O682    1.296   .     A
C630   C633    1.468   .     S
C631   C636    1.398   .     A
C631   C638    1.399   .     A
C632   O676    1.294   .     A
C632   O740    1.294   .     S
C633   C637    1.399   .     A
C633   C639    1.400   .     A
C634   C642    1.404   .     A
C634   C636    1.392   .     A
C634   H670    1.083   .     S
C635   C644    1.404   .     A
C635   C637    1.392   .     A
C636   H731    1.083   .     S
C638   H667    1.075   .     S
C638   C640    1.406   .     A
C639   H666    1.074   .     S
C639   C641    1.406   .     A
C640   C642    1.418   .     A
C640   C645    1.428   .     A
C641   C646    1.428   .     A
C641   C644    1.418   .     A
C642   C90     1.390   1_556 S
C643   C648    1.387   .     A
C643   H672    1.076   .     S
C643   C646    1.417   .     A
C645   C647    1.417   .     A
C645   C88     1.425   1_556 S
C647   H660    1.076   .     S
C647   C649    1.386   .     A
C648   H659    1.085   .     S
C649   H665    1.084   .     S
C649   C86     1.390   1_556 S
C650   H661    1.084   .     S
C650   C686    1.401   .     S
C650   C1024   1.383   1_545 S
C651   H662    1.084   .     S
C651   C808    1.383   .     S
C652   F657    1.358   .     S
C652   C836    1.383   .     S
Cu655  N673    2.018   .     S
Cu655  O678    1.964   .     S
Cu655  O682    1.939   .     S
Cu655  O675    1.969   .     S
Cu655  O679    1.955   .     S
Cu656  O676    1.969   .     S
Cu656  O681    1.939   .     S
Cu656  N674    2.018   .     S
Cu656  O677    1.964   .     S
Cu656  O680    1.955   .     S
Cu656  Cu717   2.685   .     S
H668   C699    1.083   .     S
H671   C697    1.083   .     S
O677   C683    1.294   .     S
O680   C692    1.300   .     S
C683   C686    1.452   .     S
C683   O737    1.294   .     A
C684   C686    1.405   .     A
C684   F720    1.358   .     S
C684   C1085   1.383   1_545 S
C685   C714    1.405   .     A
C685   C694    1.452   .     S
C685   C589    1.401   1_655 S
C687   C689    1.415   .     A
C687   H725    1.082   .     S
C687   N736    1.361   .     A
C688   N735    1.361   .     A
C688   H726    1.082   .     S
C688   C690    1.415   .     A
C689   Cl715   1.755   .     S
C689   N735    1.378   .     A
C690   Cl716   1.755   .     S
C690   N736    1.378   .     A
C691   C693    1.467   .     S
C691   O743    1.295   .     A
C691   O617    1.300   1_655 S
C692   O744    1.296   .     A
C692   C695    1.468   .     S
C693   C698    1.398   .     A
C693   C700    1.399   .     A
C694   O738    1.294   .     A
C694   O616    1.294   1_655 S
C695   C699    1.399   .     A
C695   C701    1.400   .     A
C696   C704    1.404   .     A
C696   C698    1.392   .     A
C696   H732    1.083   .     S
C697   C706    1.404   .     A
C697   C699    1.392   .     A
C698   H607    1.083   1_655 S
C700   H729    1.075   .     S
C700   C702    1.406   .     A
C701   H728    1.074   .     S
C701   C703    1.406   .     A
C702   C704    1.418   .     A
C702   C707    1.428   .     A
C703   C708    1.428   .     A
C703   C706    1.418   .     A
C704   C152    1.390   1_556 S
C705   C710    1.387   .     A
C705   H734    1.076   .     S
C705   C708    1.417   .     A
C707   C709    1.417   .     A
C707   C150    1.425   1_556 S
C709   H722    1.076   .     S
C709   C711    1.386   .     A
C710   H721    1.085   .     S
C711   H727    1.084   .     S
C711   C148    1.390   1_556 S
C712   H723    1.084   .     S
C712   C562    1.401   1_655 S
C712   C1086   1.383   1_545 S
C713   H724    1.084   .     S
C713   C870    1.383   .     S
C714   F719    1.358   .     S
C714   C898    1.383   .     S
Cu717  N735    2.018   .     S
Cu717  O740    1.964   .     S
Cu717  O744    1.939   .     S
Cu717  O737    1.969   .     S
Cu717  O741    1.955   .     S
Cu718  O738    1.969   .     S
Cu718  O743    1.939   .     S
Cu718  N736    2.018   .     S
Cu718  O739    1.964   .     S
Cu718  O742    1.955   .     S
Cu718  Cu593   2.685   1_655 S
H730   C575    1.083   1_655 S
H733   C573    1.083   1_655 S
O739   C559    1.294   1_655 S
O742   C568    1.300   1_655 S
C745   C748    1.452   .     S
C745   O799    1.294   .     A
C745   O925    1.294   1_455 S
C746   C748    1.405   .     A
C746   F782    1.358   .     S
C747   C776    1.405   .     A
C747   C756    1.452   .     S
C747   C837    1.401   .     S
C748   C898    1.401   1_455 S
C749   C751    1.415   .     A
C749   H787    1.082   .     S
C749   N798    1.361   .     A
C750   N797    1.361   .     A
C750   H788    1.082   .     S
C750   C752    1.415   .     A
C751   Cl777   1.755   .     S
C751   N797    1.378   .     A
C752   Cl778   1.755   .     S
C752   N798    1.378   .     A
C753   C755    1.467   .     S
C753   O805    1.295   .     A
C753   O865    1.300   .     S
C754   O806    1.296   .     A
C754   C757    1.468   .     S
C754   O928    1.300   1_455 S
C755   C760    1.398   .     A
C755   C762    1.399   .     A
C756   O800    1.294   .     A
C756   O864    1.294   .     S
C757   C761    1.399   .     A
C757   C763    1.400   .     A
C758   C766    1.404   .     A
C758   C760    1.392   .     A
C758   H794    1.083   .     S
C759   C768    1.404   .     A
C759   C761    1.392   .     A
C759   H919    1.083   1_455 S
C760   H855    1.083   .     S
C761   H916    1.083   1_455 S
C762   H791    1.075   .     S
C762   C764    1.406   .     A
C763   H790    1.074   .     S
C763   C765    1.406   .     A
C764   C766    1.418   .     A
C764   C769    1.428   .     A
C765   C770    1.428   .     A
C765   C768    1.418   .     A
C766   C214    1.390   1_556 S
C767   C772    1.387   .     A
C767   H796    1.076   .     S
C767   C770    1.417   .     A
C769   C771    1.417   .     A
C769   C212    1.425   1_556 S
C771   H784    1.076   .     S
C771   C773    1.386   .     A
C772   H783    1.085   .     S
C773   H789    1.084   .     S
C773   C210    1.390   1_556 S
C774   H785    1.084   .     S
C774   C810    1.401   .     S
C775   H786    1.084   .     S
C775   C871    1.401   1_455 S
C775   C932    1.383   .     S
C776   F781    1.358   .     S
C776   C960    1.383   .     S
Cu779  N797    2.018   .     S
Cu779  O802    1.964   .     S
Cu779  O806    1.939   .     S
Cu779  O799    1.969   .     S
Cu779  O803    1.955   .     S
Cu779  Cu904   2.685   1_455 S
Cu780  O800    1.969   .     S
Cu780  O805    1.939   .     S
Cu780  N798    2.018   .     S
Cu780  O801    1.964   .     S
Cu780  O804    1.955   .     S
Cu780  Cu841   2.685   .     S
H792   C823    1.083   .     S
H793   C884    1.083   1_455 S
H795   C821    1.083   .     S
O801   C807    1.294   .     S
O802   C880    1.294   1_455 S
O803   C877    1.300   1_455 S
O804   C816    1.300   .     S
C807   C810    1.452   .     S
C807   O861    1.294   .     A
C808   C810    1.405   .     A
C808   F844    1.358   .     S
C809   C838    1.405   .     A
C809   C818    1.452   .     S
C809   C899    1.401   .     S
C811   C813    1.415   .     A
C811   H849    1.082   .     S
C811   N860    1.361   .     A
C812   N859    1.361   .     A
C812   H850    1.082   .     S
C812   C814    1.415   .     A
C813   Cl839   1.755   .     S
C813   N859    1.378   .     A
C814   Cl840   1.755   .     S
C814   N860    1.378   .     A
C815   C817    1.467   .     S
C815   O867    1.295   .     A
C815   O927    1.300   .     S
C816   O868    1.296   .     A
C816   C819    1.468   .     S
C817   C822    1.398   .     A
C817   C824    1.399   .     A
C818   O862    1.294   .     A
C818   O926    1.294   .     S
C819   C823    1.399   .     A
C819   C825    1.400   .     A
C820   C828    1.404   .     A
C820   C822    1.392   .     A
C820   H856    1.083   .     S
C821   C830    1.404   .     A
C821   C823    1.392   .     A
C822   H917    1.083   .     S
C824   H853    1.075   .     S
C824   C826    1.406   .     A
C825   H852    1.074   .     S
C825   C827    1.406   .     A
C826   C828    1.418   .     A
C826   C831    1.428   .     A
C827   C832    1.428   .     A
C827   C830    1.418   .     A
C828   C276    1.390   1_556 S
C829   C834    1.387   .     A
C829   H858    1.076   .     S
C829   C832    1.417   .     A
C831   C833    1.417   .     A
C831   C274    1.425   1_556 S
C833   H846    1.076   .     S
C833   C835    1.386   .     A
C834   H845    1.085   .     S
C835   H851    1.084   .     S
C835   C272    1.390   1_556 S
C836   H847    1.084   .     S
C836   C872    1.401   .     S
C837   H848    1.084   .     S
C837   C994    1.383   .     S
C838   F843    1.358   .     S
C838   C1022   1.383   .     S
Cu841  N859    2.018   .     S
Cu841  O864    1.964   .     S
Cu841  O868    1.939   .     S
Cu841  O861    1.969   .     S
Cu841  O865    1.955   .     S
Cu842  O862    1.969   .     S
Cu842  O867    1.939   .     S
Cu842  N860    2.018   .     S
Cu842  O863    1.964   .     S
Cu842  O866    1.955   .     S
Cu842  Cu903   2.685   .     S
H854   C885    1.083   .     S
H857   C883    1.083   .     S
O863   C869    1.294   .     S
O866   C878    1.300   .     S
C869   C872    1.452   .     S
C869   O923    1.294   .     A
C870   C872    1.405   .     A
C870   F906    1.358   .     S
C871   C900    1.405   .     A
C871   C880    1.452   .     S
C871   C775    1.401   1_655 S
C873   C875    1.415   .     A
C873   H911    1.082   .     S
C873   N922    1.361   .     A
C874   N921    1.361   .     A
C874   H912    1.082   .     S
C874   C876    1.415   .     A
C875   Cl901   1.755   .     S
C875   N921    1.378   .     A
C876   Cl902   1.755   .     S
C876   N922    1.378   .     A
C877   C879    1.467   .     S
C877   O929    1.295   .     A
C877   O803    1.300   1_655 S
C878   O930    1.296   .     A
C878   C881    1.468   .     S
C879   C884    1.398   .     A
C879   C886    1.399   .     A
C880   O924    1.294   .     A
C880   O802    1.294   1_655 S
C881   C885    1.399   .     A
C881   C887    1.400   .     A
C882   C890    1.404   .     A
C882   C884    1.392   .     A
C882   H918    1.083   .     S
C883   C892    1.404   .     A
C883   C885    1.392   .     A
C884   H793    1.083   1_655 S
C886   H915    1.075   .     S
C886   C888    1.406   .     A
C887   H914    1.074   .     S
C887   C889    1.406   .     A
C888   C890    1.418   .     A
C888   C893    1.428   .     A
C889   C894    1.428   .     A
C889   C892    1.418   .     A
C890   C338    1.390   1_556 S
C891   C896    1.387   .     A
C891   H920    1.076   .     S
C891   C894    1.417   .     A
C893   C895    1.417   .     A
C893   C336    1.425   1_556 S
C895   H908    1.076   .     S
C895   C897    1.386   .     A
C896   H907    1.085   .     S
C897   H913    1.084   .     S
C897   C334    1.390   1_556 S
C898   H909    1.084   .     S
C898   C748    1.401   1_655 S
C899   H910    1.084   .     S
C899   C1056   1.383   .     S
C900   F905    1.358   .     S
C900   C1084   1.383   .     S
Cu903  N921    2.018   .     S
Cu903  O926    1.964   .     S
Cu903  O930    1.939   .     S
Cu903  O923    1.969   .     S
Cu903  O927    1.955   .     S
Cu904  O924    1.969   .     S
Cu904  O929    1.939   .     S
Cu904  N922    2.018   .     S
Cu904  O925    1.964   .     S
Cu904  O928    1.955   .     S
Cu904  Cu779   2.685   1_655 S
H916   C761    1.083   1_655 S
H919   C759    1.083   1_655 S
O925   C745    1.294   1_655 S
O928   C754    1.300   1_655 S
C931   C934    1.452   .     S
C931   O985    1.294   .     A
C931   O1111   1.294   1_455 S
C932   C934    1.405   .     A
C932   F968    1.358   .     S
C933   C962    1.405   .     A
C933   C942    1.452   .     S
C933   C1023   1.401   .     S
C934   C1084   1.401   1_455 S
C935   C937    1.415   .     A
C935   H973    1.082   .     S
C935   N984    1.361   .     A
C936   N983    1.361   .     A
C936   H974    1.082   .     S
C936   C938    1.415   .     A
C937   Cl963   1.755   .     S
C937   N983    1.378   .     A
C938   Cl964   1.755   .     S
C938   N984    1.378   .     A
C939   C941    1.467   .     S
C939   O991    1.295   .     A
C939   O1051   1.300   .     S
C940   O992    1.296   .     A
C940   C943    1.468   .     S
C940   O1114   1.300   1_455 S
C941   C946    1.398   .     A
C941   C948    1.399   .     A
C942   O986    1.294   .     A
C942   O1050   1.294   .     S
C943   C947    1.399   .     A
C943   C949    1.400   .     A
C944   C952    1.404   .     A
C944   C946    1.392   .     A
C944   H980    1.083   .     S
C945   C954    1.404   .     A
C945   C947    1.392   .     A
C945   H1105   1.083   1_455 S
C946   H1041   1.083   .     S
C947   H1102   1.083   1_455 S
C948   H977    1.075   .     S
C948   C950    1.406   .     A
C949   H976    1.074   .     S
C949   C951    1.406   .     A
C950   C952    1.418   .     A
C950   C955    1.428   .     A
C951   C956    1.428   .     A
C951   C954    1.418   .     A
C952   C400    1.390   1_556 S
C953   C958    1.387   .     A
C953   H982    1.076   .     S
C953   C956    1.417   .     A
C955   C957    1.417   .     A
C955   C398    1.425   1_556 S
C957   H970    1.076   .     S
C957   C959    1.386   .     A
C958   H969    1.085   .     S
C959   H975    1.084   .     S
C959   C396    1.390   1_556 S
C960   H971    1.084   .     S
C960   C996    1.401   .     S
C961   H972    1.084   .     S
C961   C1057   1.401   1_455 S
C961   C560    1.383   1_565 S
C962   F967    1.358   .     S
C962   C588    1.383   1_565 S
Cu965  N983    2.018   .     S
Cu965  O988    1.964   .     S
Cu965  O992    1.939   .     S
Cu965  O985    1.969   .     S
Cu965  O989    1.955   .     S
Cu965  Cu1090  2.685   1_455 S
Cu966  O986    1.969   .     S
Cu966  O991    1.939   .     S
Cu966  N984    2.018   .     S
Cu966  O987    1.964   .     S
Cu966  O990    1.955   .     S
Cu966  Cu1027  2.685   .     S
H978   C1009   1.083   .     S
H979   C1070   1.083   1_455 S
H981   C1007   1.083   .     S
O987   C993    1.294   .     S
O988   C1066   1.294   1_455 S
O989   C1063   1.300   1_455 S
O990   C1002   1.300   .     S
C993   C996    1.452   .     S
C993   O1047   1.294   .     A
C994   C996    1.405   .     A
C994   F1030   1.358   .     S
C995   C1024   1.405   .     A
C995   C1004   1.452   .     S
C995   C1085   1.401   .     S
C997   C999    1.415   .     A
C997   H1035   1.082   .     S
C997   N1046   1.361   .     A
C998   N1045   1.361   .     A
C998   H1036   1.082   .     S
C998   C1000   1.415   .     A
C999   Cl1025  1.755   .     S
C999   N1045   1.378   .     A
C1000  Cl1026  1.755   .     S
C1000  N1046   1.378   .     A
C1001  C1003   1.467   .     S
C1001  O1053   1.295   .     A
C1001  O1113   1.300   .     S
C1002  O1054   1.296   .     A
C1002  C1005   1.468   .     S
C1003  C1008   1.398   .     A
C1003  C1010   1.399   .     A
C1004  O1048   1.294   .     A
C1004  O1112   1.294   .     S
C1005  C1009   1.399   .     A
C1005  C1011   1.400   .     A
C1006  C1014   1.404   .     A
C1006  C1008   1.392   .     A
C1006  H1042   1.083   .     S
C1007  C1016   1.404   .     A
C1007  C1009   1.392   .     A
C1008  H1103   1.083   .     S
C1010  H1039   1.075   .     S
C1010  C1012   1.406   .     A
C1011  H1038   1.074   .     S
C1011  C1013   1.406   .     A
C1012  C1014   1.418   .     A
C1012  C1017   1.428   .     A
C1013  C1018   1.428   .     A
C1013  C1016   1.418   .     A
C1014  C462    1.390   1_556 S
C1015  C1020   1.387   .     A
C1015  H1044   1.076   .     S
C1015  C1018   1.417   .     A
C1017  C1019   1.417   .     A
C1017  C460    1.425   1_556 S
C1019  H1032   1.076   .     S
C1019  C1021   1.386   .     A
C1020  H1031   1.085   .     S
C1021  H1037   1.084   .     S
C1021  C458    1.390   1_556 S
C1022  H1033   1.084   .     S
C1022  C1058   1.401   .     S
C1023  H1034   1.084   .     S
C1023  C622    1.383   1_565 S
C1024  F1029   1.358   .     S
C1024  C650    1.383   1_565 S
Cu1027 N1045   2.018   .     S
Cu1027 O1050   1.964   .     S
Cu1027 O1054   1.939   .     S
Cu1027 O1047   1.969   .     S
Cu1027 O1051   1.955   .     S
Cu1028 O1048   1.969   .     S
Cu1028 O1053   1.939   .     S
Cu1028 N1046   2.018   .     S
Cu1028 O1049   1.964   .     S
Cu1028 O1052   1.955   .     S
Cu1028 Cu1089  2.685   .     S
H1040  C1071   1.083   .     S
H1043  C1069   1.083   .     S
O1049  C1055   1.294   .     S
O1052  C1064   1.300   .     S
C1055  C1058   1.452   .     S
C1055  O1109   1.294   .     A
C1056  C1058   1.405   .     A
C1056  F1092   1.358   .     S
C1057  C1086   1.405   .     A
C1057  C1066   1.452   .     S
C1057  C961    1.401   1_655 S
C1059  C1061   1.415   .     A
C1059  H1097   1.082   .     S
C1059  N1108   1.361   .     A
C1060  N1107   1.361   .     A
C1060  H1098   1.082   .     S
C1060  C1062   1.415   .     A
C1061  Cl1087  1.755   .     S
C1061  N1107   1.378   .     A
C1062  Cl1088  1.755   .     S
C1062  N1108   1.378   .     A
C1063  C1065   1.467   .     S
C1063  O1115   1.295   .     A
C1063  O989    1.300   1_655 S
C1064  O1116   1.296   .     A
C1064  C1067   1.468   .     S
C1065  C1070   1.398   .     A
C1065  C1072   1.399   .     A
C1066  O1110   1.294   .     A
C1066  O988    1.294   1_655 S
C1067  C1071   1.399   .     A
C1067  C1073   1.400   .     A
C1068  C1076   1.404   .     A
C1068  C1070   1.392   .     A
C1068  H1104   1.083   .     S
C1069  C1078   1.404   .     A
C1069  C1071   1.392   .     A
C1070  H979    1.083   1_655 S
C1072  H1101   1.075   .     S
C1072  C1074   1.406   .     A
C1073  H1100   1.074   .     S
C1073  C1075   1.406   .     A
C1074  C1076   1.418   .     A
C1074  C1079   1.428   .     A
C1075  C1080   1.428   .     A
C1075  C1078   1.418   .     A
C1076  C524    1.390   1_556 S
C1077  C1082   1.387   .     A
C1077  H1106   1.076   .     S
C1077  C1080   1.417   .     A
C1079  C1081   1.417   .     A
C1079  C522    1.425   1_556 S
C1081  H1094   1.076   .     S
C1081  C1083   1.386   .     A
C1082  H1093   1.085   .     S
C1083  H1099   1.084   .     S
C1083  C520    1.390   1_556 S
C1084  H1095   1.084   .     S
C1084  C934    1.401   1_655 S
C1085  H1096   1.084   .     S
C1085  C684    1.383   1_565 S
C1086  F1091   1.358   .     S
C1086  C712    1.383   1_565 S
Cu1089 N1107   2.018   .     S
Cu1089 O1112   1.964   .     S
Cu1089 O1116   1.939   .     S
Cu1089 O1109   1.969   .     S
Cu1089 O1113   1.955   .     S
Cu1090 O1110   1.969   .     S
Cu1090 O1115   1.939   .     S
Cu1090 N1108   2.018   .     S
Cu1090 O1111   1.964   .     S
Cu1090 O1114   1.955   .     S
Cu1090 Cu965   2.685   1_655 S
H1102  C947    1.083   1_655 S
H1105  C945    1.083   1_655 S
O1111  C931    1.294   1_655 S
O1114  C940    1.300   1_655 S
