data_str_m2_o10_o16_pcu_sym.104
_audit_creation_date              2020-01-03
_audit_creation_method            'Materials Studio'
_symmetry_space_group_name_H-M    'P1'
_symmetry_Int_Tables_number       1
_symmetry_cell_setting            triclinic
loop_
_symmetry_equiv_pos_as_xyz
  x,y,z
_cell_length_a                    22.3578
_cell_length_b                    26.0764
_cell_length_c                    26.8513
_cell_angle_alpha                 94.1418
_cell_angle_beta                  78.6063
_cell_angle_gamma                 103.0122
loop_
_atom_site_label
_atom_site_type_symbol
_atom_site_fract_x
_atom_site_fract_y
_atom_site_fract_z
_atom_site_U_iso_or_equiv
_atom_site_adp_type
_atom_site_occupancy
C1     C     0.18171   0.26672   0.25163   0.00000  Uiso   1.00
C2     C     0.14146   0.13833   0.48357   0.00000  Uiso   1.00
C3     C     0.16151   0.13987   0.43012   0.00000  Uiso   1.00
C4     C     0.18699   0.15617   0.01514   0.00000  Uiso   1.00
C5     C     0.25012   0.17688   0.49249   0.00000  Uiso   1.00
C6     C     0.26886   0.17254   0.44023   0.00000  Uiso   1.00
C7     C     0.22663   0.14605   0.41086   0.00000  Uiso   1.00
C8     C     0.17222   0.15459   0.06824   0.00000  Uiso   1.00
C9     C     0.27952   0.19449   0.07507   0.00000  Uiso   1.00
C10    C     0.11613   0.13590   0.39836   0.00000  Uiso   1.00
C11    C     0.19018   0.32267   0.25249   0.00000  Uiso   1.00
C12    C     0.13353   0.15536   0.34560   0.00000  Uiso   1.00
C13    C     0.14305   0.01068   0.24783   0.00000  Uiso   1.00
C14    C     0.15159   0.06662   0.24847   0.00000  Uiso   1.00
C15    C     0.19977   0.17022   0.15320   0.00000  Uiso   1.00
C16    C     0.29530   0.19705   0.02251   0.00000  Uiso   1.00
C17    C     0.21812   0.17282   0.09802   0.00000  Uiso   1.00
C18    C     0.05376   0.11380   0.41813   0.00000  Uiso   1.00
C19    C     0.03483   0.10380   0.46970   0.00000  Uiso   1.00
C20    C     0.07719   0.11855   0.00264   0.00000  Uiso   1.00
Cu21   Cu    0.10710   0.16105   0.24435   0.00000  Uiso   1.00
Cu22   Cu    0.22623   0.17228   0.25564   0.00000  Uiso   1.00
H23    H     0.31519   0.20934   0.09770   0.00000  Uiso   1.00
H24    H     0.09760   0.32026   0.24346   0.00000  Uiso   1.00
H25    H     0.00388   0.20615   0.28965   0.00000  Uiso   1.00
H26    H     0.32942   0.12712   0.21041   0.00000  Uiso   1.00
H27    H     0.31767   0.18434   0.42298   0.00000  Uiso   1.00
H28    H     0.01009   0.21297   0.00517   0.00000  Uiso   1.00
H29    H     0.12543   0.13835   0.08738   0.00000  Uiso   1.00
H30    H     0.01944   0.10497   0.39371   0.00000  Uiso   1.00
H31    H     0.05814   0.11338   0.04249   0.00000  Uiso   1.00
H32    H     0.31953   0.08720   0.48471   0.00000  Uiso   1.00
H33    H     0.23561   0.01309   0.25691   0.00000  Uiso   1.00
N34    N     0.31574   0.18074   0.26416   0.00000  Uiso   1.00
N35    N     0.01759   0.15259   0.23584   0.00000  Uiso   1.00
O36    O     0.12797   0.23807   0.24633   0.00000  Uiso   1.00
O37    O     0.22858   0.24755   0.25586   0.00000  Uiso   1.00
O38    O     0.09181   0.15960   0.31839   0.00000  Uiso   1.00
O39    O     0.19242   0.16908   0.32793   0.00000  Uiso   1.00
O40    O     0.10476   0.08578   0.24413   0.00000  Uiso   1.00
O41    O     0.20536   0.09526   0.25367   0.00000  Uiso   1.00
O42    O     0.14092   0.16425   0.17207   0.00000  Uiso   1.00
O43    O     0.24152   0.17373   0.18160   0.00000  Uiso   1.00
O44    O     0.25048   0.11974   0.36767   0.00000  Uiso   1.00
H45    H     0.21659   0.09062   0.35928   0.00000  Uiso   1.00
C46    C     0.51504   0.26672   0.25163   0.00000  Uiso   1.00
C47    C     0.47479   0.13833   0.48357   0.00000  Uiso   1.00
C48    C     0.49484   0.13987   0.43012   0.00000  Uiso   1.00
C49    C     0.52033   0.15617   0.01514   0.00000  Uiso   1.00
C50    C     0.58346   0.17688   0.49249   0.00000  Uiso   1.00
C51    C     0.60219   0.17254   0.44023   0.00000  Uiso   1.00
C52    C     0.55997   0.14605   0.41086   0.00000  Uiso   1.00
C53    C     0.50555   0.15459   0.06824   0.00000  Uiso   1.00
C54    C     0.61286   0.19449   0.07507   0.00000  Uiso   1.00
C55    C     0.44946   0.13590   0.39836   0.00000  Uiso   1.00
C56    C     0.52351   0.32267   0.25249   0.00000  Uiso   1.00
C57    C     0.46686   0.15536   0.34560   0.00000  Uiso   1.00
C58    C     0.47639   0.01068   0.24783   0.00000  Uiso   1.00
C59    C     0.48493   0.06662   0.24847   0.00000  Uiso   1.00
C60    C     0.53310   0.17022   0.15320   0.00000  Uiso   1.00
C61    C     0.62864   0.19705   0.02251   0.00000  Uiso   1.00
C62    C     0.55145   0.17282   0.09802   0.00000  Uiso   1.00
C63    C     0.38709   0.11380   0.41813   0.00000  Uiso   1.00
C64    C     0.36817   0.10380   0.46970   0.00000  Uiso   1.00
C65    C     0.41052   0.11855   0.00264   0.00000  Uiso   1.00
Cu66   Cu    0.44043   0.16105   0.24435   0.00000  Uiso   1.00
Cu67   Cu    0.55957   0.17228   0.25564   0.00000  Uiso   1.00
H68    H     0.64852   0.20934   0.09770   0.00000  Uiso   1.00
H69    H     0.43094   0.32026   0.24346   0.00000  Uiso   1.00
H70    H     0.33721   0.20615   0.28965   0.00000  Uiso   1.00
H71    H     0.66275   0.12712   0.21041   0.00000  Uiso   1.00
H72    H     0.65101   0.18434   0.42298   0.00000  Uiso   1.00
H73    H     0.34342   0.21297   0.00517   0.00000  Uiso   1.00
H74    H     0.45876   0.13835   0.08738   0.00000  Uiso   1.00
H75    H     0.35278   0.10497   0.39371   0.00000  Uiso   1.00
H76    H     0.39147   0.11338   0.04249   0.00000  Uiso   1.00
H77    H     0.65287   0.08720   0.48471   0.00000  Uiso   1.00
H78    H     0.56895   0.01309   0.25691   0.00000  Uiso   1.00
N79    N     0.64908   0.18074   0.26416   0.00000  Uiso   1.00
N80    N     0.35092   0.15259   0.23584   0.00000  Uiso   1.00
O81    O     0.46131   0.23807   0.24633   0.00000  Uiso   1.00
O82    O     0.56191   0.24755   0.25586   0.00000  Uiso   1.00
O83    O     0.42515   0.15960   0.31839   0.00000  Uiso   1.00
O84    O     0.52575   0.16908   0.32793   0.00000  Uiso   1.00
O85    O     0.43809   0.08578   0.24413   0.00000  Uiso   1.00
O86    O     0.53869   0.09526   0.25367   0.00000  Uiso   1.00
O87    O     0.47425   0.16425   0.17207   0.00000  Uiso   1.00
O88    O     0.57485   0.17373   0.18160   0.00000  Uiso   1.00
O89    O     0.58381   0.11974   0.36767   0.00000  Uiso   1.00
H90    H     0.54992   0.09062   0.35928   0.00000  Uiso   1.00
C91    C     0.84838   0.26672   0.25163   0.00000  Uiso   1.00
C92    C     0.80812   0.13833   0.48357   0.00000  Uiso   1.00
C93    C     0.82817   0.13987   0.43012   0.00000  Uiso   1.00
C94    C     0.85366   0.15617   0.01514   0.00000  Uiso   1.00
C95    C     0.91679   0.17688   0.49249   0.00000  Uiso   1.00
C96    C     0.93552   0.17254   0.44023   0.00000  Uiso   1.00
C97    C     0.89330   0.14605   0.41086   0.00000  Uiso   1.00
C98    C     0.83888   0.15459   0.06824   0.00000  Uiso   1.00
C99    C     0.94619   0.19449   0.07507   0.00000  Uiso   1.00
C100   C     0.78279   0.13590   0.39836   0.00000  Uiso   1.00
C101   C     0.85685   0.32267   0.25249   0.00000  Uiso   1.00
C102   C     0.80019   0.15536   0.34560   0.00000  Uiso   1.00
C103   C     0.80972   0.01068   0.24783   0.00000  Uiso   1.00
C104   C     0.81826   0.06662   0.24847   0.00000  Uiso   1.00
C105   C     0.86644   0.17022   0.15320   0.00000  Uiso   1.00
C106   C     0.96197   0.19705   0.02251   0.00000  Uiso   1.00
C107   C     0.88478   0.17282   0.09802   0.00000  Uiso   1.00
C108   C     0.72042   0.11380   0.41813   0.00000  Uiso   1.00
C109   C     0.70150   0.10380   0.46970   0.00000  Uiso   1.00
C110   C     0.74386   0.11855   0.00264   0.00000  Uiso   1.00
Cu111  Cu    0.77377   0.16105   0.24435   0.00000  Uiso   1.00
Cu112  Cu    0.89290   0.17228   0.25564   0.00000  Uiso   1.00
H113   H     0.98186   0.20934   0.09770   0.00000  Uiso   1.00
H114   H     0.76427   0.32026   0.24346   0.00000  Uiso   1.00
H115   H     0.67054   0.20615   0.28965   0.00000  Uiso   1.00
H116   H     0.99608   0.12712   0.21041   0.00000  Uiso   1.00
H117   H     0.98434   0.18434   0.42298   0.00000  Uiso   1.00
H118   H     0.67675   0.21297   0.00517   0.00000  Uiso   1.00
H119   H     0.79210   0.13835   0.08738   0.00000  Uiso   1.00
H120   H     0.68611   0.10497   0.39371   0.00000  Uiso   1.00
H121   H     0.72480   0.11338   0.04249   0.00000  Uiso   1.00
H122   H     0.98620   0.08720   0.48471   0.00000  Uiso   1.00
H123   H     0.90228   0.01309   0.25691   0.00000  Uiso   1.00
N124   N     0.98241   0.18074   0.26416   0.00000  Uiso   1.00
N125   N     0.68426   0.15259   0.23584   0.00000  Uiso   1.00
O126   O     0.79464   0.23807   0.24633   0.00000  Uiso   1.00
O127   O     0.89524   0.24755   0.25586   0.00000  Uiso   1.00
O128   O     0.75848   0.15960   0.31839   0.00000  Uiso   1.00
O129   O     0.85908   0.16908   0.32793   0.00000  Uiso   1.00
O130   O     0.77142   0.08578   0.24413   0.00000  Uiso   1.00
O131   O     0.87203   0.09526   0.25367   0.00000  Uiso   1.00
O132   O     0.80758   0.16425   0.17207   0.00000  Uiso   1.00
O133   O     0.90819   0.17373   0.18160   0.00000  Uiso   1.00
O134   O     0.91715   0.11974   0.36767   0.00000  Uiso   1.00
H135   H     0.88325   0.09062   0.35928   0.00000  Uiso   1.00
C136   C     0.18171   0.60005   0.25163   0.00000  Uiso   1.00
C137   C     0.14146   0.47167   0.48357   0.00000  Uiso   1.00
C138   C     0.16151   0.47320   0.43012   0.00000  Uiso   1.00
C139   C     0.18699   0.48951   0.01514   0.00000  Uiso   1.00
C140   C     0.25012   0.51022   0.49249   0.00000  Uiso   1.00
C141   C     0.26886   0.50587   0.44023   0.00000  Uiso   1.00
C142   C     0.22663   0.47939   0.41086   0.00000  Uiso   1.00
C143   C     0.17222   0.48792   0.06824   0.00000  Uiso   1.00
C144   C     0.27952   0.52782   0.07507   0.00000  Uiso   1.00
C145   C     0.11613   0.46924   0.39836   0.00000  Uiso   1.00
C146   C     0.19018   0.65600   0.25249   0.00000  Uiso   1.00
C147   C     0.13353   0.48869   0.34560   0.00000  Uiso   1.00
C148   C     0.14305   0.34401   0.24783   0.00000  Uiso   1.00
C149   C     0.15159   0.39995   0.24847   0.00000  Uiso   1.00
C150   C     0.19977   0.50355   0.15320   0.00000  Uiso   1.00
C151   C     0.29530   0.53038   0.02251   0.00000  Uiso   1.00
C152   C     0.21812   0.50615   0.09802   0.00000  Uiso   1.00
C153   C     0.05376   0.44714   0.41813   0.00000  Uiso   1.00
C154   C     0.03483   0.43714   0.46970   0.00000  Uiso   1.00
C155   C     0.07719   0.45188   0.00264   0.00000  Uiso   1.00
Cu156  Cu    0.10710   0.49439   0.24435   0.00000  Uiso   1.00
Cu157  Cu    0.22623   0.50561   0.25564   0.00000  Uiso   1.00
H158   H     0.31519   0.54268   0.09770   0.00000  Uiso   1.00
H159   H     0.09760   0.65360   0.24346   0.00000  Uiso   1.00
H160   H     0.00388   0.53948   0.28965   0.00000  Uiso   1.00
H161   H     0.32942   0.46045   0.21041   0.00000  Uiso   1.00
H162   H     0.31767   0.51767   0.42298   0.00000  Uiso   1.00
H163   H     0.01009   0.54631   0.00517   0.00000  Uiso   1.00
H164   H     0.12543   0.47168   0.08738   0.00000  Uiso   1.00
H165   H     0.01944   0.43830   0.39371   0.00000  Uiso   1.00
H166   H     0.05814   0.44672   0.04249   0.00000  Uiso   1.00
H167   H     0.31953   0.42053   0.48471   0.00000  Uiso   1.00
H168   H     0.23561   0.34642   0.25691   0.00000  Uiso   1.00
N169   N     0.31574   0.51407   0.26416   0.00000  Uiso   1.00
N170   N     0.01759   0.48593   0.23584   0.00000  Uiso   1.00
O171   O     0.12797   0.57141   0.24633   0.00000  Uiso   1.00
O172   O     0.22858   0.58089   0.25586   0.00000  Uiso   1.00
O173   O     0.09181   0.49293   0.31839   0.00000  Uiso   1.00
O174   O     0.19242   0.50241   0.32793   0.00000  Uiso   1.00
O175   O     0.10476   0.41911   0.24413   0.00000  Uiso   1.00
O176   O     0.20536   0.42859   0.25367   0.00000  Uiso   1.00
O177   O     0.14092   0.49759   0.17207   0.00000  Uiso   1.00
O178   O     0.24152   0.50707   0.18160   0.00000  Uiso   1.00
O179   O     0.25048   0.45307   0.36767   0.00000  Uiso   1.00
H180   H     0.21659   0.42395   0.35928   0.00000  Uiso   1.00
C181   C     0.51504   0.60005   0.25163   0.00000  Uiso   1.00
C182   C     0.47479   0.47167   0.48357   0.00000  Uiso   1.00
C183   C     0.49484   0.47320   0.43012   0.00000  Uiso   1.00
C184   C     0.52033   0.48951   0.01514   0.00000  Uiso   1.00
C185   C     0.58346   0.51022   0.49249   0.00000  Uiso   1.00
C186   C     0.60219   0.50587   0.44023   0.00000  Uiso   1.00
C187   C     0.55997   0.47939   0.41086   0.00000  Uiso   1.00
C188   C     0.50555   0.48792   0.06824   0.00000  Uiso   1.00
C189   C     0.61286   0.52782   0.07507   0.00000  Uiso   1.00
C190   C     0.44946   0.46924   0.39836   0.00000  Uiso   1.00
C191   C     0.52351   0.65600   0.25249   0.00000  Uiso   1.00
C192   C     0.46686   0.48869   0.34560   0.00000  Uiso   1.00
C193   C     0.47639   0.34401   0.24783   0.00000  Uiso   1.00
C194   C     0.48493   0.39995   0.24847   0.00000  Uiso   1.00
C195   C     0.53310   0.50355   0.15320   0.00000  Uiso   1.00
C196   C     0.62864   0.53038   0.02251   0.00000  Uiso   1.00
C197   C     0.55145   0.50615   0.09802   0.00000  Uiso   1.00
C198   C     0.38709   0.44714   0.41813   0.00000  Uiso   1.00
C199   C     0.36817   0.43714   0.46970   0.00000  Uiso   1.00
C200   C     0.41052   0.45188   0.00264   0.00000  Uiso   1.00
Cu201  Cu    0.44043   0.49439   0.24435   0.00000  Uiso   1.00
Cu202  Cu    0.55957   0.50561   0.25564   0.00000  Uiso   1.00
H203   H     0.64852   0.54268   0.09770   0.00000  Uiso   1.00
H204   H     0.43094   0.65360   0.24346   0.00000  Uiso   1.00
H205   H     0.33721   0.53948   0.28965   0.00000  Uiso   1.00
H206   H     0.66275   0.46045   0.21041   0.00000  Uiso   1.00
H207   H     0.65101   0.51767   0.42298   0.00000  Uiso   1.00
H208   H     0.34342   0.54631   0.00517   0.00000  Uiso   1.00
H209   H     0.45876   0.47168   0.08738   0.00000  Uiso   1.00
H210   H     0.35278   0.43830   0.39371   0.00000  Uiso   1.00
H211   H     0.39147   0.44672   0.04249   0.00000  Uiso   1.00
H212   H     0.65287   0.42053   0.48471   0.00000  Uiso   1.00
H213   H     0.56895   0.34642   0.25691   0.00000  Uiso   1.00
N214   N     0.64908   0.51407   0.26416   0.00000  Uiso   1.00
N215   N     0.35092   0.48593   0.23584   0.00000  Uiso   1.00
O216   O     0.46131   0.57141   0.24633   0.00000  Uiso   1.00
O217   O     0.56191   0.58089   0.25586   0.00000  Uiso   1.00
O218   O     0.42515   0.49293   0.31839   0.00000  Uiso   1.00
O219   O     0.52575   0.50241   0.32793   0.00000  Uiso   1.00
O220   O     0.43809   0.41911   0.24413   0.00000  Uiso   1.00
O221   O     0.53869   0.42859   0.25367   0.00000  Uiso   1.00
O222   O     0.47425   0.49759   0.17207   0.00000  Uiso   1.00
O223   O     0.57485   0.50707   0.18160   0.00000  Uiso   1.00
O224   O     0.58381   0.45307   0.36767   0.00000  Uiso   1.00
H225   H     0.54992   0.42395   0.35928   0.00000  Uiso   1.00
C226   C     0.84838   0.60005   0.25163   0.00000  Uiso   1.00
C227   C     0.80812   0.47167   0.48357   0.00000  Uiso   1.00
C228   C     0.82817   0.47320   0.43012   0.00000  Uiso   1.00
C229   C     0.85366   0.48951   0.01514   0.00000  Uiso   1.00
C230   C     0.91679   0.51022   0.49249   0.00000  Uiso   1.00
C231   C     0.93552   0.50587   0.44023   0.00000  Uiso   1.00
C232   C     0.89330   0.47939   0.41086   0.00000  Uiso   1.00
C233   C     0.83888   0.48792   0.06824   0.00000  Uiso   1.00
C234   C     0.94619   0.52782   0.07507   0.00000  Uiso   1.00
C235   C     0.78279   0.46924   0.39836   0.00000  Uiso   1.00
C236   C     0.85685   0.65600   0.25249   0.00000  Uiso   1.00
C237   C     0.80019   0.48869   0.34560   0.00000  Uiso   1.00
C238   C     0.80972   0.34401   0.24783   0.00000  Uiso   1.00
C239   C     0.81826   0.39995   0.24847   0.00000  Uiso   1.00
C240   C     0.86644   0.50355   0.15320   0.00000  Uiso   1.00
C241   C     0.96197   0.53038   0.02251   0.00000  Uiso   1.00
C242   C     0.88478   0.50615   0.09802   0.00000  Uiso   1.00
C243   C     0.72042   0.44714   0.41813   0.00000  Uiso   1.00
C244   C     0.70150   0.43714   0.46970   0.00000  Uiso   1.00
C245   C     0.74386   0.45188   0.00264   0.00000  Uiso   1.00
Cu246  Cu    0.77377   0.49439   0.24435   0.00000  Uiso   1.00
Cu247  Cu    0.89290   0.50561   0.25564   0.00000  Uiso   1.00
H248   H     0.98186   0.54268   0.09770   0.00000  Uiso   1.00
H249   H     0.76427   0.65360   0.24346   0.00000  Uiso   1.00
H250   H     0.67054   0.53948   0.28965   0.00000  Uiso   1.00
H251   H     0.99608   0.46045   0.21041   0.00000  Uiso   1.00
H252   H     0.98434   0.51767   0.42298   0.00000  Uiso   1.00
H253   H     0.67675   0.54631   0.00517   0.00000  Uiso   1.00
H254   H     0.79210   0.47168   0.08738   0.00000  Uiso   1.00
H255   H     0.68611   0.43830   0.39371   0.00000  Uiso   1.00
H256   H     0.72480   0.44672   0.04249   0.00000  Uiso   1.00
H257   H     0.98620   0.42053   0.48471   0.00000  Uiso   1.00
H258   H     0.90228   0.34642   0.25691   0.00000  Uiso   1.00
N259   N     0.98241   0.51407   0.26416   0.00000  Uiso   1.00
N260   N     0.68426   0.48593   0.23584   0.00000  Uiso   1.00
O261   O     0.79464   0.57141   0.24633   0.00000  Uiso   1.00
O262   O     0.89524   0.58089   0.25586   0.00000  Uiso   1.00
O263   O     0.75848   0.49293   0.31839   0.00000  Uiso   1.00
O264   O     0.85908   0.50241   0.32793   0.00000  Uiso   1.00
O265   O     0.77142   0.41911   0.24413   0.00000  Uiso   1.00
O266   O     0.87203   0.42859   0.25367   0.00000  Uiso   1.00
O267   O     0.80758   0.49759   0.17207   0.00000  Uiso   1.00
O268   O     0.90819   0.50707   0.18160   0.00000  Uiso   1.00
O269   O     0.91715   0.45307   0.36767   0.00000  Uiso   1.00
H270   H     0.88325   0.42395   0.35928   0.00000  Uiso   1.00
C271   C     0.18171   0.93338   0.25163   0.00000  Uiso   1.00
C272   C     0.14146   0.80500   0.48357   0.00000  Uiso   1.00
C273   C     0.16151   0.80654   0.43012   0.00000  Uiso   1.00
C274   C     0.18699   0.82284   0.01514   0.00000  Uiso   1.00
C275   C     0.25012   0.84355   0.49249   0.00000  Uiso   1.00
C276   C     0.26886   0.83921   0.44023   0.00000  Uiso   1.00
C277   C     0.22663   0.81272   0.41086   0.00000  Uiso   1.00
C278   C     0.17222   0.82125   0.06824   0.00000  Uiso   1.00
C279   C     0.27952   0.86115   0.07507   0.00000  Uiso   1.00
C280   C     0.11613   0.80257   0.39836   0.00000  Uiso   1.00
C281   C     0.19018   0.98933   0.25249   0.00000  Uiso   1.00
C282   C     0.13353   0.82202   0.34560   0.00000  Uiso   1.00
C283   C     0.14305   0.67734   0.24783   0.00000  Uiso   1.00
C284   C     0.15159   0.73328   0.24847   0.00000  Uiso   1.00
C285   C     0.19977   0.83688   0.15320   0.00000  Uiso   1.00
C286   C     0.29530   0.86372   0.02251   0.00000  Uiso   1.00
C287   C     0.21812   0.83949   0.09802   0.00000  Uiso   1.00
C288   C     0.05376   0.78047   0.41813   0.00000  Uiso   1.00
C289   C     0.03483   0.77047   0.46970   0.00000  Uiso   1.00
C290   C     0.07719   0.78522   0.00264   0.00000  Uiso   1.00
Cu291  Cu    0.10710   0.82772   0.24435   0.00000  Uiso   1.00
Cu292  Cu    0.22623   0.83895   0.25564   0.00000  Uiso   1.00
H293   H     0.31519   0.87601   0.09770   0.00000  Uiso   1.00
H294   H     0.09760   0.98693   0.24346   0.00000  Uiso   1.00
H295   H     0.00388   0.87282   0.28965   0.00000  Uiso   1.00
H296   H     0.32942   0.79379   0.21041   0.00000  Uiso   1.00
H297   H     0.31767   0.85101   0.42298   0.00000  Uiso   1.00
H298   H     0.01009   0.87964   0.00517   0.00000  Uiso   1.00
H299   H     0.12543   0.80502   0.08738   0.00000  Uiso   1.00
H300   H     0.01944   0.77163   0.39371   0.00000  Uiso   1.00
H301   H     0.05814   0.78005   0.04249   0.00000  Uiso   1.00
H302   H     0.31953   0.75387   0.48471   0.00000  Uiso   1.00
H303   H     0.23561   0.67975   0.25691   0.00000  Uiso   1.00
N304   N     0.31574   0.84741   0.26416   0.00000  Uiso   1.00
N305   N     0.01759   0.81926   0.23584   0.00000  Uiso   1.00
O306   O     0.12797   0.90474   0.24633   0.00000  Uiso   1.00
O307   O     0.22858   0.91422   0.25586   0.00000  Uiso   1.00
O308   O     0.09181   0.82627   0.31839   0.00000  Uiso   1.00
O309   O     0.19242   0.83575   0.32793   0.00000  Uiso   1.00
O310   O     0.10476   0.75245   0.24413   0.00000  Uiso   1.00
O311   O     0.20536   0.76193   0.25367   0.00000  Uiso   1.00
O312   O     0.14092   0.83092   0.17207   0.00000  Uiso   1.00
O313   O     0.24152   0.84040   0.18160   0.00000  Uiso   1.00
O314   O     0.25048   0.78640   0.36767   0.00000  Uiso   1.00
H315   H     0.21659   0.75728   0.35928   0.00000  Uiso   1.00
C316   C     0.51504   0.93338   0.25163   0.00000  Uiso   1.00
C317   C     0.47479   0.80500   0.48357   0.00000  Uiso   1.00
C318   C     0.49484   0.80654   0.43012   0.00000  Uiso   1.00
C319   C     0.52033   0.82284   0.01514   0.00000  Uiso   1.00
C320   C     0.58346   0.84355   0.49249   0.00000  Uiso   1.00
C321   C     0.60219   0.83921   0.44023   0.00000  Uiso   1.00
C322   C     0.55997   0.81272   0.41086   0.00000  Uiso   1.00
C323   C     0.50555   0.82125   0.06824   0.00000  Uiso   1.00
C324   C     0.61286   0.86115   0.07507   0.00000  Uiso   1.00
C325   C     0.44946   0.80257   0.39836   0.00000  Uiso   1.00
C326   C     0.52351   0.98933   0.25249   0.00000  Uiso   1.00
C327   C     0.46686   0.82202   0.34560   0.00000  Uiso   1.00
C328   C     0.47639   0.67734   0.24783   0.00000  Uiso   1.00
C329   C     0.48493   0.73328   0.24847   0.00000  Uiso   1.00
C330   C     0.53310   0.83688   0.15320   0.00000  Uiso   1.00
C331   C     0.62864   0.86372   0.02251   0.00000  Uiso   1.00
C332   C     0.55145   0.83949   0.09802   0.00000  Uiso   1.00
C333   C     0.38709   0.78047   0.41813   0.00000  Uiso   1.00
C334   C     0.36817   0.77047   0.46970   0.00000  Uiso   1.00
C335   C     0.41052   0.78522   0.00264   0.00000  Uiso   1.00
Cu336  Cu    0.44043   0.82772   0.24435   0.00000  Uiso   1.00
Cu337  Cu    0.55957   0.83895   0.25564   0.00000  Uiso   1.00
H338   H     0.64852   0.87601   0.09770   0.00000  Uiso   1.00
H339   H     0.43094   0.98693   0.24346   0.00000  Uiso   1.00
H340   H     0.33721   0.87282   0.28965   0.00000  Uiso   1.00
H341   H     0.66275   0.79379   0.21041   0.00000  Uiso   1.00
H342   H     0.65101   0.85101   0.42298   0.00000  Uiso   1.00
H343   H     0.34342   0.87964   0.00517   0.00000  Uiso   1.00
H344   H     0.45876   0.80502   0.08738   0.00000  Uiso   1.00
H345   H     0.35278   0.77163   0.39371   0.00000  Uiso   1.00
H346   H     0.39147   0.78005   0.04249   0.00000  Uiso   1.00
H347   H     0.65287   0.75387   0.48471   0.00000  Uiso   1.00
H348   H     0.56895   0.67975   0.25691   0.00000  Uiso   1.00
N349   N     0.64908   0.84741   0.26416   0.00000  Uiso   1.00
N350   N     0.35092   0.81926   0.23584   0.00000  Uiso   1.00
O351   O     0.46131   0.90474   0.24633   0.00000  Uiso   1.00
O352   O     0.56191   0.91422   0.25586   0.00000  Uiso   1.00
O353   O     0.42515   0.82627   0.31839   0.00000  Uiso   1.00
O354   O     0.52575   0.83575   0.32793   0.00000  Uiso   1.00
O355   O     0.43809   0.75245   0.24413   0.00000  Uiso   1.00
O356   O     0.53869   0.76193   0.25367   0.00000  Uiso   1.00
O357   O     0.47425   0.83092   0.17207   0.00000  Uiso   1.00
O358   O     0.57485   0.84040   0.18160   0.00000  Uiso   1.00
O359   O     0.58381   0.78640   0.36767   0.00000  Uiso   1.00
H360   H     0.54992   0.75728   0.35928   0.00000  Uiso   1.00
C361   C     0.84838   0.93338   0.25163   0.00000  Uiso   1.00
C362   C     0.80812   0.80500   0.48357   0.00000  Uiso   1.00
C363   C     0.82817   0.80654   0.43012   0.00000  Uiso   1.00
C364   C     0.85366   0.82284   0.01514   0.00000  Uiso   1.00
C365   C     0.91679   0.84355   0.49249   0.00000  Uiso   1.00
C366   C     0.93552   0.83921   0.44023   0.00000  Uiso   1.00
C367   C     0.89330   0.81272   0.41086   0.00000  Uiso   1.00
C368   C     0.83888   0.82125   0.06824   0.00000  Uiso   1.00
C369   C     0.94619   0.86115   0.07507   0.00000  Uiso   1.00
C370   C     0.78279   0.80257   0.39836   0.00000  Uiso   1.00
C371   C     0.85685   0.98933   0.25249   0.00000  Uiso   1.00
C372   C     0.80019   0.82202   0.34560   0.00000  Uiso   1.00
C373   C     0.80972   0.67734   0.24783   0.00000  Uiso   1.00
C374   C     0.81826   0.73328   0.24847   0.00000  Uiso   1.00
C375   C     0.86644   0.83688   0.15320   0.00000  Uiso   1.00
C376   C     0.96197   0.86372   0.02251   0.00000  Uiso   1.00
C377   C     0.88478   0.83949   0.09802   0.00000  Uiso   1.00
C378   C     0.72042   0.78047   0.41813   0.00000  Uiso   1.00
C379   C     0.70150   0.77047   0.46970   0.00000  Uiso   1.00
C380   C     0.74386   0.78522   0.00264   0.00000  Uiso   1.00
Cu381  Cu    0.77377   0.82772   0.24435   0.00000  Uiso   1.00
Cu382  Cu    0.89290   0.83895   0.25564   0.00000  Uiso   1.00
H383   H     0.98186   0.87601   0.09770   0.00000  Uiso   1.00
H384   H     0.76427   0.98693   0.24346   0.00000  Uiso   1.00
H385   H     0.67054   0.87282   0.28965   0.00000  Uiso   1.00
H386   H     0.99608   0.79379   0.21041   0.00000  Uiso   1.00
H387   H     0.98434   0.85101   0.42298   0.00000  Uiso   1.00
H388   H     0.67675   0.87964   0.00517   0.00000  Uiso   1.00
H389   H     0.79210   0.80502   0.08738   0.00000  Uiso   1.00
H390   H     0.68611   0.77163   0.39371   0.00000  Uiso   1.00
H391   H     0.72480   0.78005   0.04249   0.00000  Uiso   1.00
H392   H     0.98620   0.75387   0.48471   0.00000  Uiso   1.00
H393   H     0.90228   0.67975   0.25691   0.00000  Uiso   1.00
N394   N     0.98241   0.84741   0.26416   0.00000  Uiso   1.00
N395   N     0.68426   0.81926   0.23584   0.00000  Uiso   1.00
O396   O     0.79464   0.90474   0.24633   0.00000  Uiso   1.00
O397   O     0.89524   0.91422   0.25586   0.00000  Uiso   1.00
O398   O     0.75848   0.82627   0.31839   0.00000  Uiso   1.00
O399   O     0.85908   0.83575   0.32793   0.00000  Uiso   1.00
O400   O     0.77142   0.75245   0.24413   0.00000  Uiso   1.00
O401   O     0.87203   0.76193   0.25367   0.00000  Uiso   1.00
O402   O     0.80758   0.83092   0.17207   0.00000  Uiso   1.00
O403   O     0.90819   0.84040   0.18160   0.00000  Uiso   1.00
O404   O     0.91715   0.78640   0.36767   0.00000  Uiso   1.00
H405   H     0.88325   0.75728   0.35928   0.00000  Uiso   1.00
C406   C     0.18171   0.26672   0.75163   0.00000  Uiso   1.00
C407   C     0.14146   0.13833   0.98357   0.00000  Uiso   1.00
C408   C     0.16151   0.13987   0.93012   0.00000  Uiso   1.00
C409   C     0.18699   0.15617   0.51514   0.00000  Uiso   1.00
C410   C     0.25012   0.17688   0.99249   0.00000  Uiso   1.00
C411   C     0.26886   0.17254   0.94023   0.00000  Uiso   1.00
C412   C     0.22663   0.14605   0.91086   0.00000  Uiso   1.00
C413   C     0.17222   0.15459   0.56824   0.00000  Uiso   1.00
C414   C     0.27952   0.19449   0.57507   0.00000  Uiso   1.00
C415   C     0.11613   0.13590   0.89836   0.00000  Uiso   1.00
C416   C     0.19018   0.32267   0.75249   0.00000  Uiso   1.00
C417   C     0.13353   0.15536   0.84560   0.00000  Uiso   1.00
C418   C     0.14305   0.01068   0.74783   0.00000  Uiso   1.00
C419   C     0.15159   0.06662   0.74847   0.00000  Uiso   1.00
C420   C     0.19977   0.17022   0.65320   0.00000  Uiso   1.00
C421   C     0.29530   0.19705   0.52251   0.00000  Uiso   1.00
C422   C     0.21812   0.17282   0.59802   0.00000  Uiso   1.00
C423   C     0.05376   0.11380   0.91813   0.00000  Uiso   1.00
C424   C     0.03483   0.10380   0.96970   0.00000  Uiso   1.00
C425   C     0.07719   0.11855   0.50264   0.00000  Uiso   1.00
Cu426  Cu    0.10710   0.16105   0.74435   0.00000  Uiso   1.00
Cu427  Cu    0.22623   0.17228   0.75564   0.00000  Uiso   1.00
H428   H     0.31519   0.20934   0.59770   0.00000  Uiso   1.00
H429   H     0.09760   0.32026   0.74346   0.00000  Uiso   1.00
H430   H     0.00388   0.20615   0.78965   0.00000  Uiso   1.00
H431   H     0.32942   0.12712   0.71041   0.00000  Uiso   1.00
H432   H     0.31767   0.18434   0.92298   0.00000  Uiso   1.00
H433   H     0.01009   0.21297   0.50517   0.00000  Uiso   1.00
H434   H     0.12543   0.13835   0.58738   0.00000  Uiso   1.00
H435   H     0.01944   0.10497   0.89371   0.00000  Uiso   1.00
H436   H     0.05814   0.11338   0.54249   0.00000  Uiso   1.00
H437   H     0.31953   0.08720   0.98471   0.00000  Uiso   1.00
H438   H     0.23561   0.01309   0.75691   0.00000  Uiso   1.00
N439   N     0.31574   0.18074   0.76416   0.00000  Uiso   1.00
N440   N     0.01759   0.15259   0.73584   0.00000  Uiso   1.00
O441   O     0.12797   0.23807   0.74633   0.00000  Uiso   1.00
O442   O     0.22858   0.24755   0.75586   0.00000  Uiso   1.00
O443   O     0.09181   0.15960   0.81839   0.00000  Uiso   1.00
O444   O     0.19242   0.16908   0.82793   0.00000  Uiso   1.00
O445   O     0.10476   0.08578   0.74413   0.00000  Uiso   1.00
O446   O     0.20536   0.09526   0.75367   0.00000  Uiso   1.00
O447   O     0.14092   0.16425   0.67207   0.00000  Uiso   1.00
O448   O     0.24152   0.17373   0.68160   0.00000  Uiso   1.00
O449   O     0.25048   0.11974   0.86767   0.00000  Uiso   1.00
H450   H     0.21659   0.09062   0.85928   0.00000  Uiso   1.00
C451   C     0.51504   0.26672   0.75163   0.00000  Uiso   1.00
C452   C     0.47479   0.13833   0.98357   0.00000  Uiso   1.00
C453   C     0.49484   0.13987   0.93012   0.00000  Uiso   1.00
C454   C     0.52033   0.15617   0.51514   0.00000  Uiso   1.00
C455   C     0.58346   0.17688   0.99249   0.00000  Uiso   1.00
C456   C     0.60219   0.17254   0.94023   0.00000  Uiso   1.00
C457   C     0.55997   0.14605   0.91086   0.00000  Uiso   1.00
C458   C     0.50555   0.15459   0.56824   0.00000  Uiso   1.00
C459   C     0.61286   0.19449   0.57507   0.00000  Uiso   1.00
C460   C     0.44946   0.13590   0.89836   0.00000  Uiso   1.00
C461   C     0.52351   0.32267   0.75249   0.00000  Uiso   1.00
C462   C     0.46686   0.15536   0.84560   0.00000  Uiso   1.00
C463   C     0.47639   0.01068   0.74783   0.00000  Uiso   1.00
C464   C     0.48493   0.06662   0.74847   0.00000  Uiso   1.00
C465   C     0.53310   0.17022   0.65320   0.00000  Uiso   1.00
C466   C     0.62864   0.19705   0.52251   0.00000  Uiso   1.00
C467   C     0.55145   0.17282   0.59802   0.00000  Uiso   1.00
C468   C     0.38709   0.11380   0.91813   0.00000  Uiso   1.00
C469   C     0.36817   0.10380   0.96970   0.00000  Uiso   1.00
C470   C     0.41052   0.11855   0.50264   0.00000  Uiso   1.00
Cu471  Cu    0.44043   0.16105   0.74435   0.00000  Uiso   1.00
Cu472  Cu    0.55957   0.17228   0.75564   0.00000  Uiso   1.00
H473   H     0.64852   0.20934   0.59770   0.00000  Uiso   1.00
H474   H     0.43094   0.32026   0.74346   0.00000  Uiso   1.00
H475   H     0.33721   0.20615   0.78965   0.00000  Uiso   1.00
H476   H     0.66275   0.12712   0.71041   0.00000  Uiso   1.00
H477   H     0.65101   0.18434   0.92298   0.00000  Uiso   1.00
H478   H     0.34342   0.21297   0.50517   0.00000  Uiso   1.00
H479   H     0.45876   0.13835   0.58738   0.00000  Uiso   1.00
H480   H     0.35278   0.10497   0.89371   0.00000  Uiso   1.00
H481   H     0.39147   0.11338   0.54249   0.00000  Uiso   1.00
H482   H     0.65287   0.08720   0.98471   0.00000  Uiso   1.00
H483   H     0.56895   0.01309   0.75691   0.00000  Uiso   1.00
N484   N     0.64908   0.18074   0.76416   0.00000  Uiso   1.00
N485   N     0.35092   0.15259   0.73584   0.00000  Uiso   1.00
O486   O     0.46131   0.23807   0.74633   0.00000  Uiso   1.00
O487   O     0.56191   0.24755   0.75586   0.00000  Uiso   1.00
O488   O     0.42515   0.15960   0.81839   0.00000  Uiso   1.00
O489   O     0.52575   0.16908   0.82793   0.00000  Uiso   1.00
O490   O     0.43809   0.08578   0.74413   0.00000  Uiso   1.00
O491   O     0.53869   0.09526   0.75367   0.00000  Uiso   1.00
O492   O     0.47425   0.16425   0.67207   0.00000  Uiso   1.00
O493   O     0.57485   0.17373   0.68160   0.00000  Uiso   1.00
O494   O     0.58381   0.11974   0.86767   0.00000  Uiso   1.00
H495   H     0.54992   0.09062   0.85928   0.00000  Uiso   1.00
C496   C     0.84838   0.26672   0.75163   0.00000  Uiso   1.00
C497   C     0.80812   0.13833   0.98357   0.00000  Uiso   1.00
C498   C     0.82817   0.13987   0.93012   0.00000  Uiso   1.00
C499   C     0.85366   0.15617   0.51514   0.00000  Uiso   1.00
C500   C     0.91679   0.17688   0.99249   0.00000  Uiso   1.00
C501   C     0.93552   0.17254   0.94023   0.00000  Uiso   1.00
C502   C     0.89330   0.14605   0.91086   0.00000  Uiso   1.00
C503   C     0.83888   0.15459   0.56824   0.00000  Uiso   1.00
C504   C     0.94619   0.19449   0.57507   0.00000  Uiso   1.00
C505   C     0.78279   0.13590   0.89836   0.00000  Uiso   1.00
C506   C     0.85685   0.32267   0.75249   0.00000  Uiso   1.00
C507   C     0.80019   0.15536   0.84560   0.00000  Uiso   1.00
C508   C     0.80972   0.01068   0.74783   0.00000  Uiso   1.00
C509   C     0.81826   0.06662   0.74847   0.00000  Uiso   1.00
C510   C     0.86644   0.17022   0.65320   0.00000  Uiso   1.00
C511   C     0.96197   0.19705   0.52251   0.00000  Uiso   1.00
C512   C     0.88478   0.17282   0.59802   0.00000  Uiso   1.00
C513   C     0.72042   0.11380   0.91813   0.00000  Uiso   1.00
C514   C     0.70150   0.10380   0.96970   0.00000  Uiso   1.00
C515   C     0.74386   0.11855   0.50264   0.00000  Uiso   1.00
Cu516  Cu    0.77377   0.16105   0.74435   0.00000  Uiso   1.00
Cu517  Cu    0.89290   0.17228   0.75564   0.00000  Uiso   1.00
H518   H     0.98186   0.20934   0.59770   0.00000  Uiso   1.00
H519   H     0.76427   0.32026   0.74346   0.00000  Uiso   1.00
H520   H     0.67054   0.20615   0.78965   0.00000  Uiso   1.00
H521   H     0.99608   0.12712   0.71041   0.00000  Uiso   1.00
H522   H     0.98434   0.18434   0.92298   0.00000  Uiso   1.00
H523   H     0.67675   0.21297   0.50517   0.00000  Uiso   1.00
H524   H     0.79210   0.13835   0.58738   0.00000  Uiso   1.00
H525   H     0.68611   0.10497   0.89371   0.00000  Uiso   1.00
H526   H     0.72480   0.11338   0.54249   0.00000  Uiso   1.00
H527   H     0.98620   0.08720   0.98471   0.00000  Uiso   1.00
H528   H     0.90228   0.01309   0.75691   0.00000  Uiso   1.00
N529   N     0.98241   0.18074   0.76416   0.00000  Uiso   1.00
N530   N     0.68426   0.15259   0.73584   0.00000  Uiso   1.00
O531   O     0.79464   0.23807   0.74633   0.00000  Uiso   1.00
O532   O     0.89524   0.24755   0.75586   0.00000  Uiso   1.00
O533   O     0.75848   0.15960   0.81839   0.00000  Uiso   1.00
O534   O     0.85908   0.16908   0.82793   0.00000  Uiso   1.00
O535   O     0.77142   0.08578   0.74413   0.00000  Uiso   1.00
O536   O     0.87203   0.09526   0.75367   0.00000  Uiso   1.00
O537   O     0.80758   0.16425   0.67207   0.00000  Uiso   1.00
O538   O     0.90819   0.17373   0.68160   0.00000  Uiso   1.00
O539   O     0.91715   0.11974   0.86767   0.00000  Uiso   1.00
H540   H     0.88325   0.09062   0.85928   0.00000  Uiso   1.00
C541   C     0.18171   0.60005   0.75163   0.00000  Uiso   1.00
C542   C     0.14146   0.47167   0.98357   0.00000  Uiso   1.00
C543   C     0.16151   0.47320   0.93012   0.00000  Uiso   1.00
C544   C     0.18699   0.48951   0.51514   0.00000  Uiso   1.00
C545   C     0.25012   0.51022   0.99249   0.00000  Uiso   1.00
C546   C     0.26886   0.50587   0.94023   0.00000  Uiso   1.00
C547   C     0.22663   0.47939   0.91086   0.00000  Uiso   1.00
C548   C     0.17222   0.48792   0.56824   0.00000  Uiso   1.00
C549   C     0.27952   0.52782   0.57507   0.00000  Uiso   1.00
C550   C     0.11613   0.46924   0.89836   0.00000  Uiso   1.00
C551   C     0.19018   0.65600   0.75249   0.00000  Uiso   1.00
C552   C     0.13353   0.48869   0.84560   0.00000  Uiso   1.00
C553   C     0.14305   0.34401   0.74783   0.00000  Uiso   1.00
C554   C     0.15159   0.39995   0.74847   0.00000  Uiso   1.00
C555   C     0.19977   0.50355   0.65320   0.00000  Uiso   1.00
C556   C     0.29530   0.53038   0.52251   0.00000  Uiso   1.00
C557   C     0.21812   0.50615   0.59802   0.00000  Uiso   1.00
C558   C     0.05376   0.44714   0.91813   0.00000  Uiso   1.00
C559   C     0.03483   0.43714   0.96970   0.00000  Uiso   1.00
C560   C     0.07719   0.45188   0.50264   0.00000  Uiso   1.00
Cu561  Cu    0.10710   0.49439   0.74435   0.00000  Uiso   1.00
Cu562  Cu    0.22623   0.50561   0.75564   0.00000  Uiso   1.00
H563   H     0.31519   0.54268   0.59770   0.00000  Uiso   1.00
H564   H     0.09760   0.65360   0.74346   0.00000  Uiso   1.00
H565   H     0.00388   0.53948   0.78965   0.00000  Uiso   1.00
H566   H     0.32942   0.46045   0.71041   0.00000  Uiso   1.00
H567   H     0.31767   0.51767   0.92298   0.00000  Uiso   1.00
H568   H     0.01009   0.54631   0.50517   0.00000  Uiso   1.00
H569   H     0.12543   0.47168   0.58738   0.00000  Uiso   1.00
H570   H     0.01944   0.43830   0.89371   0.00000  Uiso   1.00
H571   H     0.05814   0.44672   0.54249   0.00000  Uiso   1.00
H572   H     0.31953   0.42053   0.98471   0.00000  Uiso   1.00
H573   H     0.23561   0.34642   0.75691   0.00000  Uiso   1.00
N574   N     0.31574   0.51407   0.76416   0.00000  Uiso   1.00
N575   N     0.01759   0.48593   0.73584   0.00000  Uiso   1.00
O576   O     0.12797   0.57141   0.74633   0.00000  Uiso   1.00
O577   O     0.22858   0.58089   0.75586   0.00000  Uiso   1.00
O578   O     0.09181   0.49293   0.81839   0.00000  Uiso   1.00
O579   O     0.19242   0.50241   0.82793   0.00000  Uiso   1.00
O580   O     0.10476   0.41911   0.74413   0.00000  Uiso   1.00
O581   O     0.20536   0.42859   0.75367   0.00000  Uiso   1.00
O582   O     0.14092   0.49759   0.67207   0.00000  Uiso   1.00
O583   O     0.24152   0.50707   0.68160   0.00000  Uiso   1.00
O584   O     0.25048   0.45307   0.86767   0.00000  Uiso   1.00
H585   H     0.21659   0.42395   0.85928   0.00000  Uiso   1.00
C586   C     0.51504   0.60005   0.75163   0.00000  Uiso   1.00
C587   C     0.47479   0.47167   0.98357   0.00000  Uiso   1.00
C588   C     0.49484   0.47320   0.93012   0.00000  Uiso   1.00
C589   C     0.52033   0.48951   0.51514   0.00000  Uiso   1.00
C590   C     0.58346   0.51022   0.99249   0.00000  Uiso   1.00
C591   C     0.60219   0.50587   0.94023   0.00000  Uiso   1.00
C592   C     0.55997   0.47939   0.91086   0.00000  Uiso   1.00
C593   C     0.50555   0.48792   0.56824   0.00000  Uiso   1.00
C594   C     0.61286   0.52782   0.57507   0.00000  Uiso   1.00
C595   C     0.44946   0.46924   0.89836   0.00000  Uiso   1.00
C596   C     0.52351   0.65600   0.75249   0.00000  Uiso   1.00
C597   C     0.46686   0.48869   0.84560   0.00000  Uiso   1.00
C598   C     0.47639   0.34401   0.74783   0.00000  Uiso   1.00
C599   C     0.48493   0.39995   0.74847   0.00000  Uiso   1.00
C600   C     0.53310   0.50355   0.65320   0.00000  Uiso   1.00
C601   C     0.62864   0.53038   0.52251   0.00000  Uiso   1.00
C602   C     0.55145   0.50615   0.59802   0.00000  Uiso   1.00
C603   C     0.38709   0.44714   0.91813   0.00000  Uiso   1.00
C604   C     0.36817   0.43714   0.96970   0.00000  Uiso   1.00
C605   C     0.41052   0.45188   0.50264   0.00000  Uiso   1.00
Cu606  Cu    0.44043   0.49439   0.74435   0.00000  Uiso   1.00
Cu607  Cu    0.55957   0.50561   0.75564   0.00000  Uiso   1.00
H608   H     0.64852   0.54268   0.59770   0.00000  Uiso   1.00
H609   H     0.43094   0.65360   0.74346   0.00000  Uiso   1.00
H610   H     0.33721   0.53948   0.78965   0.00000  Uiso   1.00
H611   H     0.66275   0.46045   0.71041   0.00000  Uiso   1.00
H612   H     0.65101   0.51767   0.92298   0.00000  Uiso   1.00
H613   H     0.34342   0.54631   0.50517   0.00000  Uiso   1.00
H614   H     0.45876   0.47168   0.58738   0.00000  Uiso   1.00
H615   H     0.35278   0.43830   0.89371   0.00000  Uiso   1.00
H616   H     0.39147   0.44672   0.54249   0.00000  Uiso   1.00
H617   H     0.65287   0.42053   0.98471   0.00000  Uiso   1.00
H618   H     0.56895   0.34642   0.75691   0.00000  Uiso   1.00
N619   N     0.64908   0.51407   0.76416   0.00000  Uiso   1.00
N620   N     0.35092   0.48593   0.73584   0.00000  Uiso   1.00
O621   O     0.46131   0.57141   0.74633   0.00000  Uiso   1.00
O622   O     0.56191   0.58089   0.75586   0.00000  Uiso   1.00
O623   O     0.42515   0.49293   0.81839   0.00000  Uiso   1.00
O624   O     0.52575   0.50241   0.82793   0.00000  Uiso   1.00
O625   O     0.43809   0.41911   0.74413   0.00000  Uiso   1.00
O626   O     0.53869   0.42859   0.75367   0.00000  Uiso   1.00
O627   O     0.47425   0.49759   0.67207   0.00000  Uiso   1.00
O628   O     0.57485   0.50707   0.68160   0.00000  Uiso   1.00
O629   O     0.58381   0.45307   0.86767   0.00000  Uiso   1.00
H630   H     0.54992   0.42395   0.85928   0.00000  Uiso   1.00
C631   C     0.84838   0.60005   0.75163   0.00000  Uiso   1.00
C632   C     0.80812   0.47167   0.98357   0.00000  Uiso   1.00
C633   C     0.82817   0.47320   0.93012   0.00000  Uiso   1.00
C634   C     0.85366   0.48951   0.51514   0.00000  Uiso   1.00
C635   C     0.91679   0.51022   0.99249   0.00000  Uiso   1.00
C636   C     0.93552   0.50587   0.94023   0.00000  Uiso   1.00
C637   C     0.89330   0.47939   0.91086   0.00000  Uiso   1.00
C638   C     0.83888   0.48792   0.56824   0.00000  Uiso   1.00
C639   C     0.94619   0.52782   0.57507   0.00000  Uiso   1.00
C640   C     0.78279   0.46924   0.89836   0.00000  Uiso   1.00
C641   C     0.85685   0.65600   0.75249   0.00000  Uiso   1.00
C642   C     0.80019   0.48869   0.84560   0.00000  Uiso   1.00
C643   C     0.80972   0.34401   0.74783   0.00000  Uiso   1.00
C644   C     0.81826   0.39995   0.74847   0.00000  Uiso   1.00
C645   C     0.86644   0.50355   0.65320   0.00000  Uiso   1.00
C646   C     0.96197   0.53038   0.52251   0.00000  Uiso   1.00
C647   C     0.88478   0.50615   0.59802   0.00000  Uiso   1.00
C648   C     0.72042   0.44714   0.91813   0.00000  Uiso   1.00
C649   C     0.70150   0.43714   0.96970   0.00000  Uiso   1.00
C650   C     0.74386   0.45188   0.50264   0.00000  Uiso   1.00
Cu651  Cu    0.77377   0.49439   0.74435   0.00000  Uiso   1.00
Cu652  Cu    0.89290   0.50561   0.75564   0.00000  Uiso   1.00
H653   H     0.98186   0.54268   0.59770   0.00000  Uiso   1.00
H654   H     0.76427   0.65360   0.74346   0.00000  Uiso   1.00
H655   H     0.67054   0.53948   0.78965   0.00000  Uiso   1.00
H656   H     0.99608   0.46045   0.71041   0.00000  Uiso   1.00
H657   H     0.98434   0.51767   0.92298   0.00000  Uiso   1.00
H658   H     0.67675   0.54631   0.50517   0.00000  Uiso   1.00
H659   H     0.79210   0.47168   0.58738   0.00000  Uiso   1.00
H660   H     0.68611   0.43830   0.89371   0.00000  Uiso   1.00
H661   H     0.72480   0.44672   0.54249   0.00000  Uiso   1.00
H662   H     0.98620   0.42053   0.98471   0.00000  Uiso   1.00
H663   H     0.90228   0.34642   0.75691   0.00000  Uiso   1.00
N664   N     0.98241   0.51407   0.76416   0.00000  Uiso   1.00
N665   N     0.68426   0.48593   0.73584   0.00000  Uiso   1.00
O666   O     0.79464   0.57141   0.74633   0.00000  Uiso   1.00
O667   O     0.89524   0.58089   0.75586   0.00000  Uiso   1.00
O668   O     0.75848   0.49293   0.81839   0.00000  Uiso   1.00
O669   O     0.85908   0.50241   0.82793   0.00000  Uiso   1.00
O670   O     0.77142   0.41911   0.74413   0.00000  Uiso   1.00
O671   O     0.87203   0.42859   0.75367   0.00000  Uiso   1.00
O672   O     0.80758   0.49759   0.67207   0.00000  Uiso   1.00
O673   O     0.90819   0.50707   0.68160   0.00000  Uiso   1.00
O674   O     0.91715   0.45307   0.86767   0.00000  Uiso   1.00
H675   H     0.88325   0.42395   0.85928   0.00000  Uiso   1.00
C676   C     0.18171   0.93338   0.75163   0.00000  Uiso   1.00
C677   C     0.14146   0.80500   0.98357   0.00000  Uiso   1.00
C678   C     0.16151   0.80654   0.93012   0.00000  Uiso   1.00
C679   C     0.18699   0.82284   0.51514   0.00000  Uiso   1.00
C680   C     0.25012   0.84355   0.99249   0.00000  Uiso   1.00
C681   C     0.26886   0.83921   0.94023   0.00000  Uiso   1.00
C682   C     0.22663   0.81272   0.91086   0.00000  Uiso   1.00
C683   C     0.17222   0.82125   0.56824   0.00000  Uiso   1.00
C684   C     0.27952   0.86115   0.57507   0.00000  Uiso   1.00
C685   C     0.11613   0.80257   0.89836   0.00000  Uiso   1.00
C686   C     0.19018   0.98933   0.75249   0.00000  Uiso   1.00
C687   C     0.13353   0.82202   0.84560   0.00000  Uiso   1.00
C688   C     0.14305   0.67734   0.74783   0.00000  Uiso   1.00
C689   C     0.15159   0.73328   0.74847   0.00000  Uiso   1.00
C690   C     0.19977   0.83688   0.65320   0.00000  Uiso   1.00
C691   C     0.29530   0.86372   0.52251   0.00000  Uiso   1.00
C692   C     0.21812   0.83949   0.59802   0.00000  Uiso   1.00
C693   C     0.05376   0.78047   0.91813   0.00000  Uiso   1.00
C694   C     0.03483   0.77047   0.96970   0.00000  Uiso   1.00
C695   C     0.07719   0.78522   0.50264   0.00000  Uiso   1.00
Cu696  Cu    0.10710   0.82772   0.74435   0.00000  Uiso   1.00
Cu697  Cu    0.22623   0.83895   0.75564   0.00000  Uiso   1.00
H698   H     0.31519   0.87601   0.59770   0.00000  Uiso   1.00
H699   H     0.09760   0.98693   0.74346   0.00000  Uiso   1.00
H700   H     0.00388   0.87282   0.78965   0.00000  Uiso   1.00
H701   H     0.32942   0.79379   0.71041   0.00000  Uiso   1.00
H702   H     0.31767   0.85101   0.92298   0.00000  Uiso   1.00
H703   H     0.01009   0.87964   0.50517   0.00000  Uiso   1.00
H704   H     0.12543   0.80502   0.58738   0.00000  Uiso   1.00
H705   H     0.01944   0.77163   0.89371   0.00000  Uiso   1.00
H706   H     0.05814   0.78005   0.54249   0.00000  Uiso   1.00
H707   H     0.31953   0.75387   0.98471   0.00000  Uiso   1.00
H708   H     0.23561   0.67975   0.75691   0.00000  Uiso   1.00
N709   N     0.31574   0.84741   0.76416   0.00000  Uiso   1.00
N710   N     0.01759   0.81926   0.73584   0.00000  Uiso   1.00
O711   O     0.12797   0.90474   0.74633   0.00000  Uiso   1.00
O712   O     0.22858   0.91422   0.75586   0.00000  Uiso   1.00
O713   O     0.09181   0.82627   0.81839   0.00000  Uiso   1.00
O714   O     0.19242   0.83575   0.82793   0.00000  Uiso   1.00
O715   O     0.10476   0.75245   0.74413   0.00000  Uiso   1.00
O716   O     0.20536   0.76193   0.75367   0.00000  Uiso   1.00
O717   O     0.14092   0.83092   0.67207   0.00000  Uiso   1.00
O718   O     0.24152   0.84040   0.68160   0.00000  Uiso   1.00
O719   O     0.25048   0.78640   0.86767   0.00000  Uiso   1.00
H720   H     0.21659   0.75728   0.85928   0.00000  Uiso   1.00
C721   C     0.51504   0.93338   0.75163   0.00000  Uiso   1.00
C722   C     0.47479   0.80500   0.98357   0.00000  Uiso   1.00
C723   C     0.49484   0.80654   0.93012   0.00000  Uiso   1.00
C724   C     0.52033   0.82284   0.51514   0.00000  Uiso   1.00
C725   C     0.58346   0.84355   0.99249   0.00000  Uiso   1.00
C726   C     0.60219   0.83921   0.94023   0.00000  Uiso   1.00
C727   C     0.55997   0.81272   0.91086   0.00000  Uiso   1.00
C728   C     0.50555   0.82125   0.56824   0.00000  Uiso   1.00
C729   C     0.61286   0.86115   0.57507   0.00000  Uiso   1.00
C730   C     0.44946   0.80257   0.89836   0.00000  Uiso   1.00
C731   C     0.52351   0.98933   0.75249   0.00000  Uiso   1.00
C732   C     0.46686   0.82202   0.84560   0.00000  Uiso   1.00
C733   C     0.47639   0.67734   0.74783   0.00000  Uiso   1.00
C734   C     0.48493   0.73328   0.74847   0.00000  Uiso   1.00
C735   C     0.53310   0.83688   0.65320   0.00000  Uiso   1.00
C736   C     0.62864   0.86372   0.52251   0.00000  Uiso   1.00
C737   C     0.55145   0.83949   0.59802   0.00000  Uiso   1.00
C738   C     0.38709   0.78047   0.91813   0.00000  Uiso   1.00
C739   C     0.36817   0.77047   0.96970   0.00000  Uiso   1.00
C740   C     0.41052   0.78522   0.50264   0.00000  Uiso   1.00
Cu741  Cu    0.44043   0.82772   0.74435   0.00000  Uiso   1.00
Cu742  Cu    0.55957   0.83895   0.75564   0.00000  Uiso   1.00
H743   H     0.64852   0.87601   0.59770   0.00000  Uiso   1.00
H744   H     0.43094   0.98693   0.74346   0.00000  Uiso   1.00
H745   H     0.33721   0.87282   0.78965   0.00000  Uiso   1.00
H746   H     0.66275   0.79379   0.71041   0.00000  Uiso   1.00
H747   H     0.65101   0.85101   0.92298   0.00000  Uiso   1.00
H748   H     0.34342   0.87964   0.50517   0.00000  Uiso   1.00
H749   H     0.45876   0.80502   0.58738   0.00000  Uiso   1.00
H750   H     0.35278   0.77163   0.89371   0.00000  Uiso   1.00
H751   H     0.39147   0.78005   0.54249   0.00000  Uiso   1.00
H752   H     0.65287   0.75387   0.98471   0.00000  Uiso   1.00
H753   H     0.56895   0.67975   0.75691   0.00000  Uiso   1.00
N754   N     0.64908   0.84741   0.76416   0.00000  Uiso   1.00
N755   N     0.35092   0.81926   0.73584   0.00000  Uiso   1.00
O756   O     0.46131   0.90474   0.74633   0.00000  Uiso   1.00
O757   O     0.56191   0.91422   0.75586   0.00000  Uiso   1.00
O758   O     0.42515   0.82627   0.81839   0.00000  Uiso   1.00
O759   O     0.52575   0.83575   0.82793   0.00000  Uiso   1.00
O760   O     0.43809   0.75245   0.74413   0.00000  Uiso   1.00
O761   O     0.53869   0.76193   0.75367   0.00000  Uiso   1.00
O762   O     0.47425   0.83092   0.67207   0.00000  Uiso   1.00
O763   O     0.57485   0.84040   0.68160   0.00000  Uiso   1.00
O764   O     0.58381   0.78640   0.86767   0.00000  Uiso   1.00
H765   H     0.54992   0.75728   0.85928   0.00000  Uiso   1.00
C766   C     0.84838   0.93338   0.75163   0.00000  Uiso   1.00
C767   C     0.80812   0.80500   0.98357   0.00000  Uiso   1.00
C768   C     0.82817   0.80654   0.93012   0.00000  Uiso   1.00
C769   C     0.85366   0.82284   0.51514   0.00000  Uiso   1.00
C770   C     0.91679   0.84355   0.99249   0.00000  Uiso   1.00
C771   C     0.93552   0.83921   0.94023   0.00000  Uiso   1.00
C772   C     0.89330   0.81272   0.91086   0.00000  Uiso   1.00
C773   C     0.83888   0.82125   0.56824   0.00000  Uiso   1.00
C774   C     0.94619   0.86115   0.57507   0.00000  Uiso   1.00
C775   C     0.78279   0.80257   0.89836   0.00000  Uiso   1.00
C776   C     0.85685   0.98933   0.75249   0.00000  Uiso   1.00
C777   C     0.80019   0.82202   0.84560   0.00000  Uiso   1.00
C778   C     0.80972   0.67734   0.74783   0.00000  Uiso   1.00
C779   C     0.81826   0.73328   0.74847   0.00000  Uiso   1.00
C780   C     0.86644   0.83688   0.65320   0.00000  Uiso   1.00
C781   C     0.96197   0.86372   0.52251   0.00000  Uiso   1.00
C782   C     0.88478   0.83949   0.59802   0.00000  Uiso   1.00
C783   C     0.72042   0.78047   0.91813   0.00000  Uiso   1.00
C784   C     0.70150   0.77047   0.96970   0.00000  Uiso   1.00
C785   C     0.74386   0.78522   0.50264   0.00000  Uiso   1.00
Cu786  Cu    0.77377   0.82772   0.74435   0.00000  Uiso   1.00
Cu787  Cu    0.89290   0.83895   0.75564   0.00000  Uiso   1.00
H788   H     0.98186   0.87601   0.59770   0.00000  Uiso   1.00
H789   H     0.76427   0.98693   0.74346   0.00000  Uiso   1.00
H790   H     0.67054   0.87282   0.78965   0.00000  Uiso   1.00
H791   H     0.99608   0.79379   0.71041   0.00000  Uiso   1.00
H792   H     0.98434   0.85101   0.92298   0.00000  Uiso   1.00
H793   H     0.67675   0.87964   0.50517   0.00000  Uiso   1.00
H794   H     0.79210   0.80502   0.58738   0.00000  Uiso   1.00
H795   H     0.68611   0.77163   0.89371   0.00000  Uiso   1.00
H796   H     0.72480   0.78005   0.54249   0.00000  Uiso   1.00
H797   H     0.98620   0.75387   0.98471   0.00000  Uiso   1.00
H798   H     0.90228   0.67975   0.75691   0.00000  Uiso   1.00
N799   N     0.98241   0.84741   0.76416   0.00000  Uiso   1.00
N800   N     0.68426   0.81926   0.73584   0.00000  Uiso   1.00
O801   O     0.79464   0.90474   0.74633   0.00000  Uiso   1.00
O802   O     0.89524   0.91422   0.75586   0.00000  Uiso   1.00
O803   O     0.75848   0.82627   0.81839   0.00000  Uiso   1.00
O804   O     0.85908   0.83575   0.82793   0.00000  Uiso   1.00
O805   O     0.77142   0.75245   0.74413   0.00000  Uiso   1.00
O806   O     0.87203   0.76193   0.75367   0.00000  Uiso   1.00
O807   O     0.80758   0.83092   0.67207   0.00000  Uiso   1.00
O808   O     0.90819   0.84040   0.68160   0.00000  Uiso   1.00
O809   O     0.91715   0.78640   0.86767   0.00000  Uiso   1.00
H810   H     0.88325   0.75728   0.85928   0.00000  Uiso   1.00
loop_
_geom_bond_atom_site_label_1
_geom_bond_atom_site_label_2
_geom_bond_distance
_geom_bond_site_symmetry_2
_ccdc_geom_bond_type
C1     C11     1.427   .     S
C1     O37     1.285   .     A
C1     O36     1.292   .     A
C2     C3      1.417   .     A
C2     C409    1.429   .     S
C2     C425    1.417   .     S
C3     C7      1.422   .     A
C3     C10     1.432   .     A
C4     C8      1.400   .     A
C4     C407    1.429   1_554 S
C4     C410    1.421   1_554 S
C5     C6      1.387   .     A
C5     C409    1.421   .     S
C5     C421    1.403   .     S
C6     C7      1.383   .     A
C6     H27     1.082   .     S
C7     O44     1.381   .     S
C8     C17     1.403   .     A
C8     H29     1.076   .     S
C9     C17     1.397   .     A
C9     C16     1.388   .     A
C9     H23     1.083   .     S
C10    C12     1.487   .     S
C10    C18     1.396   .     A
C11    C148    1.327   .     S
C11    H168    1.088   .     S
C12    O39     1.285   .     A
C12    O38     1.320   .     A
C13    C14     1.427   .     S
C13    C281    1.327   1_545 S
C13    H294    1.088   1_545 S
C14    O41     1.292   .     A
C14    O40     1.285   .     A
C15    O42     1.292   .     A
C15    O43     1.302   .     A
C15    C17     1.460   .     S
C16    C410    1.403   1_554 S
C16    H73     1.084   .     S
C18    H30     1.081   .     S
C18    C19     1.391   .     A
C19    C425    1.395   .     S
C19    H122    1.083   1_455 S
C20    H31     1.077   .     S
C20    C407    1.417   1_554 S
C20    C424    1.395   1_554 S
Cu21   O36     1.956   .     S
Cu21   O40     1.951   .     S
Cu21   N35     2.020   .     S
Cu21   O42     1.939   .     S
Cu21   Cu22    2.688   .     S
Cu21   O38     1.951   .     S
Cu22   N34     2.020   .     S
Cu22   O41     1.956   .     S
Cu22   O37     1.951   .     S
Cu22   O39     1.939   .     S
Cu22   O43     1.951   .     S
H24    C148    1.088   .     S
H25    N124    1.029   1_455 S
H26    N80     1.029   .     S
H28    C106    1.084   1_455 S
H32    C64     1.083   .     S
H33    C281    1.088   1_545 S
N34    H70     1.029   .     S
N34    N80     1.296   .     S
N35    N124    1.296   1_455 S
N35    H116    1.029   1_455 S
O44    H45     0.993   .     S
C46    C56     1.427   .     S
C46    O82     1.285   .     A
C46    O81     1.292   .     A
C47    C48     1.417   .     A
C47    C454    1.429   .     S
C47    C470    1.417   .     S
C48    C52     1.422   .     A
C48    C55     1.432   .     A
C49    C53     1.400   .     A
C49    C452    1.429   1_554 S
C49    C455    1.421   1_554 S
C50    C51     1.387   .     A
C50    C454    1.421   .     S
C50    C466    1.403   .     S
C51    C52     1.383   .     A
C51    H72     1.082   .     S
C52    O89     1.381   .     S
C53    C62     1.403   .     A
C53    H74     1.076   .     S
C54    C62     1.397   .     A
C54    C61     1.388   .     A
C54    H68     1.083   .     S
C55    C57     1.487   .     S
C55    C63     1.396   .     A
C56    C193    1.327   .     S
C56    H213    1.088   .     S
C57    O84     1.285   .     A
C57    O83     1.320   .     A
C58    C59     1.427   .     S
C58    C326    1.327   1_545 S
C58    H339    1.088   1_545 S
C59    O86     1.292   .     A
C59    O85     1.285   .     A
C60    O87     1.292   .     A
C60    O88     1.302   .     A
C60    C62     1.460   .     S
C61    C455    1.403   1_554 S
C61    H118    1.084   .     S
C63    H75     1.081   .     S
C63    C64     1.391   .     A
C64    C470    1.395   .     S
C65    H76     1.077   .     S
C65    C452    1.417   1_554 S
C65    C469    1.395   1_554 S
Cu66   O81     1.956   .     S
Cu66   O85     1.951   .     S
Cu66   N80     2.020   .     S
Cu66   O87     1.939   .     S
Cu66   Cu67    2.688   .     S
Cu66   O83     1.951   .     S
Cu67   N79     2.020   .     S
Cu67   O86     1.956   .     S
Cu67   O82     1.951   .     S
Cu67   O84     1.939   .     S
Cu67   O88     1.951   .     S
H69    C193    1.088   .     S
H71    N125    1.029   .     S
H77    C109    1.083   .     S
H78    C326    1.088   1_545 S
N79    H115    1.029   .     S
N79    N125    1.296   .     S
O89    H90     0.993   .     S
C91    C101    1.427   .     S
C91    O127    1.285   .     A
C91    O126    1.292   .     A
C92    C93     1.417   .     A
C92    C499    1.429   .     S
C92    C515    1.417   .     S
C93    C97     1.422   .     A
C93    C100    1.432   .     A
C94    C98     1.400   .     A
C94    C497    1.429   1_554 S
C94    C500    1.421   1_554 S
C95    C96     1.387   .     A
C95    C499    1.421   .     S
C95    C511    1.403   .     S
C96    C97     1.383   .     A
C96    H117    1.082   .     S
C97    O134    1.381   .     S
C98    C107    1.403   .     A
C98    H119    1.076   .     S
C99    C107    1.397   .     A
C99    C106    1.388   .     A
C99    H113    1.083   .     S
C100   C102    1.487   .     S
C100   C108    1.396   .     A
C101   C238    1.327   .     S
C101   H258    1.088   .     S
C102   O129    1.285   .     A
C102   O128    1.320   .     A
C103   C104    1.427   .     S
C103   C371    1.327   1_545 S
C103   H384    1.088   1_545 S
C104   O131    1.292   .     A
C104   O130    1.285   .     A
C105   O132    1.292   .     A
C105   O133    1.302   .     A
C105   C107    1.460   .     S
C106   C500    1.403   1_554 S
C106   H28     1.084   1_655 S
C108   H120    1.081   .     S
C108   C109    1.391   .     A
C109   C515    1.395   .     S
C110   H121    1.077   .     S
C110   C497    1.417   1_554 S
C110   C514    1.395   1_554 S
Cu111  O126    1.956   .     S
Cu111  O130    1.951   .     S
Cu111  N125    2.020   .     S
Cu111  O132    1.939   .     S
Cu111  Cu112   2.688   .     S
Cu111  O128    1.951   .     S
Cu112  N124    2.020   .     S
Cu112  O131    1.956   .     S
Cu112  O127    1.951   .     S
Cu112  O129    1.939   .     S
Cu112  O133    1.951   .     S
H114   C238    1.088   .     S
H116   N35     1.029   1_655 S
H122   C19     1.083   1_655 S
H123   C371    1.088   1_545 S
N124   H25     1.029   1_655 S
N124   N35     1.296   1_655 S
O134   H135    0.993   .     S
C136   C146    1.427   .     S
C136   O172    1.285   .     A
C136   O171    1.292   .     A
C137   C138    1.417   .     A
C137   C544    1.429   .     S
C137   C560    1.417   .     S
C138   C142    1.422   .     A
C138   C145    1.432   .     A
C139   C143    1.400   .     A
C139   C542    1.429   1_554 S
C139   C545    1.421   1_554 S
C140   C141    1.387   .     A
C140   C544    1.421   .     S
C140   C556    1.403   .     S
C141   C142    1.383   .     A
C141   H162    1.082   .     S
C142   O179    1.381   .     S
C143   C152    1.403   .     A
C143   H164    1.076   .     S
C144   C152    1.397   .     A
C144   C151    1.388   .     A
C144   H158    1.083   .     S
C145   C147    1.487   .     S
C145   C153    1.396   .     A
C146   C283    1.327   .     S
C146   H303    1.088   .     S
C147   O174    1.285   .     A
C147   O173    1.320   .     A
C148   C149    1.427   .     S
C149   O176    1.292   .     A
C149   O175    1.285   .     A
C150   O177    1.292   .     A
C150   O178    1.302   .     A
C150   C152    1.460   .     S
C151   C545    1.403   1_554 S
C151   H208    1.084   .     S
C153   H165    1.081   .     S
C153   C154    1.391   .     A
C154   C560    1.395   .     S
C154   H257    1.083   1_455 S
C155   H166    1.077   .     S
C155   C542    1.417   1_554 S
C155   C559    1.395   1_554 S
Cu156  O171    1.956   .     S
Cu156  O175    1.951   .     S
Cu156  N170    2.020   .     S
Cu156  O177    1.939   .     S
Cu156  Cu157   2.688   .     S
Cu156  O173    1.951   .     S
Cu157  N169    2.020   .     S
Cu157  O176    1.956   .     S
Cu157  O172    1.951   .     S
Cu157  O174    1.939   .     S
Cu157  O178    1.951   .     S
H159   C283    1.088   .     S
H160   N259    1.029   1_455 S
H161   N215    1.029   .     S
H163   C241    1.084   1_455 S
H167   C199    1.083   .     S
N169   H205    1.029   .     S
N169   N215    1.296   .     S
N170   N259    1.296   1_455 S
N170   H251    1.029   1_455 S
O179   H180    0.993   .     S
C181   C191    1.427   .     S
C181   O217    1.285   .     A
C181   O216    1.292   .     A
C182   C183    1.417   .     A
C182   C589    1.429   .     S
C182   C605    1.417   .     S
C183   C187    1.422   .     A
C183   C190    1.432   .     A
C184   C188    1.400   .     A
C184   C587    1.429   1_554 S
C184   C590    1.421   1_554 S
C185   C186    1.387   .     A
C185   C589    1.421   .     S
C185   C601    1.403   .     S
C186   C187    1.383   .     A
C186   H207    1.082   .     S
C187   O224    1.381   .     S
C188   C197    1.403   .     A
C188   H209    1.076   .     S
C189   C197    1.397   .     A
C189   C196    1.388   .     A
C189   H203    1.083   .     S
C190   C192    1.487   .     S
C190   C198    1.396   .     A
C191   C328    1.327   .     S
C191   H348    1.088   .     S
C192   O219    1.285   .     A
C192   O218    1.320   .     A
C193   C194    1.427   .     S
C194   O221    1.292   .     A
C194   O220    1.285   .     A
C195   O222    1.292   .     A
C195   O223    1.302   .     A
C195   C197    1.460   .     S
C196   C590    1.403   1_554 S
C196   H253    1.084   .     S
C198   H210    1.081   .     S
C198   C199    1.391   .     A
C199   C605    1.395   .     S
C200   H211    1.077   .     S
C200   C587    1.417   1_554 S
C200   C604    1.395   1_554 S
Cu201  O216    1.956   .     S
Cu201  O220    1.951   .     S
Cu201  N215    2.020   .     S
Cu201  O222    1.939   .     S
Cu201  Cu202   2.688   .     S
Cu201  O218    1.951   .     S
Cu202  N214    2.020   .     S
Cu202  O221    1.956   .     S
Cu202  O217    1.951   .     S
Cu202  O219    1.939   .     S
Cu202  O223    1.951   .     S
H204   C328    1.088   .     S
H206   N260    1.029   .     S
H212   C244    1.083   .     S
N214   H250    1.029   .     S
N214   N260    1.296   .     S
O224   H225    0.993   .     S
C226   C236    1.427   .     S
C226   O262    1.285   .     A
C226   O261    1.292   .     A
C227   C228    1.417   .     A
C227   C634    1.429   .     S
C227   C650    1.417   .     S
C228   C232    1.422   .     A
C228   C235    1.432   .     A
C229   C233    1.400   .     A
C229   C632    1.429   1_554 S
C229   C635    1.421   1_554 S
C230   C231    1.387   .     A
C230   C634    1.421   .     S
C230   C646    1.403   .     S
C231   C232    1.383   .     A
C231   H252    1.082   .     S
C232   O269    1.381   .     S
C233   C242    1.403   .     A
C233   H254    1.076   .     S
C234   C242    1.397   .     A
C234   C241    1.388   .     A
C234   H248    1.083   .     S
C235   C237    1.487   .     S
C235   C243    1.396   .     A
C236   C373    1.327   .     S
C236   H393    1.088   .     S
C237   O264    1.285   .     A
C237   O263    1.320   .     A
C238   C239    1.427   .     S
C239   O266    1.292   .     A
C239   O265    1.285   .     A
C240   O267    1.292   .     A
C240   O268    1.302   .     A
C240   C242    1.460   .     S
C241   C635    1.403   1_554 S
C241   H163    1.084   1_655 S
C243   H255    1.081   .     S
C243   C244    1.391   .     A
C244   C650    1.395   .     S
C245   H256    1.077   .     S
C245   C632    1.417   1_554 S
C245   C649    1.395   1_554 S
Cu246  O261    1.956   .     S
Cu246  O265    1.951   .     S
Cu246  N260    2.020   .     S
Cu246  O267    1.939   .     S
Cu246  Cu247   2.688   .     S
Cu246  O263    1.951   .     S
Cu247  N259    2.020   .     S
Cu247  O266    1.956   .     S
Cu247  O262    1.951   .     S
Cu247  O264    1.939   .     S
Cu247  O268    1.951   .     S
H249   C373    1.088   .     S
H251   N170    1.029   1_655 S
H257   C154    1.083   1_655 S
N259   H160    1.029   1_655 S
N259   N170    1.296   1_655 S
O269   H270    0.993   .     S
C271   C281    1.427   .     S
C271   O307    1.285   .     A
C271   O306    1.292   .     A
C272   C273    1.417   .     A
C272   C679    1.429   .     S
C272   C695    1.417   .     S
C273   C277    1.422   .     A
C273   C280    1.432   .     A
C274   C278    1.400   .     A
C274   C677    1.429   1_554 S
C274   C680    1.421   1_554 S
C275   C276    1.387   .     A
C275   C679    1.421   .     S
C275   C691    1.403   .     S
C276   C277    1.383   .     A
C276   H297    1.082   .     S
C277   O314    1.381   .     S
C278   C287    1.403   .     A
C278   H299    1.076   .     S
C279   C287    1.397   .     A
C279   C286    1.388   .     A
C279   H293    1.083   .     S
C280   C282    1.487   .     S
C280   C288    1.396   .     A
C281   C13     1.327   1_565 S
C281   H33     1.088   1_565 S
C282   O309    1.285   .     A
C282   O308    1.320   .     A
C283   C284    1.427   .     S
C284   O311    1.292   .     A
C284   O310    1.285   .     A
C285   O312    1.292   .     A
C285   O313    1.302   .     A
C285   C287    1.460   .     S
C286   C680    1.403   1_554 S
C286   H343    1.084   .     S
C288   H300    1.081   .     S
C288   C289    1.391   .     A
C289   C695    1.395   .     S
C289   H392    1.083   1_455 S
C290   H301    1.077   .     S
C290   C677    1.417   1_554 S
C290   C694    1.395   1_554 S
Cu291  O306    1.956   .     S
Cu291  O310    1.951   .     S
Cu291  N305    2.020   .     S
Cu291  O312    1.939   .     S
Cu291  Cu292   2.688   .     S
Cu291  O308    1.951   .     S
Cu292  N304    2.020   .     S
Cu292  O311    1.956   .     S
Cu292  O307    1.951   .     S
Cu292  O309    1.939   .     S
Cu292  O313    1.951   .     S
H294   C13     1.088   1_565 S
H295   N394    1.029   1_455 S
H296   N350    1.029   .     S
H298   C376    1.084   1_455 S
H302   C334    1.083   .     S
N304   H340    1.029   .     S
N304   N350    1.296   .     S
N305   N394    1.296   1_455 S
N305   H386    1.029   1_455 S
O314   H315    0.993   .     S
C316   C326    1.427   .     S
C316   O352    1.285   .     A
C316   O351    1.292   .     A
C317   C318    1.417   .     A
C317   C724    1.429   .     S
C317   C740    1.417   .     S
C318   C322    1.422   .     A
C318   C325    1.432   .     A
C319   C323    1.400   .     A
C319   C722    1.429   1_554 S
C319   C725    1.421   1_554 S
C320   C321    1.387   .     A
C320   C724    1.421   .     S
C320   C736    1.403   .     S
C321   C322    1.383   .     A
C321   H342    1.082   .     S
C322   O359    1.381   .     S
C323   C332    1.403   .     A
C323   H344    1.076   .     S
C324   C332    1.397   .     A
C324   C331    1.388   .     A
C324   H338    1.083   .     S
C325   C327    1.487   .     S
C325   C333    1.396   .     A
C326   C58     1.327   1_565 S
C326   H78     1.088   1_565 S
C327   O354    1.285   .     A
C327   O353    1.320   .     A
C328   C329    1.427   .     S
C329   O356    1.292   .     A
C329   O355    1.285   .     A
C330   O357    1.292   .     A
C330   O358    1.302   .     A
C330   C332    1.460   .     S
C331   C725    1.403   1_554 S
C331   H388    1.084   .     S
C333   H345    1.081   .     S
C333   C334    1.391   .     A
C334   C740    1.395   .     S
C335   H346    1.077   .     S
C335   C722    1.417   1_554 S
C335   C739    1.395   1_554 S
Cu336  O351    1.956   .     S
Cu336  O355    1.951   .     S
Cu336  N350    2.020   .     S
Cu336  O357    1.939   .     S
Cu336  Cu337   2.688   .     S
Cu336  O353    1.951   .     S
Cu337  N349    2.020   .     S
Cu337  O356    1.956   .     S
Cu337  O352    1.951   .     S
Cu337  O354    1.939   .     S
Cu337  O358    1.951   .     S
H339   C58     1.088   1_565 S
H341   N395    1.029   .     S
H347   C379    1.083   .     S
N349   H385    1.029   .     S
N349   N395    1.296   .     S
O359   H360    0.993   .     S
C361   C371    1.427   .     S
C361   O397    1.285   .     A
C361   O396    1.292   .     A
C362   C363    1.417   .     A
C362   C769    1.429   .     S
C362   C785    1.417   .     S
C363   C367    1.422   .     A
C363   C370    1.432   .     A
C364   C368    1.400   .     A
C364   C767    1.429   1_554 S
C364   C770    1.421   1_554 S
C365   C366    1.387   .     A
C365   C769    1.421   .     S
C365   C781    1.403   .     S
C366   C367    1.383   .     A
C366   H387    1.082   .     S
C367   O404    1.381   .     S
C368   C377    1.403   .     A
C368   H389    1.076   .     S
C369   C377    1.397   .     A
C369   C376    1.388   .     A
C369   H383    1.083   .     S
C370   C372    1.487   .     S
C370   C378    1.396   .     A
C371   C103    1.327   1_565 S
C371   H123    1.088   1_565 S
C372   O399    1.285   .     A
C372   O398    1.320   .     A
C373   C374    1.427   .     S
C374   O401    1.292   .     A
C374   O400    1.285   .     A
C375   O402    1.292   .     A
C375   O403    1.302   .     A
C375   C377    1.460   .     S
C376   C770    1.403   1_554 S
C376   H298    1.084   1_655 S
C378   H390    1.081   .     S
C378   C379    1.391   .     A
C379   C785    1.395   .     S
C380   H391    1.077   .     S
C380   C767    1.417   1_554 S
C380   C784    1.395   1_554 S
Cu381  O396    1.956   .     S
Cu381  O400    1.951   .     S
Cu381  N395    2.020   .     S
Cu381  O402    1.939   .     S
Cu381  Cu382   2.688   .     S
Cu381  O398    1.951   .     S
Cu382  N394    2.020   .     S
Cu382  O401    1.956   .     S
Cu382  O397    1.951   .     S
Cu382  O399    1.939   .     S
Cu382  O403    1.951   .     S
H384   C103    1.088   1_565 S
H386   N305    1.029   1_655 S
H392   C289    1.083   1_655 S
N394   H295    1.029   1_655 S
N394   N305    1.296   1_655 S
O404   H405    0.993   .     S
C406   C416    1.427   .     S
C406   O442    1.285   .     A
C406   O441    1.292   .     A
C407   C408    1.417   .     A
C407   C4      1.429   1_556 S
C407   C20     1.417   1_556 S
C408   C412    1.422   .     A
C408   C415    1.432   .     A
C409   C413    1.400   .     A
C410   C411    1.387   .     A
C410   C4      1.421   1_556 S
C410   C16     1.403   1_556 S
C411   C412    1.383   .     A
C411   H432    1.082   .     S
C412   O449    1.381   .     S
C413   C422    1.403   .     A
C413   H434    1.076   .     S
C414   C422    1.397   .     A
C414   C421    1.388   .     A
C414   H428    1.083   .     S
C415   C417    1.487   .     S
C415   C423    1.396   .     A
C416   C553    1.327   .     S
C416   H573    1.088   .     S
C417   O444    1.285   .     A
C417   O443    1.320   .     A
C418   C419    1.427   .     S
C418   C686    1.327   1_545 S
C418   H699    1.088   1_545 S
C419   O446    1.292   .     A
C419   O445    1.285   .     A
C420   O447    1.292   .     A
C420   O448    1.302   .     A
C420   C422    1.460   .     S
C421   H478    1.084   .     S
C423   H435    1.081   .     S
C423   C424    1.391   .     A
C424   C20     1.395   1_556 S
C424   H527    1.083   1_455 S
C425   H436    1.077   .     S
Cu426  O441    1.956   .     S
Cu426  O445    1.951   .     S
Cu426  N440    2.020   .     S
Cu426  O447    1.939   .     S
Cu426  Cu427   2.688   .     S
Cu426  O443    1.951   .     S
Cu427  N439    2.020   .     S
Cu427  O446    1.956   .     S
Cu427  O442    1.951   .     S
Cu427  O444    1.939   .     S
Cu427  O448    1.951   .     S
H429   C553    1.088   .     S
H430   N529    1.029   1_455 S
H431   N485    1.029   .     S
H433   C511    1.084   1_455 S
H437   C469    1.083   .     S
H438   C686    1.088   1_545 S
N439   H475    1.029   .     S
N439   N485    1.296   .     S
N440   N529    1.296   1_455 S
N440   H521    1.029   1_455 S
O449   H450    0.993   .     S
C451   C461    1.427   .     S
C451   O487    1.285   .     A
C451   O486    1.292   .     A
C452   C453    1.417   .     A
C452   C49     1.429   1_556 S
C452   C65     1.417   1_556 S
C453   C457    1.422   .     A
C453   C460    1.432   .     A
C454   C458    1.400   .     A
C455   C456    1.387   .     A
C455   C49     1.421   1_556 S
C455   C61     1.403   1_556 S
C456   C457    1.383   .     A
C456   H477    1.082   .     S
C457   O494    1.381   .     S
C458   C467    1.403   .     A
C458   H479    1.076   .     S
C459   C467    1.397   .     A
C459   C466    1.388   .     A
C459   H473    1.083   .     S
C460   C462    1.487   .     S
C460   C468    1.396   .     A
C461   C598    1.327   .     S
C461   H618    1.088   .     S
C462   O489    1.285   .     A
C462   O488    1.320   .     A
C463   C464    1.427   .     S
C463   C731    1.327   1_545 S
C463   H744    1.088   1_545 S
C464   O491    1.292   .     A
C464   O490    1.285   .     A
C465   O492    1.292   .     A
C465   O493    1.302   .     A
C465   C467    1.460   .     S
C466   H523    1.084   .     S
C468   H480    1.081   .     S
C468   C469    1.391   .     A
C469   C65     1.395   1_556 S
C470   H481    1.077   .     S
Cu471  O486    1.956   .     S
Cu471  O490    1.951   .     S
Cu471  N485    2.020   .     S
Cu471  O492    1.939   .     S
Cu471  Cu472   2.688   .     S
Cu471  O488    1.951   .     S
Cu472  N484    2.020   .     S
Cu472  O491    1.956   .     S
Cu472  O487    1.951   .     S
Cu472  O489    1.939   .     S
Cu472  O493    1.951   .     S
H474   C598    1.088   .     S
H476   N530    1.029   .     S
H482   C514    1.083   .     S
H483   C731    1.088   1_545 S
N484   H520    1.029   .     S
N484   N530    1.296   .     S
O494   H495    0.993   .     S
C496   C506    1.427   .     S
C496   O532    1.285   .     A
C496   O531    1.292   .     A
C497   C498    1.417   .     A
C497   C94     1.429   1_556 S
C497   C110    1.417   1_556 S
C498   C502    1.422   .     A
C498   C505    1.432   .     A
C499   C503    1.400   .     A
C500   C501    1.387   .     A
C500   C94     1.421   1_556 S
C500   C106    1.403   1_556 S
C501   C502    1.383   .     A
C501   H522    1.082   .     S
C502   O539    1.381   .     S
C503   C512    1.403   .     A
C503   H524    1.076   .     S
C504   C512    1.397   .     A
C504   C511    1.388   .     A
C504   H518    1.083   .     S
C505   C507    1.487   .     S
C505   C513    1.396   .     A
C506   C643    1.327   .     S
C506   H663    1.088   .     S
C507   O534    1.285   .     A
C507   O533    1.320   .     A
C508   C509    1.427   .     S
C508   C776    1.327   1_545 S
C508   H789    1.088   1_545 S
C509   O536    1.292   .     A
C509   O535    1.285   .     A
C510   O537    1.292   .     A
C510   O538    1.302   .     A
C510   C512    1.460   .     S
C511   H433    1.084   1_655 S
C513   H525    1.081   .     S
C513   C514    1.391   .     A
C514   C110    1.395   1_556 S
C515   H526    1.077   .     S
Cu516  O531    1.956   .     S
Cu516  O535    1.951   .     S
Cu516  N530    2.020   .     S
Cu516  O537    1.939   .     S
Cu516  Cu517   2.688   .     S
Cu516  O533    1.951   .     S
Cu517  N529    2.020   .     S
Cu517  O536    1.956   .     S
Cu517  O532    1.951   .     S
Cu517  O534    1.939   .     S
Cu517  O538    1.951   .     S
H519   C643    1.088   .     S
H521   N440    1.029   1_655 S
H527   C424    1.083   1_655 S
H528   C776    1.088   1_545 S
N529   H430    1.029   1_655 S
N529   N440    1.296   1_655 S
O539   H540    0.993   .     S
C541   C551    1.427   .     S
C541   O577    1.285   .     A
C541   O576    1.292   .     A
C542   C543    1.417   .     A
C542   C139    1.429   1_556 S
C542   C155    1.417   1_556 S
C543   C547    1.422   .     A
C543   C550    1.432   .     A
C544   C548    1.400   .     A
C545   C546    1.387   .     A
C545   C139    1.421   1_556 S
C545   C151    1.403   1_556 S
C546   C547    1.383   .     A
C546   H567    1.082   .     S
C547   O584    1.381   .     S
C548   C557    1.403   .     A
C548   H569    1.076   .     S
C549   C557    1.397   .     A
C549   C556    1.388   .     A
C549   H563    1.083   .     S
C550   C552    1.487   .     S
C550   C558    1.396   .     A
C551   C688    1.327   .     S
C551   H708    1.088   .     S
C552   O579    1.285   .     A
C552   O578    1.320   .     A
C553   C554    1.427   .     S
C554   O581    1.292   .     A
C554   O580    1.285   .     A
C555   O582    1.292   .     A
C555   O583    1.302   .     A
C555   C557    1.460   .     S
C556   H613    1.084   .     S
C558   H570    1.081   .     S
C558   C559    1.391   .     A
C559   C155    1.395   1_556 S
C559   H662    1.083   1_455 S
C560   H571    1.077   .     S
Cu561  O576    1.956   .     S
Cu561  O580    1.951   .     S
Cu561  N575    2.020   .     S
Cu561  O582    1.939   .     S
Cu561  Cu562   2.688   .     S
Cu561  O578    1.951   .     S
Cu562  N574    2.020   .     S
Cu562  O581    1.956   .     S
Cu562  O577    1.951   .     S
Cu562  O579    1.939   .     S
Cu562  O583    1.951   .     S
H564   C688    1.088   .     S
H565   N664    1.029   1_455 S
H566   N620    1.029   .     S
H568   C646    1.084   1_455 S
H572   C604    1.083   .     S
N574   H610    1.029   .     S
N574   N620    1.296   .     S
N575   N664    1.296   1_455 S
N575   H656    1.029   1_455 S
O584   H585    0.993   .     S
C586   C596    1.427   .     S
C586   O622    1.285   .     A
C586   O621    1.292   .     A
C587   C588    1.417   .     A
C587   C184    1.429   1_556 S
C587   C200    1.417   1_556 S
C588   C592    1.422   .     A
C588   C595    1.432   .     A
C589   C593    1.400   .     A
C590   C591    1.387   .     A
C590   C184    1.421   1_556 S
C590   C196    1.403   1_556 S
C591   C592    1.383   .     A
C591   H612    1.082   .     S
C592   O629    1.381   .     S
C593   C602    1.403   .     A
C593   H614    1.076   .     S
C594   C602    1.397   .     A
C594   C601    1.388   .     A
C594   H608    1.083   .     S
C595   C597    1.487   .     S
C595   C603    1.396   .     A
C596   C733    1.327   .     S
C596   H753    1.088   .     S
C597   O624    1.285   .     A
C597   O623    1.320   .     A
C598   C599    1.427   .     S
C599   O626    1.292   .     A
C599   O625    1.285   .     A
C600   O627    1.292   .     A
C600   O628    1.302   .     A
C600   C602    1.460   .     S
C601   H658    1.084   .     S
C603   H615    1.081   .     S
C603   C604    1.391   .     A
C604   C200    1.395   1_556 S
C605   H616    1.077   .     S
Cu606  O621    1.956   .     S
Cu606  O625    1.951   .     S
Cu606  N620    2.020   .     S
Cu606  O627    1.939   .     S
Cu606  Cu607   2.688   .     S
Cu606  O623    1.951   .     S
Cu607  N619    2.020   .     S
Cu607  O626    1.956   .     S
Cu607  O622    1.951   .     S
Cu607  O624    1.939   .     S
Cu607  O628    1.951   .     S
H609   C733    1.088   .     S
H611   N665    1.029   .     S
H617   C649    1.083   .     S
N619   H655    1.029   .     S
N619   N665    1.296   .     S
O629   H630    0.993   .     S
C631   C641    1.427   .     S
C631   O667    1.285   .     A
C631   O666    1.292   .     A
C632   C633    1.417   .     A
C632   C229    1.429   1_556 S
C632   C245    1.417   1_556 S
C633   C637    1.422   .     A
C633   C640    1.432   .     A
C634   C638    1.400   .     A
C635   C636    1.387   .     A
C635   C229    1.421   1_556 S
C635   C241    1.403   1_556 S
C636   C637    1.383   .     A
C636   H657    1.082   .     S
C637   O674    1.381   .     S
C638   C647    1.403   .     A
C638   H659    1.076   .     S
C639   C647    1.397   .     A
C639   C646    1.388   .     A
C639   H653    1.083   .     S
C640   C642    1.487   .     S
C640   C648    1.396   .     A
C641   C778    1.327   .     S
C641   H798    1.088   .     S
C642   O669    1.285   .     A
C642   O668    1.320   .     A
C643   C644    1.427   .     S
C644   O671    1.292   .     A
C644   O670    1.285   .     A
C645   O672    1.292   .     A
C645   O673    1.302   .     A
C645   C647    1.460   .     S
C646   H568    1.084   1_655 S
C648   H660    1.081   .     S
C648   C649    1.391   .     A
C649   C245    1.395   1_556 S
C650   H661    1.077   .     S
Cu651  O666    1.956   .     S
Cu651  O670    1.951   .     S
Cu651  N665    2.020   .     S
Cu651  O672    1.939   .     S
Cu651  Cu652   2.688   .     S
Cu651  O668    1.951   .     S
Cu652  N664    2.020   .     S
Cu652  O671    1.956   .     S
Cu652  O667    1.951   .     S
Cu652  O669    1.939   .     S
Cu652  O673    1.951   .     S
H654   C778    1.088   .     S
H656   N575    1.029   1_655 S
H662   C559    1.083   1_655 S
N664   H565    1.029   1_655 S
N664   N575    1.296   1_655 S
O674   H675    0.993   .     S
C676   C686    1.427   .     S
C676   O712    1.285   .     A
C676   O711    1.292   .     A
C677   C678    1.417   .     A
C677   C274    1.429   1_556 S
C677   C290    1.417   1_556 S
C678   C682    1.422   .     A
C678   C685    1.432   .     A
C679   C683    1.400   .     A
C680   C681    1.387   .     A
C680   C274    1.421   1_556 S
C680   C286    1.403   1_556 S
C681   C682    1.383   .     A
C681   H702    1.082   .     S
C682   O719    1.381   .     S
C683   C692    1.403   .     A
C683   H704    1.076   .     S
C684   C692    1.397   .     A
C684   C691    1.388   .     A
C684   H698    1.083   .     S
C685   C687    1.487   .     S
C685   C693    1.396   .     A
C686   C418    1.327   1_565 S
C686   H438    1.088   1_565 S
C687   O714    1.285   .     A
C687   O713    1.320   .     A
C688   C689    1.427   .     S
C689   O716    1.292   .     A
C689   O715    1.285   .     A
C690   O717    1.292   .     A
C690   O718    1.302   .     A
C690   C692    1.460   .     S
C691   H748    1.084   .     S
C693   H705    1.081   .     S
C693   C694    1.391   .     A
C694   C290    1.395   1_556 S
C694   H797    1.083   1_455 S
C695   H706    1.077   .     S
Cu696  O711    1.956   .     S
Cu696  O715    1.951   .     S
Cu696  N710    2.020   .     S
Cu696  O717    1.939   .     S
Cu696  Cu697   2.688   .     S
Cu696  O713    1.951   .     S
Cu697  N709    2.020   .     S
Cu697  O716    1.956   .     S
Cu697  O712    1.951   .     S
Cu697  O714    1.939   .     S
Cu697  O718    1.951   .     S
H699   C418    1.088   1_565 S
H700   N799    1.029   1_455 S
H701   N755    1.029   .     S
H703   C781    1.084   1_455 S
H707   C739    1.083   .     S
N709   H745    1.029   .     S
N709   N755    1.296   .     S
N710   N799    1.296   1_455 S
N710   H791    1.029   1_455 S
O719   H720    0.993   .     S
C721   C731    1.427   .     S
C721   O757    1.285   .     A
C721   O756    1.292   .     A
C722   C723    1.417   .     A
C722   C319    1.429   1_556 S
C722   C335    1.417   1_556 S
C723   C727    1.422   .     A
C723   C730    1.432   .     A
C724   C728    1.400   .     A
C725   C726    1.387   .     A
C725   C319    1.421   1_556 S
C725   C331    1.403   1_556 S
C726   C727    1.383   .     A
C726   H747    1.082   .     S
C727   O764    1.381   .     S
C728   C737    1.403   .     A
C728   H749    1.076   .     S
C729   C737    1.397   .     A
C729   C736    1.388   .     A
C729   H743    1.083   .     S
C730   C732    1.487   .     S
C730   C738    1.396   .     A
C731   C463    1.327   1_565 S
C731   H483    1.088   1_565 S
C732   O759    1.285   .     A
C732   O758    1.320   .     A
C733   C734    1.427   .     S
C734   O761    1.292   .     A
C734   O760    1.285   .     A
C735   O762    1.292   .     A
C735   O763    1.302   .     A
C735   C737    1.460   .     S
C736   H793    1.084   .     S
C738   H750    1.081   .     S
C738   C739    1.391   .     A
C739   C335    1.395   1_556 S
C740   H751    1.077   .     S
Cu741  O756    1.956   .     S
Cu741  O760    1.951   .     S
Cu741  N755    2.020   .     S
Cu741  O762    1.939   .     S
Cu741  Cu742   2.688   .     S
Cu741  O758    1.951   .     S
Cu742  N754    2.020   .     S
Cu742  O761    1.956   .     S
Cu742  O757    1.951   .     S
Cu742  O759    1.939   .     S
Cu742  O763    1.951   .     S
H744   C463    1.088   1_565 S
H746   N800    1.029   .     S
H752   C784    1.083   .     S
N754   H790    1.029   .     S
N754   N800    1.296   .     S
O764   H765    0.993   .     S
C766   C776    1.427   .     S
C766   O802    1.285   .     A
C766   O801    1.292   .     A
C767   C768    1.417   .     A
C767   C364    1.429   1_556 S
C767   C380    1.417   1_556 S
C768   C772    1.422   .     A
C768   C775    1.432   .     A
C769   C773    1.400   .     A
C770   C771    1.387   .     A
C770   C364    1.421   1_556 S
C770   C376    1.403   1_556 S
C771   C772    1.383   .     A
C771   H792    1.082   .     S
C772   O809    1.381   .     S
C773   C782    1.403   .     A
C773   H794    1.076   .     S
C774   C782    1.397   .     A
C774   C781    1.388   .     A
C774   H788    1.083   .     S
C775   C777    1.487   .     S
C775   C783    1.396   .     A
C776   C508    1.327   1_565 S
C776   H528    1.088   1_565 S
C777   O804    1.285   .     A
C777   O803    1.320   .     A
C778   C779    1.427   .     S
C779   O806    1.292   .     A
C779   O805    1.285   .     A
C780   O807    1.292   .     A
C780   O808    1.302   .     A
C780   C782    1.460   .     S
C781   H703    1.084   1_655 S
C783   H795    1.081   .     S
C783   C784    1.391   .     A
C784   C380    1.395   1_556 S
C785   H796    1.077   .     S
Cu786  O801    1.956   .     S
Cu786  O805    1.951   .     S
Cu786  N800    2.020   .     S
Cu786  O807    1.939   .     S
Cu786  Cu787   2.688   .     S
Cu786  O803    1.951   .     S
Cu787  N799    2.020   .     S
Cu787  O806    1.956   .     S
Cu787  O802    1.951   .     S
Cu787  O804    1.939   .     S
Cu787  O808    1.951   .     S
H789   C508    1.088   1_565 S
H791   N710    1.029   1_655 S
H797   C694    1.083   1_655 S
N799   H700    1.029   1_655 S
N799   N710    1.296   1_655 S
O809   H810    0.993   .     S
