data_str_m2_o10_o18_pcu_sym.34
_audit_creation_date              2020-01-03
_audit_creation_method            'Materials Studio'
_symmetry_space_group_name_H-M    'P1'
_symmetry_Int_Tables_number       1
_symmetry_cell_setting            triclinic
loop_
_symmetry_equiv_pos_as_xyz
  x,y,z
_cell_length_a                    22.2383
_cell_length_b                    26.2074
_cell_length_c                    31.8906
_cell_angle_alpha                 94.4152
_cell_angle_beta                  75.2154
_cell_angle_gamma                 103.0568
loop_
_atom_site_label
_atom_site_type_symbol
_atom_site_fract_x
_atom_site_fract_y
_atom_site_fract_z
_atom_site_U_iso_or_equiv
_atom_site_adp_type
_atom_site_occupancy
C1     C     0.18159   0.26661   0.25128   0.00000  Uiso   1.00
C2     C     0.20516   0.16990   0.16684   0.00000  Uiso   1.00
C3     C     0.10537   0.15941   0.38079   0.00000  Uiso   1.00
C4     C     0.22796   0.17393   0.11921   0.00000  Uiso   1.00
C5     C     0.02394   0.12487   0.44400   0.00000  Uiso   1.00
C6     C     0.30939   0.20847   0.05600   0.00000  Uiso   1.00
C7     C     0.04148   0.13784   0.40043   0.00000  Uiso   1.00
C8     C     0.29186   0.19549   0.09957   0.00000  Uiso   1.00
C9     C     0.15004   0.17285   0.40651   0.00000  Uiso   1.00
C10    C     0.18329   0.16048   0.09349   0.00000  Uiso   1.00
C11    C     0.13193   0.16348   0.45146   0.00000  Uiso   1.00
C12    C     0.15175   0.06672   0.24872   0.00000  Uiso   1.00
C13    C     0.20141   0.16985   0.04854   0.00000  Uiso   1.00
C14    C     0.06911   0.13526   0.46891   0.00000  Uiso   1.00
C15    C     0.26423   0.19808   0.03109   0.00000  Uiso   1.00
C16    C     0.17542   0.17723   0.47883   0.00000  Uiso   1.00
C17    C     0.15791   0.15611   0.02117   0.00000  Uiso   1.00
C18    C     0.09803   0.12140   0.03427   0.00000  Uiso   1.00
C19    C     0.23530   0.21194   0.46573   0.00000  Uiso   1.00
C20    C     0.05318   0.11412   0.00994   0.00000  Uiso   1.00
C21    C     0.28016   0.21921   0.49006   0.00000  Uiso   1.00
C22    C     0.19018   0.32228   0.25186   0.00000  Uiso   1.00
C23    C     0.14315   0.01105   0.24814   0.00000  Uiso   1.00
C24    C     0.12817   0.16343   0.33316   0.00000  Uiso   1.00
Cu25   Cu    0.10737   0.16108   0.24517   0.00000  Uiso   1.00
Cu26   Cu    0.22596   0.17225   0.25483   0.00000  Uiso   1.00
F27    F     0.12094   0.14429   0.11365   0.00000  Uiso   1.00
F28    F     0.21239   0.18905   0.38635   0.00000  Uiso   1.00
F29    F     0.00300   0.20822   0.12309   0.00000  Uiso   1.00
F30    F     0.33033   0.12511   0.37691   0.00000  Uiso   1.00
F31    F     0.24765   0.01768   0.25625   0.00000  Uiso   1.00
F32    F     0.08569   0.31566   0.24375   0.00000  Uiso   1.00
H33    H     0.00671   0.08925   0.02236   0.00000  Uiso   1.00
H34    H     0.32662   0.24409   0.47764   0.00000  Uiso   1.00
H35    H     0.30868   0.10478   0.45790   0.00000  Uiso   1.00
H36    H     0.02465   0.22855   0.04209   0.00000  Uiso   1.00
H37    H     0.08473   0.09768   0.06260   0.00000  Uiso   1.00
H38    H     0.24860   0.23565   0.43740   0.00000  Uiso   1.00
H39    H     0.00147   0.20480   0.28434   0.00000  Uiso   1.00
H40    H     0.33186   0.12853   0.21566   0.00000  Uiso   1.00
N41    N     0.31506   0.18068   0.26212   0.00000  Uiso   1.00
N42    N     0.01827   0.15265   0.23788   0.00000  Uiso   1.00
O43    O     0.12815   0.23809   0.24686   0.00000  Uiso   1.00
O44    O     0.20518   0.09524   0.25314   0.00000  Uiso   1.00
O45    O     0.22829   0.24753   0.25503   0.00000  Uiso   1.00
O46    O     0.10504   0.08580   0.24498   0.00000  Uiso   1.00
O47    O     0.08851   0.15930   0.30855   0.00000  Uiso   1.00
O48    O     0.24482   0.17403   0.19145   0.00000  Uiso   1.00
O49    O     0.18866   0.16874   0.31671   0.00000  Uiso   1.00
O50    O     0.14468   0.16460   0.18329   0.00000  Uiso   1.00
C51    C     0.51492   0.26661   0.25128   0.00000  Uiso   1.00
C52    C     0.53850   0.16990   0.16684   0.00000  Uiso   1.00
C53    C     0.43871   0.15941   0.38079   0.00000  Uiso   1.00
C54    C     0.56129   0.17393   0.11921   0.00000  Uiso   1.00
C55    C     0.35727   0.12487   0.44400   0.00000  Uiso   1.00
C56    C     0.64273   0.20847   0.05600   0.00000  Uiso   1.00
C57    C     0.37481   0.13784   0.40043   0.00000  Uiso   1.00
C58    C     0.62519   0.19549   0.09957   0.00000  Uiso   1.00
C59    C     0.48337   0.17285   0.40651   0.00000  Uiso   1.00
C60    C     0.51663   0.16048   0.09349   0.00000  Uiso   1.00
C61    C     0.46526   0.16348   0.45146   0.00000  Uiso   1.00
C62    C     0.48508   0.06672   0.24872   0.00000  Uiso   1.00
C63    C     0.53474   0.16985   0.04854   0.00000  Uiso   1.00
C64    C     0.40244   0.13526   0.46891   0.00000  Uiso   1.00
C65    C     0.59756   0.19808   0.03109   0.00000  Uiso   1.00
C66    C     0.50875   0.17723   0.47883   0.00000  Uiso   1.00
C67    C     0.49125   0.15611   0.02117   0.00000  Uiso   1.00
C68    C     0.43136   0.12140   0.03427   0.00000  Uiso   1.00
C69    C     0.56864   0.21194   0.46573   0.00000  Uiso   1.00
C70    C     0.38651   0.11412   0.00994   0.00000  Uiso   1.00
C71    C     0.61349   0.21921   0.49006   0.00000  Uiso   1.00
C72    C     0.52351   0.32228   0.25186   0.00000  Uiso   1.00
C73    C     0.47649   0.01105   0.24814   0.00000  Uiso   1.00
C74    C     0.46150   0.16343   0.33316   0.00000  Uiso   1.00
Cu75   Cu    0.44071   0.16108   0.24517   0.00000  Uiso   1.00
Cu76   Cu    0.55929   0.17225   0.25483   0.00000  Uiso   1.00
F77    F     0.45428   0.14429   0.11365   0.00000  Uiso   1.00
F78    F     0.54572   0.18905   0.38635   0.00000  Uiso   1.00
F79    F     0.33633   0.20822   0.12309   0.00000  Uiso   1.00
F80    F     0.66366   0.12511   0.37691   0.00000  Uiso   1.00
F81    F     0.58098   0.01768   0.25625   0.00000  Uiso   1.00
F82    F     0.41902   0.31566   0.24375   0.00000  Uiso   1.00
H83    H     0.34004   0.08925   0.02236   0.00000  Uiso   1.00
H84    H     0.65996   0.24409   0.47764   0.00000  Uiso   1.00
H85    H     0.64202   0.10478   0.45790   0.00000  Uiso   1.00
H86    H     0.35798   0.22855   0.04209   0.00000  Uiso   1.00
H87    H     0.41806   0.09768   0.06260   0.00000  Uiso   1.00
H88    H     0.58194   0.23565   0.43740   0.00000  Uiso   1.00
H89    H     0.33481   0.20480   0.28434   0.00000  Uiso   1.00
H90    H     0.66519   0.12853   0.21566   0.00000  Uiso   1.00
N91    N     0.64839   0.18068   0.26212   0.00000  Uiso   1.00
N92    N     0.35161   0.15265   0.23788   0.00000  Uiso   1.00
O93    O     0.46148   0.23809   0.24686   0.00000  Uiso   1.00
O94    O     0.53852   0.09524   0.25314   0.00000  Uiso   1.00
O95    O     0.56163   0.24753   0.25503   0.00000  Uiso   1.00
O96    O     0.43837   0.08580   0.24498   0.00000  Uiso   1.00
O97    O     0.42185   0.15930   0.30855   0.00000  Uiso   1.00
O98    O     0.57815   0.17403   0.19145   0.00000  Uiso   1.00
O99    O     0.52199   0.16874   0.31671   0.00000  Uiso   1.00
O100   O     0.47801   0.16460   0.18329   0.00000  Uiso   1.00
C101   C     0.84825   0.26661   0.25128   0.00000  Uiso   1.00
C102   C     0.87183   0.16990   0.16684   0.00000  Uiso   1.00
C103   C     0.77204   0.15941   0.38079   0.00000  Uiso   1.00
C104   C     0.89463   0.17393   0.11921   0.00000  Uiso   1.00
C105   C     0.69061   0.12487   0.44400   0.00000  Uiso   1.00
C106   C     0.97606   0.20847   0.05600   0.00000  Uiso   1.00
C107   C     0.70814   0.13784   0.40043   0.00000  Uiso   1.00
C108   C     0.95852   0.19549   0.09957   0.00000  Uiso   1.00
C109   C     0.81671   0.17285   0.40651   0.00000  Uiso   1.00
C110   C     0.84996   0.16048   0.09349   0.00000  Uiso   1.00
C111   C     0.79859   0.16348   0.45146   0.00000  Uiso   1.00
C112   C     0.81841   0.06672   0.24872   0.00000  Uiso   1.00
C113   C     0.86807   0.16985   0.04854   0.00000  Uiso   1.00
C114   C     0.73577   0.13526   0.46891   0.00000  Uiso   1.00
C115   C     0.93089   0.19808   0.03109   0.00000  Uiso   1.00
C116   C     0.84209   0.17723   0.47883   0.00000  Uiso   1.00
C117   C     0.82458   0.15611   0.02117   0.00000  Uiso   1.00
C118   C     0.76469   0.12140   0.03427   0.00000  Uiso   1.00
C119   C     0.90197   0.21194   0.46573   0.00000  Uiso   1.00
C120   C     0.71984   0.11412   0.00994   0.00000  Uiso   1.00
C121   C     0.94682   0.21921   0.49006   0.00000  Uiso   1.00
C122   C     0.85685   0.32228   0.25186   0.00000  Uiso   1.00
C123   C     0.80982   0.01105   0.24814   0.00000  Uiso   1.00
C124   C     0.79484   0.16343   0.33316   0.00000  Uiso   1.00
Cu125  Cu    0.77404   0.16108   0.24517   0.00000  Uiso   1.00
Cu126  Cu    0.89263   0.17225   0.25483   0.00000  Uiso   1.00
F127   F     0.78761   0.14429   0.11365   0.00000  Uiso   1.00
F128   F     0.87905   0.18905   0.38635   0.00000  Uiso   1.00
F129   F     0.66967   0.20822   0.12309   0.00000  Uiso   1.00
F130   F     0.99700   0.12511   0.37691   0.00000  Uiso   1.00
F131   F     0.91431   0.01768   0.25625   0.00000  Uiso   1.00
F132   F     0.75235   0.31566   0.24375   0.00000  Uiso   1.00
H133   H     0.67338   0.08925   0.02236   0.00000  Uiso   1.00
H134   H     0.99329   0.24409   0.47764   0.00000  Uiso   1.00
H135   H     0.97535   0.10478   0.45790   0.00000  Uiso   1.00
H136   H     0.69132   0.22855   0.04209   0.00000  Uiso   1.00
H137   H     0.75140   0.09768   0.06260   0.00000  Uiso   1.00
H138   H     0.91527   0.23565   0.43740   0.00000  Uiso   1.00
H139   H     0.66814   0.20480   0.28434   0.00000  Uiso   1.00
H140   H     0.99853   0.12853   0.21566   0.00000  Uiso   1.00
N141   N     0.98173   0.18068   0.26212   0.00000  Uiso   1.00
N142   N     0.68494   0.15265   0.23788   0.00000  Uiso   1.00
O143   O     0.79482   0.23809   0.24686   0.00000  Uiso   1.00
O144   O     0.87185   0.09524   0.25314   0.00000  Uiso   1.00
O145   O     0.89496   0.24753   0.25503   0.00000  Uiso   1.00
O146   O     0.77171   0.08580   0.24498   0.00000  Uiso   1.00
O147   O     0.75518   0.15930   0.30855   0.00000  Uiso   1.00
O148   O     0.91149   0.17403   0.19145   0.00000  Uiso   1.00
O149   O     0.85532   0.16874   0.31671   0.00000  Uiso   1.00
O150   O     0.81134   0.16460   0.18329   0.00000  Uiso   1.00
C151   C     0.18159   0.59995   0.25128   0.00000  Uiso   1.00
C152   C     0.20516   0.50323   0.16684   0.00000  Uiso   1.00
C153   C     0.10537   0.49274   0.38079   0.00000  Uiso   1.00
C154   C     0.22796   0.50726   0.11921   0.00000  Uiso   1.00
C155   C     0.02394   0.45820   0.44400   0.00000  Uiso   1.00
C156   C     0.30939   0.54180   0.05600   0.00000  Uiso   1.00
C157   C     0.04148   0.47117   0.40043   0.00000  Uiso   1.00
C158   C     0.29186   0.52883   0.09957   0.00000  Uiso   1.00
C159   C     0.15004   0.50618   0.40651   0.00000  Uiso   1.00
C160   C     0.18329   0.49382   0.09349   0.00000  Uiso   1.00
C161   C     0.13193   0.49682   0.45146   0.00000  Uiso   1.00
C162   C     0.15175   0.40005   0.24872   0.00000  Uiso   1.00
C163   C     0.20141   0.50318   0.04854   0.00000  Uiso   1.00
C164   C     0.06911   0.46859   0.46891   0.00000  Uiso   1.00
C165   C     0.26423   0.53141   0.03109   0.00000  Uiso   1.00
C166   C     0.17542   0.51056   0.47883   0.00000  Uiso   1.00
C167   C     0.15791   0.48944   0.02117   0.00000  Uiso   1.00
C168   C     0.09803   0.45473   0.03427   0.00000  Uiso   1.00
C169   C     0.23530   0.54527   0.46573   0.00000  Uiso   1.00
C170   C     0.05318   0.44745   0.00994   0.00000  Uiso   1.00
C171   C     0.28016   0.55255   0.49006   0.00000  Uiso   1.00
C172   C     0.19018   0.65562   0.25186   0.00000  Uiso   1.00
C173   C     0.14315   0.34438   0.24814   0.00000  Uiso   1.00
C174   C     0.12817   0.49677   0.33316   0.00000  Uiso   1.00
Cu175  Cu    0.10737   0.49441   0.24517   0.00000  Uiso   1.00
Cu176  Cu    0.22596   0.50559   0.25483   0.00000  Uiso   1.00
F177   F     0.12094   0.47762   0.11365   0.00000  Uiso   1.00
F178   F     0.21239   0.52238   0.38635   0.00000  Uiso   1.00
F179   F     0.00300   0.54156   0.12309   0.00000  Uiso   1.00
F180   F     0.33033   0.45844   0.37691   0.00000  Uiso   1.00
F181   F     0.24765   0.35101   0.25625   0.00000  Uiso   1.00
F182   F     0.08569   0.64899   0.24375   0.00000  Uiso   1.00
H183   H     0.00671   0.42258   0.02236   0.00000  Uiso   1.00
H184   H     0.32662   0.57742   0.47764   0.00000  Uiso   1.00
H185   H     0.30868   0.43811   0.45790   0.00000  Uiso   1.00
H186   H     0.02465   0.56189   0.04209   0.00000  Uiso   1.00
H187   H     0.08473   0.43101   0.06260   0.00000  Uiso   1.00
H188   H     0.24860   0.56899   0.43740   0.00000  Uiso   1.00
H189   H     0.00147   0.53813   0.28434   0.00000  Uiso   1.00
H190   H     0.33186   0.46187   0.21566   0.00000  Uiso   1.00
N191   N     0.31506   0.51401   0.26212   0.00000  Uiso   1.00
N192   N     0.01827   0.48599   0.23788   0.00000  Uiso   1.00
O193   O     0.12815   0.57142   0.24686   0.00000  Uiso   1.00
O194   O     0.20518   0.42858   0.25314   0.00000  Uiso   1.00
O195   O     0.22829   0.58086   0.25503   0.00000  Uiso   1.00
O196   O     0.10504   0.41914   0.24498   0.00000  Uiso   1.00
O197   O     0.08851   0.49263   0.30855   0.00000  Uiso   1.00
O198   O     0.24482   0.50737   0.19145   0.00000  Uiso   1.00
O199   O     0.18866   0.50207   0.31671   0.00000  Uiso   1.00
O200   O     0.14468   0.49793   0.18329   0.00000  Uiso   1.00
C201   C     0.51492   0.59995   0.25128   0.00000  Uiso   1.00
C202   C     0.53850   0.50323   0.16684   0.00000  Uiso   1.00
C203   C     0.43871   0.49274   0.38079   0.00000  Uiso   1.00
C204   C     0.56129   0.50726   0.11921   0.00000  Uiso   1.00
C205   C     0.35727   0.45820   0.44400   0.00000  Uiso   1.00
C206   C     0.64273   0.54180   0.05600   0.00000  Uiso   1.00
C207   C     0.37481   0.47117   0.40043   0.00000  Uiso   1.00
C208   C     0.62519   0.52883   0.09957   0.00000  Uiso   1.00
C209   C     0.48337   0.50618   0.40651   0.00000  Uiso   1.00
C210   C     0.51663   0.49382   0.09349   0.00000  Uiso   1.00
C211   C     0.46526   0.49682   0.45146   0.00000  Uiso   1.00
C212   C     0.48508   0.40005   0.24872   0.00000  Uiso   1.00
C213   C     0.53474   0.50318   0.04854   0.00000  Uiso   1.00
C214   C     0.40244   0.46859   0.46891   0.00000  Uiso   1.00
C215   C     0.59756   0.53141   0.03109   0.00000  Uiso   1.00
C216   C     0.50875   0.51056   0.47883   0.00000  Uiso   1.00
C217   C     0.49125   0.48944   0.02117   0.00000  Uiso   1.00
C218   C     0.43136   0.45473   0.03427   0.00000  Uiso   1.00
C219   C     0.56864   0.54527   0.46573   0.00000  Uiso   1.00
C220   C     0.38651   0.44745   0.00994   0.00000  Uiso   1.00
C221   C     0.61349   0.55255   0.49006   0.00000  Uiso   1.00
C222   C     0.52351   0.65562   0.25186   0.00000  Uiso   1.00
C223   C     0.47649   0.34438   0.24814   0.00000  Uiso   1.00
C224   C     0.46150   0.49677   0.33316   0.00000  Uiso   1.00
Cu225  Cu    0.44071   0.49441   0.24517   0.00000  Uiso   1.00
Cu226  Cu    0.55929   0.50559   0.25483   0.00000  Uiso   1.00
F227   F     0.45428   0.47762   0.11365   0.00000  Uiso   1.00
F228   F     0.54572   0.52238   0.38635   0.00000  Uiso   1.00
F229   F     0.33633   0.54156   0.12309   0.00000  Uiso   1.00
F230   F     0.66366   0.45844   0.37691   0.00000  Uiso   1.00
F231   F     0.58098   0.35101   0.25625   0.00000  Uiso   1.00
F232   F     0.41902   0.64899   0.24375   0.00000  Uiso   1.00
H233   H     0.34004   0.42258   0.02236   0.00000  Uiso   1.00
H234   H     0.65996   0.57742   0.47764   0.00000  Uiso   1.00
H235   H     0.64202   0.43811   0.45790   0.00000  Uiso   1.00
H236   H     0.35798   0.56189   0.04209   0.00000  Uiso   1.00
H237   H     0.41806   0.43101   0.06260   0.00000  Uiso   1.00
H238   H     0.58194   0.56899   0.43740   0.00000  Uiso   1.00
H239   H     0.33481   0.53813   0.28434   0.00000  Uiso   1.00
H240   H     0.66519   0.46187   0.21566   0.00000  Uiso   1.00
N241   N     0.64839   0.51401   0.26212   0.00000  Uiso   1.00
N242   N     0.35161   0.48599   0.23788   0.00000  Uiso   1.00
O243   O     0.46148   0.57142   0.24686   0.00000  Uiso   1.00
O244   O     0.53852   0.42858   0.25314   0.00000  Uiso   1.00
O245   O     0.56163   0.58086   0.25503   0.00000  Uiso   1.00
O246   O     0.43837   0.41914   0.24498   0.00000  Uiso   1.00
O247   O     0.42185   0.49263   0.30855   0.00000  Uiso   1.00
O248   O     0.57815   0.50737   0.19145   0.00000  Uiso   1.00
O249   O     0.52199   0.50207   0.31671   0.00000  Uiso   1.00
O250   O     0.47801   0.49793   0.18329   0.00000  Uiso   1.00
C251   C     0.84825   0.59995   0.25128   0.00000  Uiso   1.00
C252   C     0.87183   0.50323   0.16684   0.00000  Uiso   1.00
C253   C     0.77204   0.49274   0.38079   0.00000  Uiso   1.00
C254   C     0.89463   0.50726   0.11921   0.00000  Uiso   1.00
C255   C     0.69061   0.45820   0.44400   0.00000  Uiso   1.00
C256   C     0.97606   0.54180   0.05600   0.00000  Uiso   1.00
C257   C     0.70814   0.47117   0.40043   0.00000  Uiso   1.00
C258   C     0.95852   0.52883   0.09957   0.00000  Uiso   1.00
C259   C     0.81671   0.50618   0.40651   0.00000  Uiso   1.00
C260   C     0.84996   0.49382   0.09349   0.00000  Uiso   1.00
C261   C     0.79859   0.49682   0.45146   0.00000  Uiso   1.00
C262   C     0.81841   0.40005   0.24872   0.00000  Uiso   1.00
C263   C     0.86807   0.50318   0.04854   0.00000  Uiso   1.00
C264   C     0.73577   0.46859   0.46891   0.00000  Uiso   1.00
C265   C     0.93089   0.53141   0.03109   0.00000  Uiso   1.00
C266   C     0.84209   0.51056   0.47883   0.00000  Uiso   1.00
C267   C     0.82458   0.48944   0.02117   0.00000  Uiso   1.00
C268   C     0.76469   0.45473   0.03427   0.00000  Uiso   1.00
C269   C     0.90197   0.54527   0.46573   0.00000  Uiso   1.00
C270   C     0.71984   0.44745   0.00994   0.00000  Uiso   1.00
C271   C     0.94682   0.55255   0.49006   0.00000  Uiso   1.00
C272   C     0.85685   0.65562   0.25186   0.00000  Uiso   1.00
C273   C     0.80982   0.34438   0.24814   0.00000  Uiso   1.00
C274   C     0.79484   0.49677   0.33316   0.00000  Uiso   1.00
Cu275  Cu    0.77404   0.49441   0.24517   0.00000  Uiso   1.00
Cu276  Cu    0.89263   0.50559   0.25483   0.00000  Uiso   1.00
F277   F     0.78761   0.47762   0.11365   0.00000  Uiso   1.00
F278   F     0.87905   0.52238   0.38635   0.00000  Uiso   1.00
F279   F     0.66967   0.54156   0.12309   0.00000  Uiso   1.00
F280   F     0.99700   0.45844   0.37691   0.00000  Uiso   1.00
F281   F     0.91431   0.35101   0.25625   0.00000  Uiso   1.00
F282   F     0.75235   0.64899   0.24375   0.00000  Uiso   1.00
H283   H     0.67338   0.42258   0.02236   0.00000  Uiso   1.00
H284   H     0.99329   0.57742   0.47764   0.00000  Uiso   1.00
H285   H     0.97535   0.43811   0.45790   0.00000  Uiso   1.00
H286   H     0.69132   0.56189   0.04209   0.00000  Uiso   1.00
H287   H     0.75140   0.43101   0.06260   0.00000  Uiso   1.00
H288   H     0.91527   0.56899   0.43740   0.00000  Uiso   1.00
H289   H     0.66814   0.53813   0.28434   0.00000  Uiso   1.00
H290   H     0.99853   0.46187   0.21566   0.00000  Uiso   1.00
N291   N     0.98173   0.51401   0.26212   0.00000  Uiso   1.00
N292   N     0.68494   0.48599   0.23788   0.00000  Uiso   1.00
O293   O     0.79482   0.57142   0.24686   0.00000  Uiso   1.00
O294   O     0.87185   0.42858   0.25314   0.00000  Uiso   1.00
O295   O     0.89496   0.58086   0.25503   0.00000  Uiso   1.00
O296   O     0.77171   0.41914   0.24498   0.00000  Uiso   1.00
O297   O     0.75518   0.49263   0.30855   0.00000  Uiso   1.00
O298   O     0.91149   0.50737   0.19145   0.00000  Uiso   1.00
O299   O     0.85532   0.50207   0.31671   0.00000  Uiso   1.00
O300   O     0.81134   0.49793   0.18329   0.00000  Uiso   1.00
C301   C     0.18159   0.93328   0.25128   0.00000  Uiso   1.00
C302   C     0.20516   0.83657   0.16684   0.00000  Uiso   1.00
C303   C     0.10537   0.82608   0.38079   0.00000  Uiso   1.00
C304   C     0.22796   0.84059   0.11921   0.00000  Uiso   1.00
C305   C     0.02394   0.79153   0.44400   0.00000  Uiso   1.00
C306   C     0.30939   0.87513   0.05600   0.00000  Uiso   1.00
C307   C     0.04148   0.80451   0.40043   0.00000  Uiso   1.00
C308   C     0.29186   0.86216   0.09957   0.00000  Uiso   1.00
C309   C     0.15004   0.83952   0.40651   0.00000  Uiso   1.00
C310   C     0.18329   0.82715   0.09349   0.00000  Uiso   1.00
C311   C     0.13193   0.83015   0.45146   0.00000  Uiso   1.00
C312   C     0.15175   0.73339   0.24872   0.00000  Uiso   1.00
C313   C     0.20141   0.83652   0.04854   0.00000  Uiso   1.00
C314   C     0.06911   0.80192   0.46891   0.00000  Uiso   1.00
C315   C     0.26423   0.86474   0.03109   0.00000  Uiso   1.00
C316   C     0.17542   0.84389   0.47883   0.00000  Uiso   1.00
C317   C     0.15791   0.82277   0.02117   0.00000  Uiso   1.00
C318   C     0.09803   0.78806   0.03427   0.00000  Uiso   1.00
C319   C     0.23530   0.87860   0.46573   0.00000  Uiso   1.00
C320   C     0.05318   0.78079   0.00994   0.00000  Uiso   1.00
C321   C     0.28016   0.88588   0.49006   0.00000  Uiso   1.00
C322   C     0.19018   0.98895   0.25186   0.00000  Uiso   1.00
C323   C     0.14315   0.67772   0.24814   0.00000  Uiso   1.00
C324   C     0.12817   0.83010   0.33316   0.00000  Uiso   1.00
Cu325  Cu    0.10737   0.82775   0.24517   0.00000  Uiso   1.00
Cu326  Cu    0.22596   0.83892   0.25483   0.00000  Uiso   1.00
F327   F     0.12094   0.81095   0.11365   0.00000  Uiso   1.00
F328   F     0.21239   0.85571   0.38635   0.00000  Uiso   1.00
F329   F     0.00300   0.87489   0.12309   0.00000  Uiso   1.00
F330   F     0.33033   0.79178   0.37691   0.00000  Uiso   1.00
F331   F     0.24765   0.68434   0.25625   0.00000  Uiso   1.00
F332   F     0.08569   0.98232   0.24375   0.00000  Uiso   1.00
H333   H     0.00671   0.75591   0.02236   0.00000  Uiso   1.00
H334   H     0.32662   0.91075   0.47764   0.00000  Uiso   1.00
H335   H     0.30868   0.77145   0.45790   0.00000  Uiso   1.00
H336   H     0.02465   0.89522   0.04209   0.00000  Uiso   1.00
H337   H     0.08473   0.76435   0.06260   0.00000  Uiso   1.00
H338   H     0.24860   0.90232   0.43740   0.00000  Uiso   1.00
H339   H     0.00147   0.87147   0.28434   0.00000  Uiso   1.00
H340   H     0.33186   0.79520   0.21566   0.00000  Uiso   1.00
N341   N     0.31506   0.84735   0.26212   0.00000  Uiso   1.00
N342   N     0.01827   0.81932   0.23788   0.00000  Uiso   1.00
O343   O     0.12815   0.90476   0.24686   0.00000  Uiso   1.00
O344   O     0.20518   0.76191   0.25314   0.00000  Uiso   1.00
O345   O     0.22829   0.91420   0.25503   0.00000  Uiso   1.00
O346   O     0.10504   0.75247   0.24498   0.00000  Uiso   1.00
O347   O     0.08851   0.82597   0.30855   0.00000  Uiso   1.00
O348   O     0.24482   0.84070   0.19145   0.00000  Uiso   1.00
O349   O     0.18866   0.83540   0.31671   0.00000  Uiso   1.00
O350   O     0.14468   0.83126   0.18329   0.00000  Uiso   1.00
C351   C     0.51492   0.93328   0.25128   0.00000  Uiso   1.00
C352   C     0.53850   0.83657   0.16684   0.00000  Uiso   1.00
C353   C     0.43871   0.82608   0.38079   0.00000  Uiso   1.00
C354   C     0.56129   0.84059   0.11921   0.00000  Uiso   1.00
C355   C     0.35727   0.79153   0.44400   0.00000  Uiso   1.00
C356   C     0.64273   0.87513   0.05600   0.00000  Uiso   1.00
C357   C     0.37481   0.80451   0.40043   0.00000  Uiso   1.00
C358   C     0.62519   0.86216   0.09957   0.00000  Uiso   1.00
C359   C     0.48337   0.83952   0.40651   0.00000  Uiso   1.00
C360   C     0.51663   0.82715   0.09349   0.00000  Uiso   1.00
C361   C     0.46526   0.83015   0.45146   0.00000  Uiso   1.00
C362   C     0.48508   0.73339   0.24872   0.00000  Uiso   1.00
C363   C     0.53474   0.83652   0.04854   0.00000  Uiso   1.00
C364   C     0.40244   0.80192   0.46891   0.00000  Uiso   1.00
C365   C     0.59756   0.86474   0.03109   0.00000  Uiso   1.00
C366   C     0.50875   0.84389   0.47883   0.00000  Uiso   1.00
C367   C     0.49125   0.82277   0.02117   0.00000  Uiso   1.00
C368   C     0.43136   0.78806   0.03427   0.00000  Uiso   1.00
C369   C     0.56864   0.87860   0.46573   0.00000  Uiso   1.00
C370   C     0.38651   0.78079   0.00994   0.00000  Uiso   1.00
C371   C     0.61349   0.88588   0.49006   0.00000  Uiso   1.00
C372   C     0.52351   0.98895   0.25186   0.00000  Uiso   1.00
C373   C     0.47649   0.67772   0.24814   0.00000  Uiso   1.00
C374   C     0.46150   0.83010   0.33316   0.00000  Uiso   1.00
Cu375  Cu    0.44071   0.82775   0.24517   0.00000  Uiso   1.00
Cu376  Cu    0.55929   0.83892   0.25483   0.00000  Uiso   1.00
F377   F     0.45428   0.81095   0.11365   0.00000  Uiso   1.00
F378   F     0.54572   0.85571   0.38635   0.00000  Uiso   1.00
F379   F     0.33633   0.87489   0.12309   0.00000  Uiso   1.00
F380   F     0.66366   0.79178   0.37691   0.00000  Uiso   1.00
F381   F     0.58098   0.68434   0.25625   0.00000  Uiso   1.00
F382   F     0.41902   0.98232   0.24375   0.00000  Uiso   1.00
H383   H     0.34004   0.75591   0.02236   0.00000  Uiso   1.00
H384   H     0.65996   0.91075   0.47764   0.00000  Uiso   1.00
H385   H     0.64202   0.77145   0.45790   0.00000  Uiso   1.00
H386   H     0.35798   0.89522   0.04209   0.00000  Uiso   1.00
H387   H     0.41806   0.76435   0.06260   0.00000  Uiso   1.00
H388   H     0.58194   0.90232   0.43740   0.00000  Uiso   1.00
H389   H     0.33481   0.87147   0.28434   0.00000  Uiso   1.00
H390   H     0.66519   0.79520   0.21566   0.00000  Uiso   1.00
N391   N     0.64839   0.84735   0.26212   0.00000  Uiso   1.00
N392   N     0.35161   0.81932   0.23788   0.00000  Uiso   1.00
O393   O     0.46148   0.90476   0.24686   0.00000  Uiso   1.00
O394   O     0.53852   0.76191   0.25314   0.00000  Uiso   1.00
O395   O     0.56163   0.91420   0.25503   0.00000  Uiso   1.00
O396   O     0.43837   0.75247   0.24498   0.00000  Uiso   1.00
O397   O     0.42185   0.82597   0.30855   0.00000  Uiso   1.00
O398   O     0.57815   0.84070   0.19145   0.00000  Uiso   1.00
O399   O     0.52199   0.83540   0.31671   0.00000  Uiso   1.00
O400   O     0.47801   0.83126   0.18329   0.00000  Uiso   1.00
C401   C     0.84825   0.93328   0.25128   0.00000  Uiso   1.00
C402   C     0.87183   0.83657   0.16684   0.00000  Uiso   1.00
C403   C     0.77204   0.82608   0.38079   0.00000  Uiso   1.00
C404   C     0.89463   0.84059   0.11921   0.00000  Uiso   1.00
C405   C     0.69061   0.79153   0.44400   0.00000  Uiso   1.00
C406   C     0.97606   0.87513   0.05600   0.00000  Uiso   1.00
C407   C     0.70814   0.80451   0.40043   0.00000  Uiso   1.00
C408   C     0.95852   0.86216   0.09957   0.00000  Uiso   1.00
C409   C     0.81671   0.83952   0.40651   0.00000  Uiso   1.00
C410   C     0.84996   0.82715   0.09349   0.00000  Uiso   1.00
C411   C     0.79859   0.83015   0.45146   0.00000  Uiso   1.00
C412   C     0.81841   0.73339   0.24872   0.00000  Uiso   1.00
C413   C     0.86807   0.83652   0.04854   0.00000  Uiso   1.00
C414   C     0.73577   0.80192   0.46891   0.00000  Uiso   1.00
C415   C     0.93089   0.86474   0.03109   0.00000  Uiso   1.00
C416   C     0.84209   0.84389   0.47883   0.00000  Uiso   1.00
C417   C     0.82458   0.82277   0.02117   0.00000  Uiso   1.00
C418   C     0.76469   0.78806   0.03427   0.00000  Uiso   1.00
C419   C     0.90197   0.87860   0.46573   0.00000  Uiso   1.00
C420   C     0.71984   0.78079   0.00994   0.00000  Uiso   1.00
C421   C     0.94682   0.88588   0.49006   0.00000  Uiso   1.00
C422   C     0.85685   0.98895   0.25186   0.00000  Uiso   1.00
C423   C     0.80982   0.67772   0.24814   0.00000  Uiso   1.00
C424   C     0.79484   0.83010   0.33316   0.00000  Uiso   1.00
Cu425  Cu    0.77404   0.82775   0.24517   0.00000  Uiso   1.00
Cu426  Cu    0.89263   0.83892   0.25483   0.00000  Uiso   1.00
F427   F     0.78761   0.81095   0.11365   0.00000  Uiso   1.00
F428   F     0.87905   0.85571   0.38635   0.00000  Uiso   1.00
F429   F     0.66967   0.87489   0.12309   0.00000  Uiso   1.00
F430   F     0.99700   0.79178   0.37691   0.00000  Uiso   1.00
F431   F     0.91431   0.68434   0.25625   0.00000  Uiso   1.00
F432   F     0.75235   0.98232   0.24375   0.00000  Uiso   1.00
H433   H     0.67338   0.75591   0.02236   0.00000  Uiso   1.00
H434   H     0.99329   0.91075   0.47764   0.00000  Uiso   1.00
H435   H     0.97535   0.77145   0.45790   0.00000  Uiso   1.00
H436   H     0.69132   0.89522   0.04209   0.00000  Uiso   1.00
H437   H     0.75140   0.76435   0.06260   0.00000  Uiso   1.00
H438   H     0.91527   0.90232   0.43740   0.00000  Uiso   1.00
H439   H     0.66814   0.87147   0.28434   0.00000  Uiso   1.00
H440   H     0.99853   0.79520   0.21566   0.00000  Uiso   1.00
N441   N     0.98173   0.84735   0.26212   0.00000  Uiso   1.00
N442   N     0.68494   0.81932   0.23788   0.00000  Uiso   1.00
O443   O     0.79482   0.90476   0.24686   0.00000  Uiso   1.00
O444   O     0.87185   0.76191   0.25314   0.00000  Uiso   1.00
O445   O     0.89496   0.91420   0.25503   0.00000  Uiso   1.00
O446   O     0.77171   0.75247   0.24498   0.00000  Uiso   1.00
O447   O     0.75518   0.82597   0.30855   0.00000  Uiso   1.00
O448   O     0.91149   0.84070   0.19145   0.00000  Uiso   1.00
O449   O     0.85532   0.83540   0.31671   0.00000  Uiso   1.00
O450   O     0.81134   0.83126   0.18329   0.00000  Uiso   1.00
C451   C     0.18159   0.26661   0.75128   0.00000  Uiso   1.00
C452   C     0.20516   0.16990   0.66684   0.00000  Uiso   1.00
C453   C     0.10537   0.15941   0.88079   0.00000  Uiso   1.00
C454   C     0.22796   0.17393   0.61921   0.00000  Uiso   1.00
C455   C     0.02394   0.12487   0.94400   0.00000  Uiso   1.00
C456   C     0.30939   0.20847   0.55600   0.00000  Uiso   1.00
C457   C     0.04148   0.13784   0.90043   0.00000  Uiso   1.00
C458   C     0.29186   0.19549   0.59957   0.00000  Uiso   1.00
C459   C     0.15004   0.17285   0.90651   0.00000  Uiso   1.00
C460   C     0.18329   0.16048   0.59349   0.00000  Uiso   1.00
C461   C     0.13193   0.16348   0.95146   0.00000  Uiso   1.00
C462   C     0.15175   0.06672   0.74872   0.00000  Uiso   1.00
C463   C     0.20141   0.16985   0.54854   0.00000  Uiso   1.00
C464   C     0.06911   0.13526   0.96891   0.00000  Uiso   1.00
C465   C     0.26423   0.19808   0.53109   0.00000  Uiso   1.00
C466   C     0.17542   0.17723   0.97883   0.00000  Uiso   1.00
C467   C     0.15791   0.15611   0.52117   0.00000  Uiso   1.00
C468   C     0.09803   0.12140   0.53427   0.00000  Uiso   1.00
C469   C     0.23530   0.21194   0.96573   0.00000  Uiso   1.00
C470   C     0.05318   0.11412   0.50994   0.00000  Uiso   1.00
C471   C     0.28016   0.21921   0.99006   0.00000  Uiso   1.00
C472   C     0.19018   0.32228   0.75186   0.00000  Uiso   1.00
C473   C     0.14315   0.01105   0.74814   0.00000  Uiso   1.00
C474   C     0.12817   0.16343   0.83316   0.00000  Uiso   1.00
Cu475  Cu    0.10737   0.16108   0.74517   0.00000  Uiso   1.00
Cu476  Cu    0.22596   0.17225   0.75483   0.00000  Uiso   1.00
F477   F     0.12094   0.14429   0.61365   0.00000  Uiso   1.00
F478   F     0.21239   0.18905   0.88635   0.00000  Uiso   1.00
F479   F     0.00300   0.20822   0.62309   0.00000  Uiso   1.00
F480   F     0.33033   0.12511   0.87691   0.00000  Uiso   1.00
F481   F     0.24765   0.01768   0.75625   0.00000  Uiso   1.00
F482   F     0.08569   0.31566   0.74375   0.00000  Uiso   1.00
H483   H     0.00671   0.08925   0.52236   0.00000  Uiso   1.00
H484   H     0.32662   0.24409   0.97764   0.00000  Uiso   1.00
H485   H     0.30868   0.10478   0.95790   0.00000  Uiso   1.00
H486   H     0.02465   0.22855   0.54209   0.00000  Uiso   1.00
H487   H     0.08473   0.09768   0.56260   0.00000  Uiso   1.00
H488   H     0.24860   0.23565   0.93740   0.00000  Uiso   1.00
H489   H     0.00147   0.20480   0.78434   0.00000  Uiso   1.00
H490   H     0.33186   0.12853   0.71566   0.00000  Uiso   1.00
N491   N     0.31506   0.18068   0.76212   0.00000  Uiso   1.00
N492   N     0.01827   0.15265   0.73788   0.00000  Uiso   1.00
O493   O     0.12815   0.23809   0.74686   0.00000  Uiso   1.00
O494   O     0.20518   0.09524   0.75314   0.00000  Uiso   1.00
O495   O     0.22829   0.24753   0.75503   0.00000  Uiso   1.00
O496   O     0.10504   0.08580   0.74498   0.00000  Uiso   1.00
O497   O     0.08851   0.15930   0.80855   0.00000  Uiso   1.00
O498   O     0.24482   0.17403   0.69145   0.00000  Uiso   1.00
O499   O     0.18866   0.16874   0.81671   0.00000  Uiso   1.00
O500   O     0.14468   0.16460   0.68329   0.00000  Uiso   1.00
C501   C     0.51492   0.26661   0.75128   0.00000  Uiso   1.00
C502   C     0.53850   0.16990   0.66684   0.00000  Uiso   1.00
C503   C     0.43871   0.15941   0.88079   0.00000  Uiso   1.00
C504   C     0.56129   0.17393   0.61921   0.00000  Uiso   1.00
C505   C     0.35727   0.12487   0.94400   0.00000  Uiso   1.00
C506   C     0.64273   0.20847   0.55600   0.00000  Uiso   1.00
C507   C     0.37481   0.13784   0.90043   0.00000  Uiso   1.00
C508   C     0.62519   0.19549   0.59957   0.00000  Uiso   1.00
C509   C     0.48337   0.17285   0.90651   0.00000  Uiso   1.00
C510   C     0.51663   0.16048   0.59349   0.00000  Uiso   1.00
C511   C     0.46526   0.16348   0.95146   0.00000  Uiso   1.00
C512   C     0.48508   0.06672   0.74872   0.00000  Uiso   1.00
C513   C     0.53474   0.16985   0.54854   0.00000  Uiso   1.00
C514   C     0.40244   0.13526   0.96891   0.00000  Uiso   1.00
C515   C     0.59756   0.19808   0.53109   0.00000  Uiso   1.00
C516   C     0.50875   0.17723   0.97883   0.00000  Uiso   1.00
C517   C     0.49125   0.15611   0.52117   0.00000  Uiso   1.00
C518   C     0.43136   0.12140   0.53427   0.00000  Uiso   1.00
C519   C     0.56864   0.21194   0.96573   0.00000  Uiso   1.00
C520   C     0.38651   0.11412   0.50994   0.00000  Uiso   1.00
C521   C     0.61349   0.21921   0.99006   0.00000  Uiso   1.00
C522   C     0.52351   0.32228   0.75186   0.00000  Uiso   1.00
C523   C     0.47649   0.01105   0.74814   0.00000  Uiso   1.00
C524   C     0.46150   0.16343   0.83316   0.00000  Uiso   1.00
Cu525  Cu    0.44071   0.16108   0.74517   0.00000  Uiso   1.00
Cu526  Cu    0.55929   0.17225   0.75483   0.00000  Uiso   1.00
F527   F     0.45428   0.14429   0.61365   0.00000  Uiso   1.00
F528   F     0.54572   0.18905   0.88635   0.00000  Uiso   1.00
F529   F     0.33633   0.20822   0.62309   0.00000  Uiso   1.00
F530   F     0.66366   0.12511   0.87691   0.00000  Uiso   1.00
F531   F     0.58098   0.01768   0.75625   0.00000  Uiso   1.00
F532   F     0.41902   0.31566   0.74375   0.00000  Uiso   1.00
H533   H     0.34004   0.08925   0.52236   0.00000  Uiso   1.00
H534   H     0.65996   0.24409   0.97764   0.00000  Uiso   1.00
H535   H     0.64202   0.10478   0.95790   0.00000  Uiso   1.00
H536   H     0.35798   0.22855   0.54209   0.00000  Uiso   1.00
H537   H     0.41806   0.09768   0.56260   0.00000  Uiso   1.00
H538   H     0.58194   0.23565   0.93740   0.00000  Uiso   1.00
H539   H     0.33481   0.20480   0.78434   0.00000  Uiso   1.00
H540   H     0.66519   0.12853   0.71566   0.00000  Uiso   1.00
N541   N     0.64839   0.18068   0.76212   0.00000  Uiso   1.00
N542   N     0.35161   0.15265   0.73788   0.00000  Uiso   1.00
O543   O     0.46148   0.23809   0.74686   0.00000  Uiso   1.00
O544   O     0.53852   0.09524   0.75314   0.00000  Uiso   1.00
O545   O     0.56163   0.24753   0.75503   0.00000  Uiso   1.00
O546   O     0.43837   0.08580   0.74498   0.00000  Uiso   1.00
O547   O     0.42185   0.15930   0.80855   0.00000  Uiso   1.00
O548   O     0.57815   0.17403   0.69145   0.00000  Uiso   1.00
O549   O     0.52199   0.16874   0.81671   0.00000  Uiso   1.00
O550   O     0.47801   0.16460   0.68329   0.00000  Uiso   1.00
C551   C     0.84825   0.26661   0.75128   0.00000  Uiso   1.00
C552   C     0.87183   0.16990   0.66684   0.00000  Uiso   1.00
C553   C     0.77204   0.15941   0.88079   0.00000  Uiso   1.00
C554   C     0.89463   0.17393   0.61921   0.00000  Uiso   1.00
C555   C     0.69061   0.12487   0.94400   0.00000  Uiso   1.00
C556   C     0.97606   0.20847   0.55600   0.00000  Uiso   1.00
C557   C     0.70814   0.13784   0.90043   0.00000  Uiso   1.00
C558   C     0.95852   0.19549   0.59957   0.00000  Uiso   1.00
C559   C     0.81671   0.17285   0.90651   0.00000  Uiso   1.00
C560   C     0.84996   0.16048   0.59349   0.00000  Uiso   1.00
C561   C     0.79859   0.16348   0.95146   0.00000  Uiso   1.00
C562   C     0.81841   0.06672   0.74872   0.00000  Uiso   1.00
C563   C     0.86807   0.16985   0.54854   0.00000  Uiso   1.00
C564   C     0.73577   0.13526   0.96891   0.00000  Uiso   1.00
C565   C     0.93089   0.19808   0.53109   0.00000  Uiso   1.00
C566   C     0.84209   0.17723   0.97883   0.00000  Uiso   1.00
C567   C     0.82458   0.15611   0.52117   0.00000  Uiso   1.00
C568   C     0.76469   0.12140   0.53427   0.00000  Uiso   1.00
C569   C     0.90197   0.21194   0.96573   0.00000  Uiso   1.00
C570   C     0.71984   0.11412   0.50994   0.00000  Uiso   1.00
C571   C     0.94682   0.21921   0.99006   0.00000  Uiso   1.00
C572   C     0.85685   0.32228   0.75186   0.00000  Uiso   1.00
C573   C     0.80982   0.01105   0.74814   0.00000  Uiso   1.00
C574   C     0.79484   0.16343   0.83316   0.00000  Uiso   1.00
Cu575  Cu    0.77404   0.16108   0.74517   0.00000  Uiso   1.00
Cu576  Cu    0.89263   0.17225   0.75483   0.00000  Uiso   1.00
F577   F     0.78761   0.14429   0.61365   0.00000  Uiso   1.00
F578   F     0.87905   0.18905   0.88635   0.00000  Uiso   1.00
F579   F     0.66967   0.20822   0.62309   0.00000  Uiso   1.00
F580   F     0.99700   0.12511   0.87691   0.00000  Uiso   1.00
F581   F     0.91431   0.01768   0.75625   0.00000  Uiso   1.00
F582   F     0.75235   0.31566   0.74375   0.00000  Uiso   1.00
H583   H     0.67338   0.08925   0.52236   0.00000  Uiso   1.00
H584   H     0.99329   0.24409   0.97764   0.00000  Uiso   1.00
H585   H     0.97535   0.10478   0.95790   0.00000  Uiso   1.00
H586   H     0.69132   0.22855   0.54209   0.00000  Uiso   1.00
H587   H     0.75140   0.09768   0.56260   0.00000  Uiso   1.00
H588   H     0.91527   0.23565   0.93740   0.00000  Uiso   1.00
H589   H     0.66814   0.20480   0.78434   0.00000  Uiso   1.00
H590   H     0.99853   0.12853   0.71566   0.00000  Uiso   1.00
N591   N     0.98173   0.18068   0.76212   0.00000  Uiso   1.00
N592   N     0.68494   0.15265   0.73788   0.00000  Uiso   1.00
O593   O     0.79482   0.23809   0.74686   0.00000  Uiso   1.00
O594   O     0.87185   0.09524   0.75314   0.00000  Uiso   1.00
O595   O     0.89496   0.24753   0.75503   0.00000  Uiso   1.00
O596   O     0.77171   0.08580   0.74498   0.00000  Uiso   1.00
O597   O     0.75518   0.15930   0.80855   0.00000  Uiso   1.00
O598   O     0.91149   0.17403   0.69145   0.00000  Uiso   1.00
O599   O     0.85532   0.16874   0.81671   0.00000  Uiso   1.00
O600   O     0.81134   0.16460   0.68329   0.00000  Uiso   1.00
C601   C     0.18159   0.59995   0.75128   0.00000  Uiso   1.00
C602   C     0.20516   0.50323   0.66684   0.00000  Uiso   1.00
C603   C     0.10537   0.49274   0.88079   0.00000  Uiso   1.00
C604   C     0.22796   0.50726   0.61921   0.00000  Uiso   1.00
C605   C     0.02394   0.45820   0.94400   0.00000  Uiso   1.00
C606   C     0.30939   0.54180   0.55600   0.00000  Uiso   1.00
C607   C     0.04148   0.47117   0.90043   0.00000  Uiso   1.00
C608   C     0.29186   0.52883   0.59957   0.00000  Uiso   1.00
C609   C     0.15004   0.50618   0.90651   0.00000  Uiso   1.00
C610   C     0.18329   0.49382   0.59349   0.00000  Uiso   1.00
C611   C     0.13193   0.49682   0.95146   0.00000  Uiso   1.00
C612   C     0.15175   0.40005   0.74872   0.00000  Uiso   1.00
C613   C     0.20141   0.50318   0.54854   0.00000  Uiso   1.00
C614   C     0.06911   0.46859   0.96891   0.00000  Uiso   1.00
C615   C     0.26423   0.53141   0.53109   0.00000  Uiso   1.00
C616   C     0.17542   0.51056   0.97883   0.00000  Uiso   1.00
C617   C     0.15791   0.48944   0.52117   0.00000  Uiso   1.00
C618   C     0.09803   0.45473   0.53427   0.00000  Uiso   1.00
C619   C     0.23530   0.54527   0.96573   0.00000  Uiso   1.00
C620   C     0.05318   0.44745   0.50994   0.00000  Uiso   1.00
C621   C     0.28016   0.55255   0.99006   0.00000  Uiso   1.00
C622   C     0.19018   0.65562   0.75186   0.00000  Uiso   1.00
C623   C     0.14315   0.34438   0.74814   0.00000  Uiso   1.00
C624   C     0.12817   0.49677   0.83316   0.00000  Uiso   1.00
Cu625  Cu    0.10737   0.49441   0.74517   0.00000  Uiso   1.00
Cu626  Cu    0.22596   0.50559   0.75483   0.00000  Uiso   1.00
F627   F     0.12094   0.47762   0.61365   0.00000  Uiso   1.00
F628   F     0.21239   0.52238   0.88635   0.00000  Uiso   1.00
F629   F     0.00300   0.54156   0.62309   0.00000  Uiso   1.00
F630   F     0.33033   0.45844   0.87691   0.00000  Uiso   1.00
F631   F     0.24765   0.35101   0.75625   0.00000  Uiso   1.00
F632   F     0.08569   0.64899   0.74375   0.00000  Uiso   1.00
H633   H     0.00671   0.42258   0.52236   0.00000  Uiso   1.00
H634   H     0.32662   0.57742   0.97764   0.00000  Uiso   1.00
H635   H     0.30868   0.43811   0.95790   0.00000  Uiso   1.00
H636   H     0.02465   0.56189   0.54209   0.00000  Uiso   1.00
H637   H     0.08473   0.43101   0.56260   0.00000  Uiso   1.00
H638   H     0.24860   0.56899   0.93740   0.00000  Uiso   1.00
H639   H     0.00147   0.53813   0.78434   0.00000  Uiso   1.00
H640   H     0.33186   0.46187   0.71566   0.00000  Uiso   1.00
N641   N     0.31506   0.51401   0.76212   0.00000  Uiso   1.00
N642   N     0.01827   0.48599   0.73788   0.00000  Uiso   1.00
O643   O     0.12815   0.57142   0.74686   0.00000  Uiso   1.00
O644   O     0.20518   0.42858   0.75314   0.00000  Uiso   1.00
O645   O     0.22829   0.58086   0.75503   0.00000  Uiso   1.00
O646   O     0.10504   0.41914   0.74498   0.00000  Uiso   1.00
O647   O     0.08851   0.49263   0.80855   0.00000  Uiso   1.00
O648   O     0.24482   0.50737   0.69145   0.00000  Uiso   1.00
O649   O     0.18866   0.50207   0.81671   0.00000  Uiso   1.00
O650   O     0.14468   0.49793   0.68329   0.00000  Uiso   1.00
C651   C     0.51492   0.59995   0.75128   0.00000  Uiso   1.00
C652   C     0.53850   0.50323   0.66684   0.00000  Uiso   1.00
C653   C     0.43871   0.49274   0.88079   0.00000  Uiso   1.00
C654   C     0.56129   0.50726   0.61921   0.00000  Uiso   1.00
C655   C     0.35727   0.45820   0.94400   0.00000  Uiso   1.00
C656   C     0.64273   0.54180   0.55600   0.00000  Uiso   1.00
C657   C     0.37481   0.47117   0.90043   0.00000  Uiso   1.00
C658   C     0.62519   0.52883   0.59957   0.00000  Uiso   1.00
C659   C     0.48337   0.50618   0.90651   0.00000  Uiso   1.00
C660   C     0.51663   0.49382   0.59349   0.00000  Uiso   1.00
C661   C     0.46526   0.49682   0.95146   0.00000  Uiso   1.00
C662   C     0.48508   0.40005   0.74872   0.00000  Uiso   1.00
C663   C     0.53474   0.50318   0.54854   0.00000  Uiso   1.00
C664   C     0.40244   0.46859   0.96891   0.00000  Uiso   1.00
C665   C     0.59756   0.53141   0.53109   0.00000  Uiso   1.00
C666   C     0.50875   0.51056   0.97883   0.00000  Uiso   1.00
C667   C     0.49125   0.48944   0.52117   0.00000  Uiso   1.00
C668   C     0.43136   0.45473   0.53427   0.00000  Uiso   1.00
C669   C     0.56864   0.54527   0.96573   0.00000  Uiso   1.00
C670   C     0.38651   0.44745   0.50994   0.00000  Uiso   1.00
C671   C     0.61349   0.55255   0.99006   0.00000  Uiso   1.00
C672   C     0.52351   0.65562   0.75186   0.00000  Uiso   1.00
C673   C     0.47649   0.34438   0.74814   0.00000  Uiso   1.00
C674   C     0.46150   0.49677   0.83316   0.00000  Uiso   1.00
Cu675  Cu    0.44071   0.49441   0.74517   0.00000  Uiso   1.00
Cu676  Cu    0.55929   0.50559   0.75483   0.00000  Uiso   1.00
F677   F     0.45428   0.47762   0.61365   0.00000  Uiso   1.00
F678   F     0.54572   0.52238   0.88635   0.00000  Uiso   1.00
F679   F     0.33633   0.54156   0.62309   0.00000  Uiso   1.00
F680   F     0.66366   0.45844   0.87691   0.00000  Uiso   1.00
F681   F     0.58098   0.35101   0.75625   0.00000  Uiso   1.00
F682   F     0.41902   0.64899   0.74375   0.00000  Uiso   1.00
H683   H     0.34004   0.42258   0.52236   0.00000  Uiso   1.00
H684   H     0.65996   0.57742   0.97764   0.00000  Uiso   1.00
H685   H     0.64202   0.43811   0.95790   0.00000  Uiso   1.00
H686   H     0.35798   0.56189   0.54209   0.00000  Uiso   1.00
H687   H     0.41806   0.43101   0.56260   0.00000  Uiso   1.00
H688   H     0.58194   0.56899   0.93740   0.00000  Uiso   1.00
H689   H     0.33481   0.53813   0.78434   0.00000  Uiso   1.00
H690   H     0.66519   0.46187   0.71566   0.00000  Uiso   1.00
N691   N     0.64839   0.51401   0.76212   0.00000  Uiso   1.00
N692   N     0.35161   0.48599   0.73788   0.00000  Uiso   1.00
O693   O     0.46148   0.57142   0.74686   0.00000  Uiso   1.00
O694   O     0.53852   0.42858   0.75314   0.00000  Uiso   1.00
O695   O     0.56163   0.58086   0.75503   0.00000  Uiso   1.00
O696   O     0.43837   0.41914   0.74498   0.00000  Uiso   1.00
O697   O     0.42185   0.49263   0.80855   0.00000  Uiso   1.00
O698   O     0.57815   0.50737   0.69145   0.00000  Uiso   1.00
O699   O     0.52199   0.50207   0.81671   0.00000  Uiso   1.00
O700   O     0.47801   0.49793   0.68329   0.00000  Uiso   1.00
C701   C     0.84825   0.59995   0.75128   0.00000  Uiso   1.00
C702   C     0.87183   0.50323   0.66684   0.00000  Uiso   1.00
C703   C     0.77204   0.49274   0.88079   0.00000  Uiso   1.00
C704   C     0.89463   0.50726   0.61921   0.00000  Uiso   1.00
C705   C     0.69061   0.45820   0.94400   0.00000  Uiso   1.00
C706   C     0.97606   0.54180   0.55600   0.00000  Uiso   1.00
C707   C     0.70814   0.47117   0.90043   0.00000  Uiso   1.00
C708   C     0.95852   0.52883   0.59957   0.00000  Uiso   1.00
C709   C     0.81671   0.50618   0.90651   0.00000  Uiso   1.00
C710   C     0.84996   0.49382   0.59349   0.00000  Uiso   1.00
C711   C     0.79859   0.49682   0.95146   0.00000  Uiso   1.00
C712   C     0.81841   0.40005   0.74872   0.00000  Uiso   1.00
C713   C     0.86807   0.50318   0.54854   0.00000  Uiso   1.00
C714   C     0.73577   0.46859   0.96891   0.00000  Uiso   1.00
C715   C     0.93089   0.53141   0.53109   0.00000  Uiso   1.00
C716   C     0.84209   0.51056   0.97883   0.00000  Uiso   1.00
C717   C     0.82458   0.48944   0.52117   0.00000  Uiso   1.00
C718   C     0.76469   0.45473   0.53427   0.00000  Uiso   1.00
C719   C     0.90197   0.54527   0.96573   0.00000  Uiso   1.00
C720   C     0.71984   0.44745   0.50994   0.00000  Uiso   1.00
C721   C     0.94682   0.55255   0.99006   0.00000  Uiso   1.00
C722   C     0.85685   0.65562   0.75186   0.00000  Uiso   1.00
C723   C     0.80982   0.34438   0.74814   0.00000  Uiso   1.00
C724   C     0.79484   0.49677   0.83316   0.00000  Uiso   1.00
Cu725  Cu    0.77404   0.49441   0.74517   0.00000  Uiso   1.00
Cu726  Cu    0.89263   0.50559   0.75483   0.00000  Uiso   1.00
F727   F     0.78761   0.47762   0.61365   0.00000  Uiso   1.00
F728   F     0.87905   0.52238   0.88635   0.00000  Uiso   1.00
F729   F     0.66967   0.54156   0.62309   0.00000  Uiso   1.00
F730   F     0.99700   0.45844   0.87691   0.00000  Uiso   1.00
F731   F     0.91431   0.35101   0.75625   0.00000  Uiso   1.00
F732   F     0.75235   0.64899   0.74375   0.00000  Uiso   1.00
H733   H     0.67338   0.42258   0.52236   0.00000  Uiso   1.00
H734   H     0.99329   0.57742   0.97764   0.00000  Uiso   1.00
H735   H     0.97535   0.43811   0.95790   0.00000  Uiso   1.00
H736   H     0.69132   0.56189   0.54209   0.00000  Uiso   1.00
H737   H     0.75140   0.43101   0.56260   0.00000  Uiso   1.00
H738   H     0.91527   0.56899   0.93740   0.00000  Uiso   1.00
H739   H     0.66814   0.53813   0.78434   0.00000  Uiso   1.00
H740   H     0.99853   0.46187   0.71566   0.00000  Uiso   1.00
N741   N     0.98173   0.51401   0.76212   0.00000  Uiso   1.00
N742   N     0.68494   0.48599   0.73788   0.00000  Uiso   1.00
O743   O     0.79482   0.57142   0.74686   0.00000  Uiso   1.00
O744   O     0.87185   0.42858   0.75314   0.00000  Uiso   1.00
O745   O     0.89496   0.58086   0.75503   0.00000  Uiso   1.00
O746   O     0.77171   0.41914   0.74498   0.00000  Uiso   1.00
O747   O     0.75518   0.49263   0.80855   0.00000  Uiso   1.00
O748   O     0.91149   0.50737   0.69145   0.00000  Uiso   1.00
O749   O     0.85532   0.50207   0.81671   0.00000  Uiso   1.00
O750   O     0.81134   0.49793   0.68329   0.00000  Uiso   1.00
C751   C     0.18159   0.93328   0.75128   0.00000  Uiso   1.00
C752   C     0.20516   0.83657   0.66684   0.00000  Uiso   1.00
C753   C     0.10537   0.82608   0.88079   0.00000  Uiso   1.00
C754   C     0.22796   0.84059   0.61921   0.00000  Uiso   1.00
C755   C     0.02394   0.79153   0.94400   0.00000  Uiso   1.00
C756   C     0.30939   0.87513   0.55600   0.00000  Uiso   1.00
C757   C     0.04148   0.80451   0.90043   0.00000  Uiso   1.00
C758   C     0.29186   0.86216   0.59957   0.00000  Uiso   1.00
C759   C     0.15004   0.83952   0.90651   0.00000  Uiso   1.00
C760   C     0.18329   0.82715   0.59349   0.00000  Uiso   1.00
C761   C     0.13193   0.83015   0.95146   0.00000  Uiso   1.00
C762   C     0.15175   0.73339   0.74872   0.00000  Uiso   1.00
C763   C     0.20141   0.83652   0.54854   0.00000  Uiso   1.00
C764   C     0.06911   0.80192   0.96891   0.00000  Uiso   1.00
C765   C     0.26423   0.86474   0.53109   0.00000  Uiso   1.00
C766   C     0.17542   0.84389   0.97883   0.00000  Uiso   1.00
C767   C     0.15791   0.82277   0.52117   0.00000  Uiso   1.00
C768   C     0.09803   0.78806   0.53427   0.00000  Uiso   1.00
C769   C     0.23530   0.87860   0.96573   0.00000  Uiso   1.00
C770   C     0.05318   0.78079   0.50994   0.00000  Uiso   1.00
C771   C     0.28016   0.88588   0.99006   0.00000  Uiso   1.00
C772   C     0.19018   0.98895   0.75186   0.00000  Uiso   1.00
C773   C     0.14315   0.67772   0.74814   0.00000  Uiso   1.00
C774   C     0.12817   0.83010   0.83316   0.00000  Uiso   1.00
Cu775  Cu    0.10737   0.82775   0.74517   0.00000  Uiso   1.00
Cu776  Cu    0.22596   0.83892   0.75483   0.00000  Uiso   1.00
F777   F     0.12094   0.81095   0.61365   0.00000  Uiso   1.00
F778   F     0.21239   0.85571   0.88635   0.00000  Uiso   1.00
F779   F     0.00300   0.87489   0.62309   0.00000  Uiso   1.00
F780   F     0.33033   0.79178   0.87691   0.00000  Uiso   1.00
F781   F     0.24765   0.68434   0.75625   0.00000  Uiso   1.00
F782   F     0.08569   0.98232   0.74375   0.00000  Uiso   1.00
H783   H     0.00671   0.75591   0.52236   0.00000  Uiso   1.00
H784   H     0.32662   0.91075   0.97764   0.00000  Uiso   1.00
H785   H     0.30868   0.77145   0.95790   0.00000  Uiso   1.00
H786   H     0.02465   0.89522   0.54209   0.00000  Uiso   1.00
H787   H     0.08473   0.76435   0.56260   0.00000  Uiso   1.00
H788   H     0.24860   0.90232   0.93740   0.00000  Uiso   1.00
H789   H     0.00147   0.87147   0.78434   0.00000  Uiso   1.00
H790   H     0.33186   0.79520   0.71566   0.00000  Uiso   1.00
N791   N     0.31506   0.84735   0.76212   0.00000  Uiso   1.00
N792   N     0.01827   0.81932   0.73788   0.00000  Uiso   1.00
O793   O     0.12815   0.90476   0.74686   0.00000  Uiso   1.00
O794   O     0.20518   0.76191   0.75314   0.00000  Uiso   1.00
O795   O     0.22829   0.91420   0.75503   0.00000  Uiso   1.00
O796   O     0.10504   0.75247   0.74498   0.00000  Uiso   1.00
O797   O     0.08851   0.82597   0.80855   0.00000  Uiso   1.00
O798   O     0.24482   0.84070   0.69145   0.00000  Uiso   1.00
O799   O     0.18866   0.83540   0.81671   0.00000  Uiso   1.00
O800   O     0.14468   0.83126   0.68329   0.00000  Uiso   1.00
C801   C     0.51492   0.93328   0.75128   0.00000  Uiso   1.00
C802   C     0.53850   0.83657   0.66684   0.00000  Uiso   1.00
C803   C     0.43871   0.82608   0.88079   0.00000  Uiso   1.00
C804   C     0.56129   0.84059   0.61921   0.00000  Uiso   1.00
C805   C     0.35727   0.79153   0.94400   0.00000  Uiso   1.00
C806   C     0.64273   0.87513   0.55600   0.00000  Uiso   1.00
C807   C     0.37481   0.80451   0.90043   0.00000  Uiso   1.00
C808   C     0.62519   0.86216   0.59957   0.00000  Uiso   1.00
C809   C     0.48337   0.83952   0.90651   0.00000  Uiso   1.00
C810   C     0.51663   0.82715   0.59349   0.00000  Uiso   1.00
C811   C     0.46526   0.83015   0.95146   0.00000  Uiso   1.00
C812   C     0.48508   0.73339   0.74872   0.00000  Uiso   1.00
C813   C     0.53474   0.83652   0.54854   0.00000  Uiso   1.00
C814   C     0.40244   0.80192   0.96891   0.00000  Uiso   1.00
C815   C     0.59756   0.86474   0.53109   0.00000  Uiso   1.00
C816   C     0.50875   0.84389   0.97883   0.00000  Uiso   1.00
C817   C     0.49125   0.82277   0.52117   0.00000  Uiso   1.00
C818   C     0.43136   0.78806   0.53427   0.00000  Uiso   1.00
C819   C     0.56864   0.87860   0.96573   0.00000  Uiso   1.00
C820   C     0.38651   0.78079   0.50994   0.00000  Uiso   1.00
C821   C     0.61349   0.88588   0.99006   0.00000  Uiso   1.00
C822   C     0.52351   0.98895   0.75186   0.00000  Uiso   1.00
C823   C     0.47649   0.67772   0.74814   0.00000  Uiso   1.00
C824   C     0.46150   0.83010   0.83316   0.00000  Uiso   1.00
Cu825  Cu    0.44071   0.82775   0.74517   0.00000  Uiso   1.00
Cu826  Cu    0.55929   0.83892   0.75483   0.00000  Uiso   1.00
F827   F     0.45428   0.81095   0.61365   0.00000  Uiso   1.00
F828   F     0.54572   0.85571   0.88635   0.00000  Uiso   1.00
F829   F     0.33633   0.87489   0.62309   0.00000  Uiso   1.00
F830   F     0.66366   0.79178   0.87691   0.00000  Uiso   1.00
F831   F     0.58098   0.68434   0.75625   0.00000  Uiso   1.00
F832   F     0.41902   0.98232   0.74375   0.00000  Uiso   1.00
H833   H     0.34004   0.75591   0.52236   0.00000  Uiso   1.00
H834   H     0.65996   0.91075   0.97764   0.00000  Uiso   1.00
H835   H     0.64202   0.77145   0.95790   0.00000  Uiso   1.00
H836   H     0.35798   0.89522   0.54209   0.00000  Uiso   1.00
H837   H     0.41806   0.76435   0.56260   0.00000  Uiso   1.00
H838   H     0.58194   0.90232   0.93740   0.00000  Uiso   1.00
H839   H     0.33481   0.87147   0.78434   0.00000  Uiso   1.00
H840   H     0.66519   0.79520   0.71566   0.00000  Uiso   1.00
N841   N     0.64839   0.84735   0.76212   0.00000  Uiso   1.00
N842   N     0.35161   0.81932   0.73788   0.00000  Uiso   1.00
O843   O     0.46148   0.90476   0.74686   0.00000  Uiso   1.00
O844   O     0.53852   0.76191   0.75314   0.00000  Uiso   1.00
O845   O     0.56163   0.91420   0.75503   0.00000  Uiso   1.00
O846   O     0.43837   0.75247   0.74498   0.00000  Uiso   1.00
O847   O     0.42185   0.82597   0.80855   0.00000  Uiso   1.00
O848   O     0.57815   0.84070   0.69145   0.00000  Uiso   1.00
O849   O     0.52199   0.83540   0.81671   0.00000  Uiso   1.00
O850   O     0.47801   0.83126   0.68329   0.00000  Uiso   1.00
C851   C     0.84825   0.93328   0.75128   0.00000  Uiso   1.00
C852   C     0.87183   0.83657   0.66684   0.00000  Uiso   1.00
C853   C     0.77204   0.82608   0.88079   0.00000  Uiso   1.00
C854   C     0.89463   0.84059   0.61921   0.00000  Uiso   1.00
C855   C     0.69061   0.79153   0.94400   0.00000  Uiso   1.00
C856   C     0.97606   0.87513   0.55600   0.00000  Uiso   1.00
C857   C     0.70814   0.80451   0.90043   0.00000  Uiso   1.00
C858   C     0.95852   0.86216   0.59957   0.00000  Uiso   1.00
C859   C     0.81671   0.83952   0.90651   0.00000  Uiso   1.00
C860   C     0.84996   0.82715   0.59349   0.00000  Uiso   1.00
C861   C     0.79859   0.83015   0.95146   0.00000  Uiso   1.00
C862   C     0.81841   0.73339   0.74872   0.00000  Uiso   1.00
C863   C     0.86807   0.83652   0.54854   0.00000  Uiso   1.00
C864   C     0.73577   0.80192   0.96891   0.00000  Uiso   1.00
C865   C     0.93089   0.86474   0.53109   0.00000  Uiso   1.00
C866   C     0.84209   0.84389   0.97883   0.00000  Uiso   1.00
C867   C     0.82458   0.82277   0.52117   0.00000  Uiso   1.00
C868   C     0.76469   0.78806   0.53427   0.00000  Uiso   1.00
C869   C     0.90197   0.87860   0.96573   0.00000  Uiso   1.00
C870   C     0.71984   0.78079   0.50994   0.00000  Uiso   1.00
C871   C     0.94682   0.88588   0.99006   0.00000  Uiso   1.00
C872   C     0.85685   0.98895   0.75186   0.00000  Uiso   1.00
C873   C     0.80982   0.67772   0.74814   0.00000  Uiso   1.00
C874   C     0.79484   0.83010   0.83316   0.00000  Uiso   1.00
Cu875  Cu    0.77404   0.82775   0.74517   0.00000  Uiso   1.00
Cu876  Cu    0.89263   0.83892   0.75483   0.00000  Uiso   1.00
F877   F     0.78761   0.81095   0.61365   0.00000  Uiso   1.00
F878   F     0.87905   0.85571   0.88635   0.00000  Uiso   1.00
F879   F     0.66967   0.87489   0.62309   0.00000  Uiso   1.00
F880   F     0.99700   0.79178   0.87691   0.00000  Uiso   1.00
F881   F     0.91431   0.68434   0.75625   0.00000  Uiso   1.00
F882   F     0.75235   0.98232   0.74375   0.00000  Uiso   1.00
H883   H     0.67338   0.75591   0.52236   0.00000  Uiso   1.00
H884   H     0.99329   0.91075   0.97764   0.00000  Uiso   1.00
H885   H     0.97535   0.77145   0.95790   0.00000  Uiso   1.00
H886   H     0.69132   0.89522   0.54209   0.00000  Uiso   1.00
H887   H     0.75140   0.76435   0.56260   0.00000  Uiso   1.00
H888   H     0.91527   0.90232   0.93740   0.00000  Uiso   1.00
H889   H     0.66814   0.87147   0.78434   0.00000  Uiso   1.00
H890   H     0.99853   0.79520   0.71566   0.00000  Uiso   1.00
N891   N     0.98173   0.84735   0.76212   0.00000  Uiso   1.00
N892   N     0.68494   0.81932   0.73788   0.00000  Uiso   1.00
O893   O     0.79482   0.90476   0.74686   0.00000  Uiso   1.00
O894   O     0.87185   0.76191   0.75314   0.00000  Uiso   1.00
O895   O     0.89496   0.91420   0.75503   0.00000  Uiso   1.00
O896   O     0.77171   0.75247   0.74498   0.00000  Uiso   1.00
O897   O     0.75518   0.82597   0.80855   0.00000  Uiso   1.00
O898   O     0.91149   0.84070   0.69145   0.00000  Uiso   1.00
O899   O     0.85532   0.83540   0.81671   0.00000  Uiso   1.00
O900   O     0.81134   0.83126   0.68329   0.00000  Uiso   1.00
loop_
_geom_bond_atom_site_label_1
_geom_bond_atom_site_label_2
_geom_bond_distance
_geom_bond_site_symmetry_2
_ccdc_geom_bond_type
C1     C22     1.427   .     S
C1     O45     1.285   .     A
C1     O43     1.288   .     A
C2     C4      1.477   .     S
C2     O50     1.292   .     A
C2     O48     1.305   .     A
C3     C9      1.413   .     A
C3     C7      1.403   .     A
C3     C24     1.477   .     S
C4     C8      1.403   .     A
C4     C10     1.413   .     A
C5     C14     1.402   .     A
C5     C7      1.391   .     A
C5     H135    1.084   1_455 S
C6     C8      1.391   .     A
C6     C15     1.402   .     A
C6     H86     1.084   .     S
C7     F130    1.358   1_455 S
C8     F79     1.358   .     S
C9     C11     1.412   .     A
C9     F28     1.355   .     S
C10    F27     1.355   .     S
C10    C13     1.412   .     A
C11    C14     1.417   .     A
C11    C16     1.432   .     A
C12    C23     1.427   .     S
C12    O46     1.285   .     A
C12    O44     1.288   .     A
C13    C17     1.432   .     A
C13    C15     1.417   .     A
C14    C470    1.389   .     S
C15    C471    1.389   1_554 S
C16    C19     1.415   .     A
C16    C467    1.425   .     S
C17    C18     1.415   .     A
C17    C466    1.425   1_554 S
C18    H37     1.076   .     S
C18    C20     1.386   .     A
C19    H38     1.076   .     S
C19    C21     1.386   .     A
C20    H33     1.084   .     S
C20    C464    1.389   1_554 S
C21    H34     1.084   .     S
C21    C465    1.389   .     S
C22    C173    1.338   .     S
C22    F181    1.364   .     S
C23    C322    1.338   1_545 S
C23    F332    1.364   1_545 S
C24    O49     1.292   .     A
C24    O47     1.305   .     A
Cu25   N42     2.014   .     S
Cu25   O47     1.959   .     S
Cu25   Cu26    2.681   .     S
Cu25   O43     1.966   .     S
Cu25   O50     1.936   .     S
Cu25   O46     1.961   .     S
Cu26   O48     1.959   .     S
Cu26   O44     1.966   .     S
Cu26   N41     2.014   .     S
Cu26   O49     1.936   .     S
Cu26   O45     1.961   .     S
F29    C108    1.358   1_455 S
F30    C57     1.358   .     S
F31    C322    1.364   1_545 S
F32    C173    1.364   .     S
H35    C55     1.084   .     S
H36    C106    1.084   1_455 S
H39    N141    1.029   1_455 S
H40    N92     1.029   .     S
N41    H89     1.029   .     S
N41    N92     1.288   .     S
N42    H140    1.029   1_455 S
N42    N141    1.288   1_455 S
C51    C72     1.427   .     S
C51    O95     1.285   .     A
C51    O93     1.288   .     A
C52    C54     1.477   .     S
C52    O100    1.292   .     A
C52    O98     1.305   .     A
C53    C59     1.413   .     A
C53    C57     1.403   .     A
C53    C74     1.477   .     S
C54    C58     1.403   .     A
C54    C60     1.413   .     A
C55    C64     1.402   .     A
C55    C57     1.391   .     A
C56    C58     1.391   .     A
C56    C65     1.402   .     A
C56    H136    1.084   .     S
C58    F129    1.358   .     S
C59    C61     1.412   .     A
C59    F78     1.355   .     S
C60    F77     1.355   .     S
C60    C63     1.412   .     A
C61    C64     1.417   .     A
C61    C66     1.432   .     A
C62    C73     1.427   .     S
C62    O96     1.285   .     A
C62    O94     1.288   .     A
C63    C67     1.432   .     A
C63    C65     1.417   .     A
C64    C520    1.389   .     S
C65    C521    1.389   1_554 S
C66    C69     1.415   .     A
C66    C517    1.425   .     S
C67    C68     1.415   .     A
C67    C516    1.425   1_554 S
C68    H87     1.076   .     S
C68    C70     1.386   .     A
C69    H88     1.076   .     S
C69    C71     1.386   .     A
C70    H83     1.084   .     S
C70    C514    1.389   1_554 S
C71    H84     1.084   .     S
C71    C515    1.389   .     S
C72    C223    1.338   .     S
C72    F231    1.364   .     S
C73    C372    1.338   1_545 S
C73    F382    1.364   1_545 S
C74    O99     1.292   .     A
C74    O97     1.305   .     A
Cu75   N92     2.014   .     S
Cu75   O97     1.959   .     S
Cu75   Cu76    2.681   .     S
Cu75   O93     1.966   .     S
Cu75   O100    1.936   .     S
Cu75   O96     1.961   .     S
Cu76   O98     1.959   .     S
Cu76   O94     1.966   .     S
Cu76   N91     2.014   .     S
Cu76   O99     1.936   .     S
Cu76   O95     1.961   .     S
F80    C107    1.358   .     S
F81    C372    1.364   1_545 S
F82    C223    1.364   .     S
H85    C105    1.084   .     S
H90    N142    1.029   .     S
N91    H139    1.029   .     S
N91    N142    1.288   .     S
C101   C122    1.427   .     S
C101   O145    1.285   .     A
C101   O143    1.288   .     A
C102   C104    1.477   .     S
C102   O150    1.292   .     A
C102   O148    1.305   .     A
C103   C109    1.413   .     A
C103   C107    1.403   .     A
C103   C124    1.477   .     S
C104   C108    1.403   .     A
C104   C110    1.413   .     A
C105   C114    1.402   .     A
C105   C107    1.391   .     A
C106   C108    1.391   .     A
C106   C115    1.402   .     A
C106   H36     1.084   1_655 S
C108   F29     1.358   1_655 S
C109   C111    1.412   .     A
C109   F128    1.355   .     S
C110   F127    1.355   .     S
C110   C113    1.412   .     A
C111   C114    1.417   .     A
C111   C116    1.432   .     A
C112   C123    1.427   .     S
C112   O146    1.285   .     A
C112   O144    1.288   .     A
C113   C117    1.432   .     A
C113   C115    1.417   .     A
C114   C570    1.389   .     S
C115   C571    1.389   1_554 S
C116   C119    1.415   .     A
C116   C567    1.425   .     S
C117   C118    1.415   .     A
C117   C566    1.425   1_554 S
C118   H137    1.076   .     S
C118   C120    1.386   .     A
C119   H138    1.076   .     S
C119   C121    1.386   .     A
C120   H133    1.084   .     S
C120   C564    1.389   1_554 S
C121   H134    1.084   .     S
C121   C565    1.389   .     S
C122   C273    1.338   .     S
C122   F281    1.364   .     S
C123   C422    1.338   1_545 S
C123   F432    1.364   1_545 S
C124   O149    1.292   .     A
C124   O147    1.305   .     A
Cu125  N142    2.014   .     S
Cu125  O147    1.959   .     S
Cu125  Cu126   2.681   .     S
Cu125  O143    1.966   .     S
Cu125  O150    1.936   .     S
Cu125  O146    1.961   .     S
Cu126  O148    1.959   .     S
Cu126  O144    1.966   .     S
Cu126  N141    2.014   .     S
Cu126  O149    1.936   .     S
Cu126  O145    1.961   .     S
F130   C7      1.358   1_655 S
F131   C422    1.364   1_545 S
F132   C273    1.364   .     S
H135   C5      1.084   1_655 S
H140   N42     1.029   1_655 S
N141   H39     1.029   1_655 S
N141   N42     1.288   1_655 S
C151   C172    1.427   .     S
C151   O195    1.285   .     A
C151   O193    1.288   .     A
C152   C154    1.477   .     S
C152   O200    1.292   .     A
C152   O198    1.305   .     A
C153   C159    1.413   .     A
C153   C157    1.403   .     A
C153   C174    1.477   .     S
C154   C158    1.403   .     A
C154   C160    1.413   .     A
C155   C164    1.402   .     A
C155   C157    1.391   .     A
C155   H285    1.084   1_455 S
C156   C158    1.391   .     A
C156   C165    1.402   .     A
C156   H236    1.084   .     S
C157   F280    1.358   1_455 S
C158   F229    1.358   .     S
C159   C161    1.412   .     A
C159   F178    1.355   .     S
C160   F177    1.355   .     S
C160   C163    1.412   .     A
C161   C164    1.417   .     A
C161   C166    1.432   .     A
C162   C173    1.427   .     S
C162   O196    1.285   .     A
C162   O194    1.288   .     A
C163   C167    1.432   .     A
C163   C165    1.417   .     A
C164   C620    1.389   .     S
C165   C621    1.389   1_554 S
C166   C169    1.415   .     A
C166   C617    1.425   .     S
C167   C168    1.415   .     A
C167   C616    1.425   1_554 S
C168   H187    1.076   .     S
C168   C170    1.386   .     A
C169   H188    1.076   .     S
C169   C171    1.386   .     A
C170   H183    1.084   .     S
C170   C614    1.389   1_554 S
C171   H184    1.084   .     S
C171   C615    1.389   .     S
C172   C323    1.338   .     S
C172   F331    1.364   .     S
C174   O199    1.292   .     A
C174   O197    1.305   .     A
Cu175  N192    2.014   .     S
Cu175  O197    1.959   .     S
Cu175  Cu176   2.681   .     S
Cu175  O193    1.966   .     S
Cu175  O200    1.936   .     S
Cu175  O196    1.961   .     S
Cu176  O198    1.959   .     S
Cu176  O194    1.966   .     S
Cu176  N191    2.014   .     S
Cu176  O199    1.936   .     S
Cu176  O195    1.961   .     S
F179   C258    1.358   1_455 S
F180   C207    1.358   .     S
F182   C323    1.364   .     S
H185   C205    1.084   .     S
H186   C256    1.084   1_455 S
H189   N291    1.029   1_455 S
H190   N242    1.029   .     S
N191   H239    1.029   .     S
N191   N242    1.288   .     S
N192   H290    1.029   1_455 S
N192   N291    1.288   1_455 S
C201   C222    1.427   .     S
C201   O245    1.285   .     A
C201   O243    1.288   .     A
C202   C204    1.477   .     S
C202   O250    1.292   .     A
C202   O248    1.305   .     A
C203   C209    1.413   .     A
C203   C207    1.403   .     A
C203   C224    1.477   .     S
C204   C208    1.403   .     A
C204   C210    1.413   .     A
C205   C214    1.402   .     A
C205   C207    1.391   .     A
C206   C208    1.391   .     A
C206   C215    1.402   .     A
C206   H286    1.084   .     S
C208   F279    1.358   .     S
C209   C211    1.412   .     A
C209   F228    1.355   .     S
C210   F227    1.355   .     S
C210   C213    1.412   .     A
C211   C214    1.417   .     A
C211   C216    1.432   .     A
C212   C223    1.427   .     S
C212   O246    1.285   .     A
C212   O244    1.288   .     A
C213   C217    1.432   .     A
C213   C215    1.417   .     A
C214   C670    1.389   .     S
C215   C671    1.389   1_554 S
C216   C219    1.415   .     A
C216   C667    1.425   .     S
C217   C218    1.415   .     A
C217   C666    1.425   1_554 S
C218   H237    1.076   .     S
C218   C220    1.386   .     A
C219   H238    1.076   .     S
C219   C221    1.386   .     A
C220   H233    1.084   .     S
C220   C664    1.389   1_554 S
C221   H234    1.084   .     S
C221   C665    1.389   .     S
C222   C373    1.338   .     S
C222   F381    1.364   .     S
C224   O249    1.292   .     A
C224   O247    1.305   .     A
Cu225  N242    2.014   .     S
Cu225  O247    1.959   .     S
Cu225  Cu226   2.681   .     S
Cu225  O243    1.966   .     S
Cu225  O250    1.936   .     S
Cu225  O246    1.961   .     S
Cu226  O248    1.959   .     S
Cu226  O244    1.966   .     S
Cu226  N241    2.014   .     S
Cu226  O249    1.936   .     S
Cu226  O245    1.961   .     S
F230   C257    1.358   .     S
F232   C373    1.364   .     S
H235   C255    1.084   .     S
H240   N292    1.029   .     S
N241   H289    1.029   .     S
N241   N292    1.288   .     S
C251   C272    1.427   .     S
C251   O295    1.285   .     A
C251   O293    1.288   .     A
C252   C254    1.477   .     S
C252   O300    1.292   .     A
C252   O298    1.305   .     A
C253   C259    1.413   .     A
C253   C257    1.403   .     A
C253   C274    1.477   .     S
C254   C258    1.403   .     A
C254   C260    1.413   .     A
C255   C264    1.402   .     A
C255   C257    1.391   .     A
C256   C258    1.391   .     A
C256   C265    1.402   .     A
C256   H186    1.084   1_655 S
C258   F179    1.358   1_655 S
C259   C261    1.412   .     A
C259   F278    1.355   .     S
C260   F277    1.355   .     S
C260   C263    1.412   .     A
C261   C264    1.417   .     A
C261   C266    1.432   .     A
C262   C273    1.427   .     S
C262   O296    1.285   .     A
C262   O294    1.288   .     A
C263   C267    1.432   .     A
C263   C265    1.417   .     A
C264   C720    1.389   .     S
C265   C721    1.389   1_554 S
C266   C269    1.415   .     A
C266   C717    1.425   .     S
C267   C268    1.415   .     A
C267   C716    1.425   1_554 S
C268   H287    1.076   .     S
C268   C270    1.386   .     A
C269   H288    1.076   .     S
C269   C271    1.386   .     A
C270   H283    1.084   .     S
C270   C714    1.389   1_554 S
C271   H284    1.084   .     S
C271   C715    1.389   .     S
C272   C423    1.338   .     S
C272   F431    1.364   .     S
C274   O299    1.292   .     A
C274   O297    1.305   .     A
Cu275  N292    2.014   .     S
Cu275  O297    1.959   .     S
Cu275  Cu276   2.681   .     S
Cu275  O293    1.966   .     S
Cu275  O300    1.936   .     S
Cu275  O296    1.961   .     S
Cu276  O298    1.959   .     S
Cu276  O294    1.966   .     S
Cu276  N291    2.014   .     S
Cu276  O299    1.936   .     S
Cu276  O295    1.961   .     S
F280   C157    1.358   1_655 S
F282   C423    1.364   .     S
H285   C155    1.084   1_655 S
H290   N192    1.029   1_655 S
N291   H189    1.029   1_655 S
N291   N192    1.288   1_655 S
C301   C322    1.427   .     S
C301   O345    1.285   .     A
C301   O343    1.288   .     A
C302   C304    1.477   .     S
C302   O350    1.292   .     A
C302   O348    1.305   .     A
C303   C309    1.413   .     A
C303   C307    1.403   .     A
C303   C324    1.477   .     S
C304   C308    1.403   .     A
C304   C310    1.413   .     A
C305   C314    1.402   .     A
C305   C307    1.391   .     A
C305   H435    1.084   1_455 S
C306   C308    1.391   .     A
C306   C315    1.402   .     A
C306   H386    1.084   .     S
C307   F430    1.358   1_455 S
C308   F379    1.358   .     S
C309   C311    1.412   .     A
C309   F328    1.355   .     S
C310   F327    1.355   .     S
C310   C313    1.412   .     A
C311   C314    1.417   .     A
C311   C316    1.432   .     A
C312   C323    1.427   .     S
C312   O346    1.285   .     A
C312   O344    1.288   .     A
C313   C317    1.432   .     A
C313   C315    1.417   .     A
C314   C770    1.389   .     S
C315   C771    1.389   1_554 S
C316   C319    1.415   .     A
C316   C767    1.425   .     S
C317   C318    1.415   .     A
C317   C766    1.425   1_554 S
C318   H337    1.076   .     S
C318   C320    1.386   .     A
C319   H338    1.076   .     S
C319   C321    1.386   .     A
C320   H333    1.084   .     S
C320   C764    1.389   1_554 S
C321   H334    1.084   .     S
C321   C765    1.389   .     S
C322   C23     1.338   1_565 S
C322   F31     1.364   1_565 S
C324   O349    1.292   .     A
C324   O347    1.305   .     A
Cu325  N342    2.014   .     S
Cu325  O347    1.959   .     S
Cu325  Cu326   2.681   .     S
Cu325  O343    1.966   .     S
Cu325  O350    1.936   .     S
Cu325  O346    1.961   .     S
Cu326  O348    1.959   .     S
Cu326  O344    1.966   .     S
Cu326  N341    2.014   .     S
Cu326  O349    1.936   .     S
Cu326  O345    1.961   .     S
F329   C408    1.358   1_455 S
F330   C357    1.358   .     S
F332   C23     1.364   1_565 S
H335   C355    1.084   .     S
H336   C406    1.084   1_455 S
H339   N441    1.029   1_455 S
H340   N392    1.029   .     S
N341   H389    1.029   .     S
N341   N392    1.288   .     S
N342   H440    1.029   1_455 S
N342   N441    1.288   1_455 S
C351   C372    1.427   .     S
C351   O395    1.285   .     A
C351   O393    1.288   .     A
C352   C354    1.477   .     S
C352   O400    1.292   .     A
C352   O398    1.305   .     A
C353   C359    1.413   .     A
C353   C357    1.403   .     A
C353   C374    1.477   .     S
C354   C358    1.403   .     A
C354   C360    1.413   .     A
C355   C364    1.402   .     A
C355   C357    1.391   .     A
C356   C358    1.391   .     A
C356   C365    1.402   .     A
C356   H436    1.084   .     S
C358   F429    1.358   .     S
C359   C361    1.412   .     A
C359   F378    1.355   .     S
C360   F377    1.355   .     S
C360   C363    1.412   .     A
C361   C364    1.417   .     A
C361   C366    1.432   .     A
C362   C373    1.427   .     S
C362   O396    1.285   .     A
C362   O394    1.288   .     A
C363   C367    1.432   .     A
C363   C365    1.417   .     A
C364   C820    1.389   .     S
C365   C821    1.389   1_554 S
C366   C369    1.415   .     A
C366   C817    1.425   .     S
C367   C368    1.415   .     A
C367   C816    1.425   1_554 S
C368   H387    1.076   .     S
C368   C370    1.386   .     A
C369   H388    1.076   .     S
C369   C371    1.386   .     A
C370   H383    1.084   .     S
C370   C814    1.389   1_554 S
C371   H384    1.084   .     S
C371   C815    1.389   .     S
C372   C73     1.338   1_565 S
C372   F81     1.364   1_565 S
C374   O399    1.292   .     A
C374   O397    1.305   .     A
Cu375  N392    2.014   .     S
Cu375  O397    1.959   .     S
Cu375  Cu376   2.681   .     S
Cu375  O393    1.966   .     S
Cu375  O400    1.936   .     S
Cu375  O396    1.961   .     S
Cu376  O398    1.959   .     S
Cu376  O394    1.966   .     S
Cu376  N391    2.014   .     S
Cu376  O399    1.936   .     S
Cu376  O395    1.961   .     S
F380   C407    1.358   .     S
F382   C73     1.364   1_565 S
H385   C405    1.084   .     S
H390   N442    1.029   .     S
N391   H439    1.029   .     S
N391   N442    1.288   .     S
C401   C422    1.427   .     S
C401   O445    1.285   .     A
C401   O443    1.288   .     A
C402   C404    1.477   .     S
C402   O450    1.292   .     A
C402   O448    1.305   .     A
C403   C409    1.413   .     A
C403   C407    1.403   .     A
C403   C424    1.477   .     S
C404   C408    1.403   .     A
C404   C410    1.413   .     A
C405   C414    1.402   .     A
C405   C407    1.391   .     A
C406   C408    1.391   .     A
C406   C415    1.402   .     A
C406   H336    1.084   1_655 S
C408   F329    1.358   1_655 S
C409   C411    1.412   .     A
C409   F428    1.355   .     S
C410   F427    1.355   .     S
C410   C413    1.412   .     A
C411   C414    1.417   .     A
C411   C416    1.432   .     A
C412   C423    1.427   .     S
C412   O446    1.285   .     A
C412   O444    1.288   .     A
C413   C417    1.432   .     A
C413   C415    1.417   .     A
C414   C870    1.389   .     S
C415   C871    1.389   1_554 S
C416   C419    1.415   .     A
C416   C867    1.425   .     S
C417   C418    1.415   .     A
C417   C866    1.425   1_554 S
C418   H437    1.076   .     S
C418   C420    1.386   .     A
C419   H438    1.076   .     S
C419   C421    1.386   .     A
C420   H433    1.084   .     S
C420   C864    1.389   1_554 S
C421   H434    1.084   .     S
C421   C865    1.389   .     S
C422   C123    1.338   1_565 S
C422   F131    1.364   1_565 S
C424   O449    1.292   .     A
C424   O447    1.305   .     A
Cu425  N442    2.014   .     S
Cu425  O447    1.959   .     S
Cu425  Cu426   2.681   .     S
Cu425  O443    1.966   .     S
Cu425  O450    1.936   .     S
Cu425  O446    1.961   .     S
Cu426  O448    1.959   .     S
Cu426  O444    1.966   .     S
Cu426  N441    2.014   .     S
Cu426  O449    1.936   .     S
Cu426  O445    1.961   .     S
F430   C307    1.358   1_655 S
F432   C123    1.364   1_565 S
H435   C305    1.084   1_655 S
H440   N342    1.029   1_655 S
N441   H339    1.029   1_655 S
N441   N342    1.288   1_655 S
C451   C472    1.427   .     S
C451   O495    1.285   .     A
C451   O493    1.288   .     A
C452   C454    1.477   .     S
C452   O500    1.292   .     A
C452   O498    1.305   .     A
C453   C459    1.413   .     A
C453   C457    1.403   .     A
C453   C474    1.477   .     S
C454   C458    1.403   .     A
C454   C460    1.413   .     A
C455   C464    1.402   .     A
C455   C457    1.391   .     A
C455   H585    1.084   1_455 S
C456   C458    1.391   .     A
C456   C465    1.402   .     A
C456   H536    1.084   .     S
C457   F580    1.358   1_455 S
C458   F529    1.358   .     S
C459   C461    1.412   .     A
C459   F478    1.355   .     S
C460   F477    1.355   .     S
C460   C463    1.412   .     A
C461   C464    1.417   .     A
C461   C466    1.432   .     A
C462   C473    1.427   .     S
C462   O496    1.285   .     A
C462   O494    1.288   .     A
C463   C467    1.432   .     A
C463   C465    1.417   .     A
C464   C20     1.389   1_556 S
C466   C469    1.415   .     A
C466   C17     1.425   1_556 S
C467   C468    1.415   .     A
C468   H487    1.076   .     S
C468   C470    1.386   .     A
C469   H488    1.076   .     S
C469   C471    1.386   .     A
C470   H483    1.084   .     S
C471   H484    1.084   .     S
C471   C15     1.389   1_556 S
C472   C623    1.338   .     S
C472   F631    1.364   .     S
C473   C772    1.338   1_545 S
C473   F782    1.364   1_545 S
C474   O499    1.292   .     A
C474   O497    1.305   .     A
Cu475  N492    2.014   .     S
Cu475  O497    1.959   .     S
Cu475  Cu476   2.681   .     S
Cu475  O493    1.966   .     S
Cu475  O500    1.936   .     S
Cu475  O496    1.961   .     S
Cu476  O498    1.959   .     S
Cu476  O494    1.966   .     S
Cu476  N491    2.014   .     S
Cu476  O499    1.936   .     S
Cu476  O495    1.961   .     S
F479   C558    1.358   1_455 S
F480   C507    1.358   .     S
F481   C772    1.364   1_545 S
F482   C623    1.364   .     S
H485   C505    1.084   .     S
H486   C556    1.084   1_455 S
H489   N591    1.029   1_455 S
H490   N542    1.029   .     S
N491   H539    1.029   .     S
N491   N542    1.288   .     S
N492   H590    1.029   1_455 S
N492   N591    1.288   1_455 S
C501   C522    1.427   .     S
C501   O545    1.285   .     A
C501   O543    1.288   .     A
C502   C504    1.477   .     S
C502   O550    1.292   .     A
C502   O548    1.305   .     A
C503   C509    1.413   .     A
C503   C507    1.403   .     A
C503   C524    1.477   .     S
C504   C508    1.403   .     A
C504   C510    1.413   .     A
C505   C514    1.402   .     A
C505   C507    1.391   .     A
C506   C508    1.391   .     A
C506   C515    1.402   .     A
C506   H586    1.084   .     S
C508   F579    1.358   .     S
C509   C511    1.412   .     A
C509   F528    1.355   .     S
C510   F527    1.355   .     S
C510   C513    1.412   .     A
C511   C514    1.417   .     A
C511   C516    1.432   .     A
C512   C523    1.427   .     S
C512   O546    1.285   .     A
C512   O544    1.288   .     A
C513   C517    1.432   .     A
C513   C515    1.417   .     A
C514   C70     1.389   1_556 S
C516   C519    1.415   .     A
C516   C67     1.425   1_556 S
C517   C518    1.415   .     A
C518   H537    1.076   .     S
C518   C520    1.386   .     A
C519   H538    1.076   .     S
C519   C521    1.386   .     A
C520   H533    1.084   .     S
C521   H534    1.084   .     S
C521   C65     1.389   1_556 S
C522   C673    1.338   .     S
C522   F681    1.364   .     S
C523   C822    1.338   1_545 S
C523   F832    1.364   1_545 S
C524   O549    1.292   .     A
C524   O547    1.305   .     A
Cu525  N542    2.014   .     S
Cu525  O547    1.959   .     S
Cu525  Cu526   2.681   .     S
Cu525  O543    1.966   .     S
Cu525  O550    1.936   .     S
Cu525  O546    1.961   .     S
Cu526  O548    1.959   .     S
Cu526  O544    1.966   .     S
Cu526  N541    2.014   .     S
Cu526  O549    1.936   .     S
Cu526  O545    1.961   .     S
F530   C557    1.358   .     S
F531   C822    1.364   1_545 S
F532   C673    1.364   .     S
H535   C555    1.084   .     S
H540   N592    1.029   .     S
N541   H589    1.029   .     S
N541   N592    1.288   .     S
C551   C572    1.427   .     S
C551   O595    1.285   .     A
C551   O593    1.288   .     A
C552   C554    1.477   .     S
C552   O600    1.292   .     A
C552   O598    1.305   .     A
C553   C559    1.413   .     A
C553   C557    1.403   .     A
C553   C574    1.477   .     S
C554   C558    1.403   .     A
C554   C560    1.413   .     A
C555   C564    1.402   .     A
C555   C557    1.391   .     A
C556   C558    1.391   .     A
C556   C565    1.402   .     A
C556   H486    1.084   1_655 S
C558   F479    1.358   1_655 S
C559   C561    1.412   .     A
C559   F578    1.355   .     S
C560   F577    1.355   .     S
C560   C563    1.412   .     A
C561   C564    1.417   .     A
C561   C566    1.432   .     A
C562   C573    1.427   .     S
C562   O596    1.285   .     A
C562   O594    1.288   .     A
C563   C567    1.432   .     A
C563   C565    1.417   .     A
C564   C120    1.389   1_556 S
C566   C569    1.415   .     A
C566   C117    1.425   1_556 S
C567   C568    1.415   .     A
C568   H587    1.076   .     S
C568   C570    1.386   .     A
C569   H588    1.076   .     S
C569   C571    1.386   .     A
C570   H583    1.084   .     S
C571   H584    1.084   .     S
C571   C115    1.389   1_556 S
C572   C723    1.338   .     S
C572   F731    1.364   .     S
C573   C872    1.338   1_545 S
C573   F882    1.364   1_545 S
C574   O599    1.292   .     A
C574   O597    1.305   .     A
Cu575  N592    2.014   .     S
Cu575  O597    1.959   .     S
Cu575  Cu576   2.681   .     S
Cu575  O593    1.966   .     S
Cu575  O600    1.936   .     S
Cu575  O596    1.961   .     S
Cu576  O598    1.959   .     S
Cu576  O594    1.966   .     S
Cu576  N591    2.014   .     S
Cu576  O599    1.936   .     S
Cu576  O595    1.961   .     S
F580   C457    1.358   1_655 S
F581   C872    1.364   1_545 S
F582   C723    1.364   .     S
H585   C455    1.084   1_655 S
H590   N492    1.029   1_655 S
N591   H489    1.029   1_655 S
N591   N492    1.288   1_655 S
C601   C622    1.427   .     S
C601   O645    1.285   .     A
C601   O643    1.288   .     A
C602   C604    1.477   .     S
C602   O650    1.292   .     A
C602   O648    1.305   .     A
C603   C609    1.413   .     A
C603   C607    1.403   .     A
C603   C624    1.477   .     S
C604   C608    1.403   .     A
C604   C610    1.413   .     A
C605   C614    1.402   .     A
C605   C607    1.391   .     A
C605   H735    1.084   1_455 S
C606   C608    1.391   .     A
C606   C615    1.402   .     A
C606   H686    1.084   .     S
C607   F730    1.358   1_455 S
C608   F679    1.358   .     S
C609   C611    1.412   .     A
C609   F628    1.355   .     S
C610   F627    1.355   .     S
C610   C613    1.412   .     A
C611   C614    1.417   .     A
C611   C616    1.432   .     A
C612   C623    1.427   .     S
C612   O646    1.285   .     A
C612   O644    1.288   .     A
C613   C617    1.432   .     A
C613   C615    1.417   .     A
C614   C170    1.389   1_556 S
C616   C619    1.415   .     A
C616   C167    1.425   1_556 S
C617   C618    1.415   .     A
C618   H637    1.076   .     S
C618   C620    1.386   .     A
C619   H638    1.076   .     S
C619   C621    1.386   .     A
C620   H633    1.084   .     S
C621   H634    1.084   .     S
C621   C165    1.389   1_556 S
C622   C773    1.338   .     S
C622   F781    1.364   .     S
C624   O649    1.292   .     A
C624   O647    1.305   .     A
Cu625  N642    2.014   .     S
Cu625  O647    1.959   .     S
Cu625  Cu626   2.681   .     S
Cu625  O643    1.966   .     S
Cu625  O650    1.936   .     S
Cu625  O646    1.961   .     S
Cu626  O648    1.959   .     S
Cu626  O644    1.966   .     S
Cu626  N641    2.014   .     S
Cu626  O649    1.936   .     S
Cu626  O645    1.961   .     S
F629   C708    1.358   1_455 S
F630   C657    1.358   .     S
F632   C773    1.364   .     S
H635   C655    1.084   .     S
H636   C706    1.084   1_455 S
H639   N741    1.029   1_455 S
H640   N692    1.029   .     S
N641   H689    1.029   .     S
N641   N692    1.288   .     S
N642   H740    1.029   1_455 S
N642   N741    1.288   1_455 S
C651   C672    1.427   .     S
C651   O695    1.285   .     A
C651   O693    1.288   .     A
C652   C654    1.477   .     S
C652   O700    1.292   .     A
C652   O698    1.305   .     A
C653   C659    1.413   .     A
C653   C657    1.403   .     A
C653   C674    1.477   .     S
C654   C658    1.403   .     A
C654   C660    1.413   .     A
C655   C664    1.402   .     A
C655   C657    1.391   .     A
C656   C658    1.391   .     A
C656   C665    1.402   .     A
C656   H736    1.084   .     S
C658   F729    1.358   .     S
C659   C661    1.412   .     A
C659   F678    1.355   .     S
C660   F677    1.355   .     S
C660   C663    1.412   .     A
C661   C664    1.417   .     A
C661   C666    1.432   .     A
C662   C673    1.427   .     S
C662   O696    1.285   .     A
C662   O694    1.288   .     A
C663   C667    1.432   .     A
C663   C665    1.417   .     A
C664   C220    1.389   1_556 S
C666   C669    1.415   .     A
C666   C217    1.425   1_556 S
C667   C668    1.415   .     A
C668   H687    1.076   .     S
C668   C670    1.386   .     A
C669   H688    1.076   .     S
C669   C671    1.386   .     A
C670   H683    1.084   .     S
C671   H684    1.084   .     S
C671   C215    1.389   1_556 S
C672   C823    1.338   .     S
C672   F831    1.364   .     S
C674   O699    1.292   .     A
C674   O697    1.305   .     A
Cu675  N692    2.014   .     S
Cu675  O697    1.959   .     S
Cu675  Cu676   2.681   .     S
Cu675  O693    1.966   .     S
Cu675  O700    1.936   .     S
Cu675  O696    1.961   .     S
Cu676  O698    1.959   .     S
Cu676  O694    1.966   .     S
Cu676  N691    2.014   .     S
Cu676  O699    1.936   .     S
Cu676  O695    1.961   .     S
F680   C707    1.358   .     S
F682   C823    1.364   .     S
H685   C705    1.084   .     S
H690   N742    1.029   .     S
N691   H739    1.029   .     S
N691   N742    1.288   .     S
C701   C722    1.427   .     S
C701   O745    1.285   .     A
C701   O743    1.288   .     A
C702   C704    1.477   .     S
C702   O750    1.292   .     A
C702   O748    1.305   .     A
C703   C709    1.413   .     A
C703   C707    1.403   .     A
C703   C724    1.477   .     S
C704   C708    1.403   .     A
C704   C710    1.413   .     A
C705   C714    1.402   .     A
C705   C707    1.391   .     A
C706   C708    1.391   .     A
C706   C715    1.402   .     A
C706   H636    1.084   1_655 S
C708   F629    1.358   1_655 S
C709   C711    1.412   .     A
C709   F728    1.355   .     S
C710   F727    1.355   .     S
C710   C713    1.412   .     A
C711   C714    1.417   .     A
C711   C716    1.432   .     A
C712   C723    1.427   .     S
C712   O746    1.285   .     A
C712   O744    1.288   .     A
C713   C717    1.432   .     A
C713   C715    1.417   .     A
C714   C270    1.389   1_556 S
C716   C719    1.415   .     A
C716   C267    1.425   1_556 S
C717   C718    1.415   .     A
C718   H737    1.076   .     S
C718   C720    1.386   .     A
C719   H738    1.076   .     S
C719   C721    1.386   .     A
C720   H733    1.084   .     S
C721   H734    1.084   .     S
C721   C265    1.389   1_556 S
C722   C873    1.338   .     S
C722   F881    1.364   .     S
C724   O749    1.292   .     A
C724   O747    1.305   .     A
Cu725  N742    2.014   .     S
Cu725  O747    1.959   .     S
Cu725  Cu726   2.681   .     S
Cu725  O743    1.966   .     S
Cu725  O750    1.936   .     S
Cu725  O746    1.961   .     S
Cu726  O748    1.959   .     S
Cu726  O744    1.966   .     S
Cu726  N741    2.014   .     S
Cu726  O749    1.936   .     S
Cu726  O745    1.961   .     S
F730   C607    1.358   1_655 S
F732   C873    1.364   .     S
H735   C605    1.084   1_655 S
H740   N642    1.029   1_655 S
N741   H639    1.029   1_655 S
N741   N642    1.288   1_655 S
C751   C772    1.427   .     S
C751   O795    1.285   .     A
C751   O793    1.288   .     A
C752   C754    1.477   .     S
C752   O800    1.292   .     A
C752   O798    1.305   .     A
C753   C759    1.413   .     A
C753   C757    1.403   .     A
C753   C774    1.477   .     S
C754   C758    1.403   .     A
C754   C760    1.413   .     A
C755   C764    1.402   .     A
C755   C757    1.391   .     A
C755   H885    1.084   1_455 S
C756   C758    1.391   .     A
C756   C765    1.402   .     A
C756   H836    1.084   .     S
C757   F880    1.358   1_455 S
C758   F829    1.358   .     S
C759   C761    1.412   .     A
C759   F778    1.355   .     S
C760   F777    1.355   .     S
C760   C763    1.412   .     A
C761   C764    1.417   .     A
C761   C766    1.432   .     A
C762   C773    1.427   .     S
C762   O796    1.285   .     A
C762   O794    1.288   .     A
C763   C767    1.432   .     A
C763   C765    1.417   .     A
C764   C320    1.389   1_556 S
C766   C769    1.415   .     A
C766   C317    1.425   1_556 S
C767   C768    1.415   .     A
C768   H787    1.076   .     S
C768   C770    1.386   .     A
C769   H788    1.076   .     S
C769   C771    1.386   .     A
C770   H783    1.084   .     S
C771   H784    1.084   .     S
C771   C315    1.389   1_556 S
C772   C473    1.338   1_565 S
C772   F481    1.364   1_565 S
C774   O799    1.292   .     A
C774   O797    1.305   .     A
Cu775  N792    2.014   .     S
Cu775  O797    1.959   .     S
Cu775  Cu776   2.681   .     S
Cu775  O793    1.966   .     S
Cu775  O800    1.936   .     S
Cu775  O796    1.961   .     S
Cu776  O798    1.959   .     S
Cu776  O794    1.966   .     S
Cu776  N791    2.014   .     S
Cu776  O799    1.936   .     S
Cu776  O795    1.961   .     S
F779   C858    1.358   1_455 S
F780   C807    1.358   .     S
F782   C473    1.364   1_565 S
H785   C805    1.084   .     S
H786   C856    1.084   1_455 S
H789   N891    1.029   1_455 S
H790   N842    1.029   .     S
N791   H839    1.029   .     S
N791   N842    1.288   .     S
N792   H890    1.029   1_455 S
N792   N891    1.288   1_455 S
C801   C822    1.427   .     S
C801   O845    1.285   .     A
C801   O843    1.288   .     A
C802   C804    1.477   .     S
C802   O850    1.292   .     A
C802   O848    1.305   .     A
C803   C809    1.413   .     A
C803   C807    1.403   .     A
C803   C824    1.477   .     S
C804   C808    1.403   .     A
C804   C810    1.413   .     A
C805   C814    1.402   .     A
C805   C807    1.391   .     A
C806   C808    1.391   .     A
C806   C815    1.402   .     A
C806   H886    1.084   .     S
C808   F879    1.358   .     S
C809   C811    1.412   .     A
C809   F828    1.355   .     S
C810   F827    1.355   .     S
C810   C813    1.412   .     A
C811   C814    1.417   .     A
C811   C816    1.432   .     A
C812   C823    1.427   .     S
C812   O846    1.285   .     A
C812   O844    1.288   .     A
C813   C817    1.432   .     A
C813   C815    1.417   .     A
C814   C370    1.389   1_556 S
C816   C819    1.415   .     A
C816   C367    1.425   1_556 S
C817   C818    1.415   .     A
C818   H837    1.076   .     S
C818   C820    1.386   .     A
C819   H838    1.076   .     S
C819   C821    1.386   .     A
C820   H833    1.084   .     S
C821   H834    1.084   .     S
C821   C365    1.389   1_556 S
C822   C523    1.338   1_565 S
C822   F531    1.364   1_565 S
C824   O849    1.292   .     A
C824   O847    1.305   .     A
Cu825  N842    2.014   .     S
Cu825  O847    1.959   .     S
Cu825  Cu826   2.681   .     S
Cu825  O843    1.966   .     S
Cu825  O850    1.936   .     S
Cu825  O846    1.961   .     S
Cu826  O848    1.959   .     S
Cu826  O844    1.966   .     S
Cu826  N841    2.014   .     S
Cu826  O849    1.936   .     S
Cu826  O845    1.961   .     S
F830   C857    1.358   .     S
F832   C523    1.364   1_565 S
H835   C855    1.084   .     S
H840   N892    1.029   .     S
N841   H889    1.029   .     S
N841   N892    1.288   .     S
C851   C872    1.427   .     S
C851   O895    1.285   .     A
C851   O893    1.288   .     A
C852   C854    1.477   .     S
C852   O900    1.292   .     A
C852   O898    1.305   .     A
C853   C859    1.413   .     A
C853   C857    1.403   .     A
C853   C874    1.477   .     S
C854   C858    1.403   .     A
C854   C860    1.413   .     A
C855   C864    1.402   .     A
C855   C857    1.391   .     A
C856   C858    1.391   .     A
C856   C865    1.402   .     A
C856   H786    1.084   1_655 S
C858   F779    1.358   1_655 S
C859   C861    1.412   .     A
C859   F878    1.355   .     S
C860   F877    1.355   .     S
C860   C863    1.412   .     A
C861   C864    1.417   .     A
C861   C866    1.432   .     A
C862   C873    1.427   .     S
C862   O896    1.285   .     A
C862   O894    1.288   .     A
C863   C867    1.432   .     A
C863   C865    1.417   .     A
C864   C420    1.389   1_556 S
C866   C869    1.415   .     A
C866   C417    1.425   1_556 S
C867   C868    1.415   .     A
C868   H887    1.076   .     S
C868   C870    1.386   .     A
C869   H888    1.076   .     S
C869   C871    1.386   .     A
C870   H883    1.084   .     S
C871   H884    1.084   .     S
C871   C415    1.389   1_556 S
C872   C573    1.338   1_565 S
C872   F581    1.364   1_565 S
C874   O899    1.292   .     A
C874   O897    1.305   .     A
Cu875  N892    2.014   .     S
Cu875  O897    1.959   .     S
Cu875  Cu876   2.681   .     S
Cu875  O893    1.966   .     S
Cu875  O900    1.936   .     S
Cu875  O896    1.961   .     S
Cu876  O898    1.959   .     S
Cu876  O894    1.966   .     S
Cu876  N891    2.014   .     S
Cu876  O899    1.936   .     S
Cu876  O895    1.961   .     S
F880   C757    1.358   1_655 S
F882   C573    1.364   1_565 S
H885   C755    1.084   1_655 S
H890   N792    1.029   1_655 S
N891   H789    1.029   1_655 S
N891   N792    1.288   1_655 S
