data_str_m2_o1_o16_pcu_sym.87
_audit_creation_date              2020-01-03
_audit_creation_method            'Materials Studio'
_symmetry_space_group_name_H-M    'P1'
_symmetry_Int_Tables_number       1
_symmetry_cell_setting            triclinic
loop_
_symmetry_equiv_pos_as_xyz
  x,y,z
_cell_length_a                    28.6038
_cell_length_b                    32.4817
_cell_length_c                    26.8771
_cell_angle_alpha                 90.4500
_cell_angle_beta                  72.2333
_cell_angle_gamma                 89.9138
loop_
_atom_site_label
_atom_site_type_symbol
_atom_site_fract_x
_atom_site_fract_y
_atom_site_fract_z
_atom_site_U_iso_or_equiv
_atom_site_adp_type
_atom_site_occupancy
O1     O     0.12708   0.22678   0.25001   0.00000  Uiso   1.00
O2     O     0.20627   0.22679   0.25001   0.00000  Uiso   1.00
C3     C     0.16654   0.24589   0.25031   0.00000  Uiso   1.00
O4     O     0.10775   0.16665   0.32549   0.00000  Uiso   1.00
O5     O     0.18694   0.16666   0.32549   0.00000  Uiso   1.00
C6     C     0.14038   0.16426   0.35008   0.00000  Uiso   1.00
Cu7    Cu    0.11978   0.16666   0.25000   0.00000  Uiso   1.00
Cu8    Cu    0.21355   0.16667   0.25000   0.00000  Uiso   1.00
O9     O     0.12706   0.10654   0.25000   0.00000  Uiso   1.00
O10    O     0.20625   0.10655   0.25000   0.00000  Uiso   1.00
O11    O     0.14640   0.16667   0.17451   0.00000  Uiso   1.00
O12    O     0.22559   0.16668   0.17451   0.00000  Uiso   1.00
C13    C     0.16628   0.08741   0.25112   0.00000  Uiso   1.00
C14    C     0.19309   0.16654   0.14983   0.00000  Uiso   1.00
C15    C     0.26314   0.13264   0.01334   0.00000  Uiso   1.00
H16    H     0.29823   0.11851   0.49319   0.00000  Uiso   1.00
C17    C     0.20860   0.16183   0.09275   0.00000  Uiso   1.00
C18    C     0.07689   0.17595   0.43440   0.00000  Uiso   1.00
C19    C     0.06203   0.18008   0.48818   0.00000  Uiso   1.00
C20    C     0.09479   0.17279   0.01614   0.00000  Uiso   1.00
C21    C     0.14387   0.15962   0.49014   0.00000  Uiso   1.00
C22    C     0.15591   0.14845   0.43630   0.00000  Uiso   1.00
C23    C     0.18091   0.15585   0.01547   0.00000  Uiso   1.00
C24    C     0.22665   0.13710   0.48863   0.00000  Uiso   1.00
C25    C     0.23473   0.12090   0.43855   0.00000  Uiso   1.00
C26    C     0.19887   0.12435   0.41334   0.00000  Uiso   1.00
C27    C     0.17451   0.17058   0.06646   0.00000  Uiso   1.00
C28    C     0.25392   0.14412   0.06537   0.00000  Uiso   1.00
C29    C     0.12401   0.16133   0.40760   0.00000  Uiso   1.00
H30    H     0.14327   0.18889   0.08724   0.00000  Uiso   1.00
H31    H     0.05143   0.18484   0.41366   0.00000  Uiso   1.00
H32    H     0.02494   0.19018   0.00842   0.00000  Uiso   1.00
C33    C     0.20911   0.31195   0.22648   0.00000  Uiso   1.00
C34    C     0.20880   0.02115   0.22725   0.00000  Uiso   1.00
C35    C     0.16556   0.04275   0.25318   0.00000  Uiso   1.00
C36    C     0.12200   0.02119   0.27912   0.00000  Uiso   1.00
C37    C     0.12272   0.31161   0.27747   0.00000  Uiso   1.00
C38    C     0.16611   0.29044   0.25129   0.00000  Uiso   1.00
C39    C     0.29961   0.19319   0.28150   0.00000  Uiso   1.00
C40    C     0.01587   0.19323   0.28134   0.00000  Uiso   1.00
H41    H     0.02736   0.21445   0.30651   0.00000  Uiso   1.00
N42    N     0.04931   0.16666   0.24999   0.00000  Uiso   1.00
C43    C     0.03336   0.13962   0.21894   0.00000  Uiso   1.00
C44    C     0.31726   0.14013   0.21870   0.00000  Uiso   1.00
N45    N     0.28402   0.16669   0.25000   0.00000  Uiso   1.00
F46    F     0.28846   0.13617   0.08921   0.00000  Uiso   1.00
F47    F     0.25053   0.04115   0.20085   0.00000  Uiso   1.00
N48    N     0.07750   0.04208   0.30829   0.00000  Uiso   1.00
O49    O     0.07845   0.07082   0.34194   0.00000  Uiso   1.00
O50    O     0.03517   0.02888   0.30628   0.00000  Uiso   1.00
F51    F     0.08176   0.29049   0.30385   0.00000  Uiso   1.00
F52    F     0.26741   0.21984   0.31337   0.00000  Uiso   1.00
N53    N     0.06579   0.10950   0.18748   0.00000  Uiso   1.00
O54    O     0.06146   0.07143   0.20279   0.00000  Uiso   1.00
O55    O     0.08642   0.11682   0.13819   0.00000  Uiso   1.00
F56    F     0.30283   0.11377   0.18699   0.00000  Uiso   1.00
F57    F     0.27641   0.09899   0.41555   0.00000  Uiso   1.00
F58    F     0.07586   0.17589   0.06872   0.00000  Uiso   1.00
N59    N     0.20267   0.09770   0.36933   0.00000  Uiso   1.00
O60    O     0.24505   0.09065   0.33474   0.00000  Uiso   1.00
O61    O     0.16540   0.07505   0.36878   0.00000  Uiso   1.00
F62    F     0.25112   0.29184   0.19997   0.00000  Uiso   1.00
O63    O     0.46042   0.22678   0.25001   0.00000  Uiso   1.00
O64    O     0.53961   0.22679   0.25001   0.00000  Uiso   1.00
C65    C     0.49988   0.24589   0.25031   0.00000  Uiso   1.00
O66    O     0.44108   0.16665   0.32549   0.00000  Uiso   1.00
O67    O     0.52027   0.16666   0.32549   0.00000  Uiso   1.00
C68    C     0.47371   0.16426   0.35008   0.00000  Uiso   1.00
Cu69   Cu    0.45311   0.16666   0.25000   0.00000  Uiso   1.00
Cu70   Cu    0.54689   0.16667   0.25000   0.00000  Uiso   1.00
O71    O     0.46039   0.10654   0.25000   0.00000  Uiso   1.00
O72    O     0.53958   0.10655   0.25000   0.00000  Uiso   1.00
O73    O     0.47973   0.16667   0.17451   0.00000  Uiso   1.00
O74    O     0.55892   0.16668   0.17451   0.00000  Uiso   1.00
C75    C     0.49961   0.08741   0.25112   0.00000  Uiso   1.00
C76    C     0.52642   0.16654   0.14983   0.00000  Uiso   1.00
C77    C     0.59648   0.13264   0.01334   0.00000  Uiso   1.00
H78    H     0.63157   0.11851   0.49319   0.00000  Uiso   1.00
C79    C     0.54193   0.16183   0.09275   0.00000  Uiso   1.00
C80    C     0.41022   0.17595   0.43440   0.00000  Uiso   1.00
C81    C     0.39536   0.18008   0.48818   0.00000  Uiso   1.00
C82    C     0.42812   0.17279   0.01614   0.00000  Uiso   1.00
C83    C     0.47721   0.15962   0.49014   0.00000  Uiso   1.00
C84    C     0.48924   0.14845   0.43630   0.00000  Uiso   1.00
C85    C     0.51424   0.15585   0.01547   0.00000  Uiso   1.00
C86    C     0.55998   0.13710   0.48863   0.00000  Uiso   1.00
C87    C     0.56806   0.12090   0.43855   0.00000  Uiso   1.00
C88    C     0.53220   0.12435   0.41334   0.00000  Uiso   1.00
C89    C     0.50784   0.17058   0.06646   0.00000  Uiso   1.00
C90    C     0.58725   0.14412   0.06537   0.00000  Uiso   1.00
C91    C     0.45735   0.16133   0.40760   0.00000  Uiso   1.00
H92    H     0.47661   0.18889   0.08724   0.00000  Uiso   1.00
H93    H     0.38476   0.18484   0.41366   0.00000  Uiso   1.00
H94    H     0.35827   0.19018   0.00842   0.00000  Uiso   1.00
C95    C     0.54244   0.31195   0.22648   0.00000  Uiso   1.00
C96    C     0.54214   0.02115   0.22725   0.00000  Uiso   1.00
C97    C     0.49889   0.04275   0.25318   0.00000  Uiso   1.00
C98    C     0.45533   0.02119   0.27912   0.00000  Uiso   1.00
C99    C     0.45605   0.31161   0.27747   0.00000  Uiso   1.00
C100   C     0.49944   0.29044   0.25129   0.00000  Uiso   1.00
C101   C     0.63294   0.19319   0.28150   0.00000  Uiso   1.00
C102   C     0.34920   0.19323   0.28134   0.00000  Uiso   1.00
H103   H     0.36069   0.21445   0.30651   0.00000  Uiso   1.00
N104   N     0.38265   0.16666   0.24999   0.00000  Uiso   1.00
C105   C     0.36669   0.13962   0.21894   0.00000  Uiso   1.00
C106   C     0.65060   0.14013   0.21870   0.00000  Uiso   1.00
N107   N     0.61735   0.16669   0.25000   0.00000  Uiso   1.00
F108   F     0.62179   0.13617   0.08921   0.00000  Uiso   1.00
F109   F     0.58387   0.04115   0.20085   0.00000  Uiso   1.00
N110   N     0.41083   0.04208   0.30829   0.00000  Uiso   1.00
O111   O     0.41178   0.07082   0.34194   0.00000  Uiso   1.00
O112   O     0.36850   0.02888   0.30628   0.00000  Uiso   1.00
F113   F     0.41510   0.29049   0.30385   0.00000  Uiso   1.00
F114   F     0.60075   0.21984   0.31337   0.00000  Uiso   1.00
N115   N     0.39913   0.10950   0.18748   0.00000  Uiso   1.00
O116   O     0.39479   0.07143   0.20279   0.00000  Uiso   1.00
O117   O     0.41976   0.11682   0.13819   0.00000  Uiso   1.00
F118   F     0.63617   0.11377   0.18699   0.00000  Uiso   1.00
F119   F     0.60974   0.09899   0.41555   0.00000  Uiso   1.00
F120   F     0.40920   0.17589   0.06872   0.00000  Uiso   1.00
N121   N     0.53600   0.09770   0.36933   0.00000  Uiso   1.00
O122   O     0.57838   0.09065   0.33474   0.00000  Uiso   1.00
O123   O     0.49873   0.07505   0.36878   0.00000  Uiso   1.00
F124   F     0.58445   0.29184   0.19997   0.00000  Uiso   1.00
O125   O     0.79375   0.22678   0.25001   0.00000  Uiso   1.00
O126   O     0.87294   0.22679   0.25001   0.00000  Uiso   1.00
C127   C     0.83321   0.24589   0.25031   0.00000  Uiso   1.00
O128   O     0.77441   0.16665   0.32549   0.00000  Uiso   1.00
O129   O     0.85360   0.16666   0.32549   0.00000  Uiso   1.00
C130   C     0.80704   0.16426   0.35008   0.00000  Uiso   1.00
Cu131  Cu    0.78645   0.16666   0.25000   0.00000  Uiso   1.00
Cu132  Cu    0.88022   0.16667   0.25000   0.00000  Uiso   1.00
O133   O     0.79373   0.10654   0.25000   0.00000  Uiso   1.00
O134   O     0.87292   0.10655   0.25000   0.00000  Uiso   1.00
O135   O     0.81306   0.16667   0.17451   0.00000  Uiso   1.00
O136   O     0.89225   0.16668   0.17451   0.00000  Uiso   1.00
C137   C     0.83295   0.08741   0.25112   0.00000  Uiso   1.00
C138   C     0.85975   0.16654   0.14983   0.00000  Uiso   1.00
C139   C     0.92981   0.13264   0.01334   0.00000  Uiso   1.00
H140   H     0.96490   0.11851   0.49319   0.00000  Uiso   1.00
C141   C     0.87526   0.16183   0.09275   0.00000  Uiso   1.00
C142   C     0.74355   0.17595   0.43440   0.00000  Uiso   1.00
C143   C     0.72869   0.18008   0.48818   0.00000  Uiso   1.00
C144   C     0.76146   0.17279   0.01614   0.00000  Uiso   1.00
C145   C     0.81054   0.15962   0.49014   0.00000  Uiso   1.00
C146   C     0.82258   0.14845   0.43630   0.00000  Uiso   1.00
C147   C     0.84758   0.15585   0.01547   0.00000  Uiso   1.00
C148   C     0.89332   0.13710   0.48863   0.00000  Uiso   1.00
C149   C     0.90139   0.12090   0.43855   0.00000  Uiso   1.00
C150   C     0.86553   0.12435   0.41334   0.00000  Uiso   1.00
C151   C     0.84118   0.17058   0.06646   0.00000  Uiso   1.00
C152   C     0.92058   0.14412   0.06537   0.00000  Uiso   1.00
C153   C     0.79068   0.16133   0.40760   0.00000  Uiso   1.00
H154   H     0.80994   0.18889   0.08724   0.00000  Uiso   1.00
H155   H     0.71810   0.18484   0.41366   0.00000  Uiso   1.00
H156   H     0.69160   0.19018   0.00842   0.00000  Uiso   1.00
C157   C     0.87577   0.31195   0.22648   0.00000  Uiso   1.00
C158   C     0.87547   0.02115   0.22725   0.00000  Uiso   1.00
C159   C     0.83222   0.04275   0.25318   0.00000  Uiso   1.00
C160   C     0.78867   0.02119   0.27912   0.00000  Uiso   1.00
C161   C     0.78938   0.31161   0.27747   0.00000  Uiso   1.00
C162   C     0.83277   0.29044   0.25129   0.00000  Uiso   1.00
C163   C     0.96628   0.19319   0.28150   0.00000  Uiso   1.00
C164   C     0.68253   0.19323   0.28134   0.00000  Uiso   1.00
H165   H     0.69403   0.21445   0.30651   0.00000  Uiso   1.00
N166   N     0.71598   0.16666   0.24999   0.00000  Uiso   1.00
C167   C     0.70002   0.13962   0.21894   0.00000  Uiso   1.00
C168   C     0.98393   0.14013   0.21870   0.00000  Uiso   1.00
N169   N     0.95069   0.16669   0.25000   0.00000  Uiso   1.00
F170   F     0.95513   0.13617   0.08921   0.00000  Uiso   1.00
F171   F     0.91720   0.04115   0.20085   0.00000  Uiso   1.00
N172   N     0.74416   0.04208   0.30829   0.00000  Uiso   1.00
O173   O     0.74512   0.07082   0.34194   0.00000  Uiso   1.00
O174   O     0.70183   0.02888   0.30628   0.00000  Uiso   1.00
F175   F     0.74843   0.29049   0.30385   0.00000  Uiso   1.00
F176   F     0.93408   0.21984   0.31337   0.00000  Uiso   1.00
N177   N     0.73246   0.10950   0.18748   0.00000  Uiso   1.00
O178   O     0.72812   0.07143   0.20279   0.00000  Uiso   1.00
O179   O     0.75309   0.11682   0.13819   0.00000  Uiso   1.00
F180   F     0.96950   0.11377   0.18699   0.00000  Uiso   1.00
F181   F     0.94308   0.09899   0.41555   0.00000  Uiso   1.00
F182   F     0.74253   0.17589   0.06872   0.00000  Uiso   1.00
N183   N     0.86933   0.09770   0.36933   0.00000  Uiso   1.00
O184   O     0.91171   0.09065   0.33474   0.00000  Uiso   1.00
O185   O     0.83207   0.07505   0.36878   0.00000  Uiso   1.00
F186   F     0.91778   0.29184   0.19997   0.00000  Uiso   1.00
O187   O     0.12708   0.56011   0.25001   0.00000  Uiso   1.00
O188   O     0.20627   0.56012   0.25001   0.00000  Uiso   1.00
C189   C     0.16654   0.57922   0.25031   0.00000  Uiso   1.00
O190   O     0.10775   0.49998   0.32549   0.00000  Uiso   1.00
O191   O     0.18694   0.49999   0.32549   0.00000  Uiso   1.00
C192   C     0.14038   0.49759   0.35008   0.00000  Uiso   1.00
Cu193  Cu    0.11978   0.49999   0.25000   0.00000  Uiso   1.00
Cu194  Cu    0.21355   0.50001   0.25000   0.00000  Uiso   1.00
O195   O     0.12706   0.43988   0.25000   0.00000  Uiso   1.00
O196   O     0.20625   0.43989   0.25000   0.00000  Uiso   1.00
O197   O     0.14640   0.50001   0.17451   0.00000  Uiso   1.00
O198   O     0.22559   0.50002   0.17451   0.00000  Uiso   1.00
C199   C     0.16628   0.42075   0.25112   0.00000  Uiso   1.00
C200   C     0.19309   0.49987   0.14983   0.00000  Uiso   1.00
C201   C     0.26314   0.46597   0.01334   0.00000  Uiso   1.00
H202   H     0.29823   0.45184   0.49319   0.00000  Uiso   1.00
C203   C     0.20860   0.49517   0.09275   0.00000  Uiso   1.00
C204   C     0.07689   0.50928   0.43440   0.00000  Uiso   1.00
C205   C     0.06203   0.51342   0.48818   0.00000  Uiso   1.00
C206   C     0.09479   0.50612   0.01614   0.00000  Uiso   1.00
C207   C     0.14387   0.49295   0.49014   0.00000  Uiso   1.00
C208   C     0.15591   0.48178   0.43630   0.00000  Uiso   1.00
C209   C     0.18091   0.48918   0.01547   0.00000  Uiso   1.00
C210   C     0.22665   0.47044   0.48863   0.00000  Uiso   1.00
C211   C     0.23473   0.45423   0.43855   0.00000  Uiso   1.00
C212   C     0.19887   0.45768   0.41334   0.00000  Uiso   1.00
C213   C     0.17451   0.50391   0.06646   0.00000  Uiso   1.00
C214   C     0.25392   0.47745   0.06537   0.00000  Uiso   1.00
C215   C     0.12401   0.49467   0.40760   0.00000  Uiso   1.00
H216   H     0.14327   0.52223   0.08724   0.00000  Uiso   1.00
H217   H     0.05143   0.51817   0.41366   0.00000  Uiso   1.00
H218   H     0.02494   0.52351   0.00842   0.00000  Uiso   1.00
C219   C     0.20911   0.64529   0.22648   0.00000  Uiso   1.00
C220   C     0.20880   0.35448   0.22725   0.00000  Uiso   1.00
C221   C     0.16556   0.37609   0.25318   0.00000  Uiso   1.00
C222   C     0.12200   0.35453   0.27912   0.00000  Uiso   1.00
C223   C     0.12272   0.64494   0.27747   0.00000  Uiso   1.00
C224   C     0.16611   0.62378   0.25129   0.00000  Uiso   1.00
C225   C     0.29961   0.52653   0.28150   0.00000  Uiso   1.00
C226   C     0.01587   0.52656   0.28134   0.00000  Uiso   1.00
H227   H     0.02736   0.54778   0.30651   0.00000  Uiso   1.00
N228   N     0.04931   0.49999   0.24999   0.00000  Uiso   1.00
C229   C     0.03336   0.47295   0.21894   0.00000  Uiso   1.00
C230   C     0.31726   0.47346   0.21870   0.00000  Uiso   1.00
N231   N     0.28402   0.50002   0.25000   0.00000  Uiso   1.00
F232   F     0.28846   0.46950   0.08921   0.00000  Uiso   1.00
F233   F     0.25053   0.37448   0.20085   0.00000  Uiso   1.00
N234   N     0.07750   0.37541   0.30829   0.00000  Uiso   1.00
O235   O     0.07845   0.40415   0.34194   0.00000  Uiso   1.00
O236   O     0.03517   0.36222   0.30628   0.00000  Uiso   1.00
F237   F     0.08176   0.62382   0.30385   0.00000  Uiso   1.00
F238   F     0.26741   0.55318   0.31337   0.00000  Uiso   1.00
N239   N     0.06579   0.44283   0.18748   0.00000  Uiso   1.00
O240   O     0.06146   0.40477   0.20279   0.00000  Uiso   1.00
O241   O     0.08642   0.45016   0.13819   0.00000  Uiso   1.00
F242   F     0.30283   0.44710   0.18699   0.00000  Uiso   1.00
F243   F     0.27641   0.43232   0.41555   0.00000  Uiso   1.00
F244   F     0.07586   0.50923   0.06872   0.00000  Uiso   1.00
N245   N     0.20267   0.43104   0.36933   0.00000  Uiso   1.00
O246   O     0.24505   0.42398   0.33474   0.00000  Uiso   1.00
O247   O     0.16540   0.40838   0.36878   0.00000  Uiso   1.00
F248   F     0.25112   0.62517   0.19997   0.00000  Uiso   1.00
O249   O     0.46042   0.56011   0.25001   0.00000  Uiso   1.00
O250   O     0.53961   0.56012   0.25001   0.00000  Uiso   1.00
C251   C     0.49988   0.57922   0.25031   0.00000  Uiso   1.00
O252   O     0.44108   0.49998   0.32549   0.00000  Uiso   1.00
O253   O     0.52027   0.49999   0.32549   0.00000  Uiso   1.00
C254   C     0.47371   0.49759   0.35008   0.00000  Uiso   1.00
Cu255  Cu    0.45311   0.49999   0.25000   0.00000  Uiso   1.00
Cu256  Cu    0.54689   0.50001   0.25000   0.00000  Uiso   1.00
O257   O     0.46039   0.43988   0.25000   0.00000  Uiso   1.00
O258   O     0.53958   0.43989   0.25000   0.00000  Uiso   1.00
O259   O     0.47973   0.50001   0.17451   0.00000  Uiso   1.00
O260   O     0.55892   0.50002   0.17451   0.00000  Uiso   1.00
C261   C     0.49961   0.42075   0.25112   0.00000  Uiso   1.00
C262   C     0.52642   0.49987   0.14983   0.00000  Uiso   1.00
C263   C     0.59648   0.46597   0.01334   0.00000  Uiso   1.00
H264   H     0.63157   0.45184   0.49319   0.00000  Uiso   1.00
C265   C     0.54193   0.49517   0.09275   0.00000  Uiso   1.00
C266   C     0.41022   0.50928   0.43440   0.00000  Uiso   1.00
C267   C     0.39536   0.51342   0.48818   0.00000  Uiso   1.00
C268   C     0.42812   0.50612   0.01614   0.00000  Uiso   1.00
C269   C     0.47721   0.49295   0.49014   0.00000  Uiso   1.00
C270   C     0.48924   0.48178   0.43630   0.00000  Uiso   1.00
C271   C     0.51424   0.48918   0.01547   0.00000  Uiso   1.00
C272   C     0.55998   0.47044   0.48863   0.00000  Uiso   1.00
C273   C     0.56806   0.45423   0.43855   0.00000  Uiso   1.00
C274   C     0.53220   0.45768   0.41334   0.00000  Uiso   1.00
C275   C     0.50784   0.50391   0.06646   0.00000  Uiso   1.00
C276   C     0.58725   0.47745   0.06537   0.00000  Uiso   1.00
C277   C     0.45735   0.49467   0.40760   0.00000  Uiso   1.00
H278   H     0.47661   0.52223   0.08724   0.00000  Uiso   1.00
H279   H     0.38476   0.51817   0.41366   0.00000  Uiso   1.00
H280   H     0.35827   0.52351   0.00842   0.00000  Uiso   1.00
C281   C     0.54244   0.64529   0.22648   0.00000  Uiso   1.00
C282   C     0.54214   0.35448   0.22725   0.00000  Uiso   1.00
C283   C     0.49889   0.37609   0.25318   0.00000  Uiso   1.00
C284   C     0.45533   0.35453   0.27912   0.00000  Uiso   1.00
C285   C     0.45605   0.64494   0.27747   0.00000  Uiso   1.00
C286   C     0.49944   0.62378   0.25129   0.00000  Uiso   1.00
C287   C     0.63294   0.52653   0.28150   0.00000  Uiso   1.00
C288   C     0.34920   0.52656   0.28134   0.00000  Uiso   1.00
H289   H     0.36069   0.54778   0.30651   0.00000  Uiso   1.00
N290   N     0.38265   0.49999   0.24999   0.00000  Uiso   1.00
C291   C     0.36669   0.47295   0.21894   0.00000  Uiso   1.00
C292   C     0.65060   0.47346   0.21870   0.00000  Uiso   1.00
N293   N     0.61735   0.50002   0.25000   0.00000  Uiso   1.00
F294   F     0.62179   0.46950   0.08921   0.00000  Uiso   1.00
F295   F     0.58387   0.37448   0.20085   0.00000  Uiso   1.00
N296   N     0.41083   0.37541   0.30829   0.00000  Uiso   1.00
O297   O     0.41178   0.40415   0.34194   0.00000  Uiso   1.00
O298   O     0.36850   0.36222   0.30628   0.00000  Uiso   1.00
F299   F     0.41510   0.62382   0.30385   0.00000  Uiso   1.00
F300   F     0.60075   0.55318   0.31337   0.00000  Uiso   1.00
N301   N     0.39913   0.44283   0.18748   0.00000  Uiso   1.00
O302   O     0.39479   0.40477   0.20279   0.00000  Uiso   1.00
O303   O     0.41976   0.45016   0.13819   0.00000  Uiso   1.00
F304   F     0.63617   0.44710   0.18699   0.00000  Uiso   1.00
F305   F     0.60974   0.43232   0.41555   0.00000  Uiso   1.00
F306   F     0.40920   0.50923   0.06872   0.00000  Uiso   1.00
N307   N     0.53600   0.43104   0.36933   0.00000  Uiso   1.00
O308   O     0.57838   0.42398   0.33474   0.00000  Uiso   1.00
O309   O     0.49873   0.40838   0.36878   0.00000  Uiso   1.00
F310   F     0.58445   0.62517   0.19997   0.00000  Uiso   1.00
O311   O     0.79375   0.56011   0.25001   0.00000  Uiso   1.00
O312   O     0.87294   0.56012   0.25001   0.00000  Uiso   1.00
C313   C     0.83321   0.57922   0.25031   0.00000  Uiso   1.00
O314   O     0.77441   0.49998   0.32549   0.00000  Uiso   1.00
O315   O     0.85360   0.49999   0.32549   0.00000  Uiso   1.00
C316   C     0.80704   0.49759   0.35008   0.00000  Uiso   1.00
Cu317  Cu    0.78645   0.49999   0.25000   0.00000  Uiso   1.00
Cu318  Cu    0.88022   0.50001   0.25000   0.00000  Uiso   1.00
O319   O     0.79373   0.43988   0.25000   0.00000  Uiso   1.00
O320   O     0.87292   0.43989   0.25000   0.00000  Uiso   1.00
O321   O     0.81306   0.50001   0.17451   0.00000  Uiso   1.00
O322   O     0.89225   0.50002   0.17451   0.00000  Uiso   1.00
C323   C     0.83295   0.42075   0.25112   0.00000  Uiso   1.00
C324   C     0.85975   0.49987   0.14983   0.00000  Uiso   1.00
C325   C     0.92981   0.46597   0.01334   0.00000  Uiso   1.00
H326   H     0.96490   0.45184   0.49319   0.00000  Uiso   1.00
C327   C     0.87526   0.49517   0.09275   0.00000  Uiso   1.00
C328   C     0.74355   0.50928   0.43440   0.00000  Uiso   1.00
C329   C     0.72869   0.51342   0.48818   0.00000  Uiso   1.00
C330   C     0.76146   0.50612   0.01614   0.00000  Uiso   1.00
C331   C     0.81054   0.49295   0.49014   0.00000  Uiso   1.00
C332   C     0.82258   0.48178   0.43630   0.00000  Uiso   1.00
C333   C     0.84758   0.48918   0.01547   0.00000  Uiso   1.00
C334   C     0.89332   0.47044   0.48863   0.00000  Uiso   1.00
C335   C     0.90139   0.45423   0.43855   0.00000  Uiso   1.00
C336   C     0.86553   0.45768   0.41334   0.00000  Uiso   1.00
C337   C     0.84118   0.50391   0.06646   0.00000  Uiso   1.00
C338   C     0.92058   0.47745   0.06537   0.00000  Uiso   1.00
C339   C     0.79068   0.49467   0.40760   0.00000  Uiso   1.00
H340   H     0.80994   0.52223   0.08724   0.00000  Uiso   1.00
H341   H     0.71810   0.51817   0.41366   0.00000  Uiso   1.00
H342   H     0.69160   0.52351   0.00842   0.00000  Uiso   1.00
C343   C     0.87577   0.64529   0.22648   0.00000  Uiso   1.00
C344   C     0.87547   0.35448   0.22725   0.00000  Uiso   1.00
C345   C     0.83222   0.37609   0.25318   0.00000  Uiso   1.00
C346   C     0.78867   0.35453   0.27912   0.00000  Uiso   1.00
C347   C     0.78938   0.64494   0.27747   0.00000  Uiso   1.00
C348   C     0.83277   0.62378   0.25129   0.00000  Uiso   1.00
C349   C     0.96628   0.52653   0.28150   0.00000  Uiso   1.00
C350   C     0.68253   0.52656   0.28134   0.00000  Uiso   1.00
H351   H     0.69403   0.54778   0.30651   0.00000  Uiso   1.00
N352   N     0.71598   0.49999   0.24999   0.00000  Uiso   1.00
C353   C     0.70002   0.47295   0.21894   0.00000  Uiso   1.00
C354   C     0.98393   0.47346   0.21870   0.00000  Uiso   1.00
N355   N     0.95069   0.50002   0.25000   0.00000  Uiso   1.00
F356   F     0.95513   0.46950   0.08921   0.00000  Uiso   1.00
F357   F     0.91720   0.37448   0.20085   0.00000  Uiso   1.00
N358   N     0.74416   0.37541   0.30829   0.00000  Uiso   1.00
O359   O     0.74512   0.40415   0.34194   0.00000  Uiso   1.00
O360   O     0.70183   0.36222   0.30628   0.00000  Uiso   1.00
F361   F     0.74843   0.62382   0.30385   0.00000  Uiso   1.00
F362   F     0.93408   0.55318   0.31337   0.00000  Uiso   1.00
N363   N     0.73246   0.44283   0.18748   0.00000  Uiso   1.00
O364   O     0.72812   0.40477   0.20279   0.00000  Uiso   1.00
O365   O     0.75309   0.45016   0.13819   0.00000  Uiso   1.00
F366   F     0.96950   0.44710   0.18699   0.00000  Uiso   1.00
F367   F     0.94308   0.43232   0.41555   0.00000  Uiso   1.00
F368   F     0.74253   0.50923   0.06872   0.00000  Uiso   1.00
N369   N     0.86933   0.43104   0.36933   0.00000  Uiso   1.00
O370   O     0.91171   0.42398   0.33474   0.00000  Uiso   1.00
O371   O     0.83207   0.40838   0.36878   0.00000  Uiso   1.00
F372   F     0.91778   0.62517   0.19997   0.00000  Uiso   1.00
O373   O     0.12708   0.89345   0.25001   0.00000  Uiso   1.00
O374   O     0.20627   0.89346   0.25001   0.00000  Uiso   1.00
C375   C     0.16654   0.91256   0.25031   0.00000  Uiso   1.00
O376   O     0.10775   0.83332   0.32549   0.00000  Uiso   1.00
O377   O     0.18694   0.83333   0.32549   0.00000  Uiso   1.00
C378   C     0.14038   0.83092   0.35008   0.00000  Uiso   1.00
Cu379  Cu    0.11978   0.83333   0.25000   0.00000  Uiso   1.00
Cu380  Cu    0.21355   0.83334   0.25000   0.00000  Uiso   1.00
O381   O     0.12706   0.77321   0.25000   0.00000  Uiso   1.00
O382   O     0.20625   0.77322   0.25000   0.00000  Uiso   1.00
O383   O     0.14640   0.83334   0.17451   0.00000  Uiso   1.00
O384   O     0.22559   0.83335   0.17451   0.00000  Uiso   1.00
C385   C     0.16628   0.75408   0.25112   0.00000  Uiso   1.00
C386   C     0.19309   0.83321   0.14983   0.00000  Uiso   1.00
C387   C     0.26314   0.79930   0.01334   0.00000  Uiso   1.00
H388   H     0.29823   0.78517   0.49319   0.00000  Uiso   1.00
C389   C     0.20860   0.82850   0.09275   0.00000  Uiso   1.00
C390   C     0.07689   0.84262   0.43440   0.00000  Uiso   1.00
C391   C     0.06203   0.84675   0.48818   0.00000  Uiso   1.00
C392   C     0.09479   0.83946   0.01614   0.00000  Uiso   1.00
C393   C     0.14387   0.82628   0.49014   0.00000  Uiso   1.00
C394   C     0.15591   0.81511   0.43630   0.00000  Uiso   1.00
C395   C     0.18091   0.82251   0.01547   0.00000  Uiso   1.00
C396   C     0.22665   0.80377   0.48863   0.00000  Uiso   1.00
C397   C     0.23473   0.78756   0.43855   0.00000  Uiso   1.00
C398   C     0.19887   0.79101   0.41334   0.00000  Uiso   1.00
C399   C     0.17451   0.83725   0.06646   0.00000  Uiso   1.00
C400   C     0.25392   0.81078   0.06537   0.00000  Uiso   1.00
C401   C     0.12401   0.82800   0.40760   0.00000  Uiso   1.00
H402   H     0.14327   0.85556   0.08724   0.00000  Uiso   1.00
H403   H     0.05143   0.85150   0.41366   0.00000  Uiso   1.00
H404   H     0.02494   0.85685   0.00842   0.00000  Uiso   1.00
C405   C     0.20911   0.97862   0.22648   0.00000  Uiso   1.00
C406   C     0.20880   0.68781   0.22725   0.00000  Uiso   1.00
C407   C     0.16556   0.70942   0.25318   0.00000  Uiso   1.00
C408   C     0.12200   0.68786   0.27912   0.00000  Uiso   1.00
C409   C     0.12272   0.97828   0.27747   0.00000  Uiso   1.00
C410   C     0.16611   0.95711   0.25129   0.00000  Uiso   1.00
C411   C     0.29961   0.85986   0.28150   0.00000  Uiso   1.00
C412   C     0.01587   0.85989   0.28134   0.00000  Uiso   1.00
H413   H     0.02736   0.88112   0.30651   0.00000  Uiso   1.00
N414   N     0.04931   0.83332   0.24999   0.00000  Uiso   1.00
C415   C     0.03336   0.80628   0.21894   0.00000  Uiso   1.00
C416   C     0.31726   0.80679   0.21870   0.00000  Uiso   1.00
N417   N     0.28402   0.83335   0.25000   0.00000  Uiso   1.00
F418   F     0.28846   0.80283   0.08921   0.00000  Uiso   1.00
F419   F     0.25053   0.70782   0.20085   0.00000  Uiso   1.00
N420   N     0.07750   0.70874   0.30829   0.00000  Uiso   1.00
O421   O     0.07845   0.73748   0.34194   0.00000  Uiso   1.00
O422   O     0.03517   0.69555   0.30628   0.00000  Uiso   1.00
F423   F     0.08176   0.95716   0.30385   0.00000  Uiso   1.00
F424   F     0.26741   0.88651   0.31337   0.00000  Uiso   1.00
N425   N     0.06579   0.77616   0.18748   0.00000  Uiso   1.00
O426   O     0.06146   0.73810   0.20279   0.00000  Uiso   1.00
O427   O     0.08642   0.78349   0.13819   0.00000  Uiso   1.00
F428   F     0.30283   0.78043   0.18699   0.00000  Uiso   1.00
F429   F     0.27641   0.76565   0.41555   0.00000  Uiso   1.00
F430   F     0.07586   0.84256   0.06872   0.00000  Uiso   1.00
N431   N     0.20267   0.76437   0.36933   0.00000  Uiso   1.00
O432   O     0.24505   0.75731   0.33474   0.00000  Uiso   1.00
O433   O     0.16540   0.74172   0.36878   0.00000  Uiso   1.00
F434   F     0.25112   0.95851   0.19997   0.00000  Uiso   1.00
O435   O     0.46042   0.89345   0.25001   0.00000  Uiso   1.00
O436   O     0.53961   0.89346   0.25001   0.00000  Uiso   1.00
C437   C     0.49988   0.91256   0.25031   0.00000  Uiso   1.00
O438   O     0.44108   0.83332   0.32549   0.00000  Uiso   1.00
O439   O     0.52027   0.83333   0.32549   0.00000  Uiso   1.00
C440   C     0.47371   0.83092   0.35008   0.00000  Uiso   1.00
Cu441  Cu    0.45311   0.83333   0.25000   0.00000  Uiso   1.00
Cu442  Cu    0.54689   0.83334   0.25000   0.00000  Uiso   1.00
O443   O     0.46039   0.77321   0.25000   0.00000  Uiso   1.00
O444   O     0.53958   0.77322   0.25000   0.00000  Uiso   1.00
O445   O     0.47973   0.83334   0.17451   0.00000  Uiso   1.00
O446   O     0.55892   0.83335   0.17451   0.00000  Uiso   1.00
C447   C     0.49961   0.75408   0.25112   0.00000  Uiso   1.00
C448   C     0.52642   0.83321   0.14983   0.00000  Uiso   1.00
C449   C     0.59648   0.79930   0.01334   0.00000  Uiso   1.00
H450   H     0.63157   0.78517   0.49319   0.00000  Uiso   1.00
C451   C     0.54193   0.82850   0.09275   0.00000  Uiso   1.00
C452   C     0.41022   0.84262   0.43440   0.00000  Uiso   1.00
C453   C     0.39536   0.84675   0.48818   0.00000  Uiso   1.00
C454   C     0.42812   0.83946   0.01614   0.00000  Uiso   1.00
C455   C     0.47721   0.82628   0.49014   0.00000  Uiso   1.00
C456   C     0.48924   0.81511   0.43630   0.00000  Uiso   1.00
C457   C     0.51424   0.82251   0.01547   0.00000  Uiso   1.00
C458   C     0.55998   0.80377   0.48863   0.00000  Uiso   1.00
C459   C     0.56806   0.78756   0.43855   0.00000  Uiso   1.00
C460   C     0.53220   0.79101   0.41334   0.00000  Uiso   1.00
C461   C     0.50784   0.83725   0.06646   0.00000  Uiso   1.00
C462   C     0.58725   0.81078   0.06537   0.00000  Uiso   1.00
C463   C     0.45735   0.82800   0.40760   0.00000  Uiso   1.00
H464   H     0.47661   0.85556   0.08724   0.00000  Uiso   1.00
H465   H     0.38476   0.85150   0.41366   0.00000  Uiso   1.00
H466   H     0.35827   0.85685   0.00842   0.00000  Uiso   1.00
C467   C     0.54244   0.97862   0.22648   0.00000  Uiso   1.00
C468   C     0.54214   0.68781   0.22725   0.00000  Uiso   1.00
C469   C     0.49889   0.70942   0.25318   0.00000  Uiso   1.00
C470   C     0.45533   0.68786   0.27912   0.00000  Uiso   1.00
C471   C     0.45605   0.97828   0.27747   0.00000  Uiso   1.00
C472   C     0.49944   0.95711   0.25129   0.00000  Uiso   1.00
C473   C     0.63294   0.85986   0.28150   0.00000  Uiso   1.00
C474   C     0.34920   0.85989   0.28134   0.00000  Uiso   1.00
H475   H     0.36069   0.88112   0.30651   0.00000  Uiso   1.00
N476   N     0.38265   0.83332   0.24999   0.00000  Uiso   1.00
C477   C     0.36669   0.80628   0.21894   0.00000  Uiso   1.00
C478   C     0.65060   0.80679   0.21870   0.00000  Uiso   1.00
N479   N     0.61735   0.83335   0.25000   0.00000  Uiso   1.00
F480   F     0.62179   0.80283   0.08921   0.00000  Uiso   1.00
F481   F     0.58387   0.70782   0.20085   0.00000  Uiso   1.00
N482   N     0.41083   0.70874   0.30829   0.00000  Uiso   1.00
O483   O     0.41178   0.73748   0.34194   0.00000  Uiso   1.00
O484   O     0.36850   0.69555   0.30628   0.00000  Uiso   1.00
F485   F     0.41510   0.95716   0.30385   0.00000  Uiso   1.00
F486   F     0.60075   0.88651   0.31337   0.00000  Uiso   1.00
N487   N     0.39913   0.77616   0.18748   0.00000  Uiso   1.00
O488   O     0.39479   0.73810   0.20279   0.00000  Uiso   1.00
O489   O     0.41976   0.78349   0.13819   0.00000  Uiso   1.00
F490   F     0.63617   0.78043   0.18699   0.00000  Uiso   1.00
F491   F     0.60974   0.76565   0.41555   0.00000  Uiso   1.00
F492   F     0.40920   0.84256   0.06872   0.00000  Uiso   1.00
N493   N     0.53600   0.76437   0.36933   0.00000  Uiso   1.00
O494   O     0.57838   0.75731   0.33474   0.00000  Uiso   1.00
O495   O     0.49873   0.74172   0.36878   0.00000  Uiso   1.00
F496   F     0.58445   0.95851   0.19997   0.00000  Uiso   1.00
O497   O     0.79375   0.89345   0.25001   0.00000  Uiso   1.00
O498   O     0.87294   0.89346   0.25001   0.00000  Uiso   1.00
C499   C     0.83321   0.91256   0.25031   0.00000  Uiso   1.00
O500   O     0.77441   0.83332   0.32549   0.00000  Uiso   1.00
O501   O     0.85360   0.83333   0.32549   0.00000  Uiso   1.00
C502   C     0.80704   0.83092   0.35008   0.00000  Uiso   1.00
Cu503  Cu    0.78645   0.83333   0.25000   0.00000  Uiso   1.00
Cu504  Cu    0.88022   0.83334   0.25000   0.00000  Uiso   1.00
O505   O     0.79373   0.77321   0.25000   0.00000  Uiso   1.00
O506   O     0.87292   0.77322   0.25000   0.00000  Uiso   1.00
O507   O     0.81306   0.83334   0.17451   0.00000  Uiso   1.00
O508   O     0.89225   0.83335   0.17451   0.00000  Uiso   1.00
C509   C     0.83295   0.75408   0.25112   0.00000  Uiso   1.00
C510   C     0.85975   0.83321   0.14983   0.00000  Uiso   1.00
C511   C     0.92981   0.79930   0.01334   0.00000  Uiso   1.00
H512   H     0.96490   0.78517   0.49319   0.00000  Uiso   1.00
C513   C     0.87526   0.82850   0.09275   0.00000  Uiso   1.00
C514   C     0.74355   0.84262   0.43440   0.00000  Uiso   1.00
C515   C     0.72869   0.84675   0.48818   0.00000  Uiso   1.00
C516   C     0.76146   0.83946   0.01614   0.00000  Uiso   1.00
C517   C     0.81054   0.82628   0.49014   0.00000  Uiso   1.00
C518   C     0.82258   0.81511   0.43630   0.00000  Uiso   1.00
C519   C     0.84758   0.82251   0.01547   0.00000  Uiso   1.00
C520   C     0.89332   0.80377   0.48863   0.00000  Uiso   1.00
C521   C     0.90139   0.78756   0.43855   0.00000  Uiso   1.00
C522   C     0.86553   0.79101   0.41334   0.00000  Uiso   1.00
C523   C     0.84118   0.83725   0.06646   0.00000  Uiso   1.00
C524   C     0.92058   0.81078   0.06537   0.00000  Uiso   1.00
C525   C     0.79068   0.82800   0.40760   0.00000  Uiso   1.00
H526   H     0.80994   0.85556   0.08724   0.00000  Uiso   1.00
H527   H     0.71810   0.85150   0.41366   0.00000  Uiso   1.00
H528   H     0.69160   0.85685   0.00842   0.00000  Uiso   1.00
C529   C     0.87577   0.97862   0.22648   0.00000  Uiso   1.00
C530   C     0.87547   0.68781   0.22725   0.00000  Uiso   1.00
C531   C     0.83222   0.70942   0.25318   0.00000  Uiso   1.00
C532   C     0.78867   0.68786   0.27912   0.00000  Uiso   1.00
C533   C     0.78938   0.97828   0.27747   0.00000  Uiso   1.00
C534   C     0.83277   0.95711   0.25129   0.00000  Uiso   1.00
C535   C     0.96628   0.85986   0.28150   0.00000  Uiso   1.00
C536   C     0.68253   0.85989   0.28134   0.00000  Uiso   1.00
H537   H     0.69403   0.88112   0.30651   0.00000  Uiso   1.00
N538   N     0.71598   0.83332   0.24999   0.00000  Uiso   1.00
C539   C     0.70002   0.80628   0.21894   0.00000  Uiso   1.00
C540   C     0.98393   0.80679   0.21870   0.00000  Uiso   1.00
N541   N     0.95069   0.83335   0.25000   0.00000  Uiso   1.00
F542   F     0.95513   0.80283   0.08921   0.00000  Uiso   1.00
F543   F     0.91720   0.70782   0.20085   0.00000  Uiso   1.00
N544   N     0.74416   0.70874   0.30829   0.00000  Uiso   1.00
O545   O     0.74512   0.73748   0.34194   0.00000  Uiso   1.00
O546   O     0.70183   0.69555   0.30628   0.00000  Uiso   1.00
F547   F     0.74843   0.95716   0.30385   0.00000  Uiso   1.00
F548   F     0.93408   0.88651   0.31337   0.00000  Uiso   1.00
N549   N     0.73246   0.77616   0.18748   0.00000  Uiso   1.00
O550   O     0.72812   0.73810   0.20279   0.00000  Uiso   1.00
O551   O     0.75309   0.78349   0.13819   0.00000  Uiso   1.00
F552   F     0.96950   0.78043   0.18699   0.00000  Uiso   1.00
F553   F     0.94308   0.76565   0.41555   0.00000  Uiso   1.00
F554   F     0.74253   0.84256   0.06872   0.00000  Uiso   1.00
N555   N     0.86933   0.76437   0.36933   0.00000  Uiso   1.00
O556   O     0.91171   0.75731   0.33474   0.00000  Uiso   1.00
O557   O     0.83207   0.74172   0.36878   0.00000  Uiso   1.00
F558   F     0.91778   0.95851   0.19997   0.00000  Uiso   1.00
O559   O     0.12708   0.22678   0.75001   0.00000  Uiso   1.00
O560   O     0.20627   0.22679   0.75001   0.00000  Uiso   1.00
C561   C     0.16654   0.24589   0.75031   0.00000  Uiso   1.00
O562   O     0.10775   0.16665   0.82549   0.00000  Uiso   1.00
O563   O     0.18694   0.16666   0.82549   0.00000  Uiso   1.00
C564   C     0.14038   0.16426   0.85008   0.00000  Uiso   1.00
Cu565  Cu    0.11978   0.16666   0.75000   0.00000  Uiso   1.00
Cu566  Cu    0.21355   0.16667   0.75000   0.00000  Uiso   1.00
O567   O     0.12706   0.10654   0.75000   0.00000  Uiso   1.00
O568   O     0.20625   0.10655   0.75000   0.00000  Uiso   1.00
O569   O     0.14640   0.16667   0.67451   0.00000  Uiso   1.00
O570   O     0.22559   0.16668   0.67451   0.00000  Uiso   1.00
C571   C     0.16628   0.08741   0.75112   0.00000  Uiso   1.00
C572   C     0.19309   0.16654   0.64983   0.00000  Uiso   1.00
C573   C     0.26314   0.13264   0.51334   0.00000  Uiso   1.00
H574   H     0.29823   0.11851   0.99319   0.00000  Uiso   1.00
C575   C     0.20860   0.16183   0.59275   0.00000  Uiso   1.00
C576   C     0.07689   0.17595   0.93440   0.00000  Uiso   1.00
C577   C     0.06203   0.18008   0.98818   0.00000  Uiso   1.00
C578   C     0.09479   0.17279   0.51614   0.00000  Uiso   1.00
C579   C     0.14387   0.15962   0.99014   0.00000  Uiso   1.00
C580   C     0.15591   0.14845   0.93630   0.00000  Uiso   1.00
C581   C     0.18091   0.15585   0.51547   0.00000  Uiso   1.00
C582   C     0.22665   0.13710   0.98863   0.00000  Uiso   1.00
C583   C     0.23473   0.12090   0.93855   0.00000  Uiso   1.00
C584   C     0.19887   0.12435   0.91334   0.00000  Uiso   1.00
C585   C     0.17451   0.17058   0.56646   0.00000  Uiso   1.00
C586   C     0.25392   0.14412   0.56537   0.00000  Uiso   1.00
C587   C     0.12401   0.16133   0.90760   0.00000  Uiso   1.00
H588   H     0.14327   0.18889   0.58724   0.00000  Uiso   1.00
H589   H     0.05143   0.18484   0.91366   0.00000  Uiso   1.00
H590   H     0.02494   0.19018   0.50842   0.00000  Uiso   1.00
C591   C     0.20911   0.31195   0.72648   0.00000  Uiso   1.00
C592   C     0.20880   0.02115   0.72725   0.00000  Uiso   1.00
C593   C     0.16556   0.04275   0.75318   0.00000  Uiso   1.00
C594   C     0.12200   0.02119   0.77912   0.00000  Uiso   1.00
C595   C     0.12272   0.31161   0.77747   0.00000  Uiso   1.00
C596   C     0.16611   0.29044   0.75129   0.00000  Uiso   1.00
C597   C     0.29961   0.19319   0.78150   0.00000  Uiso   1.00
C598   C     0.01587   0.19323   0.78134   0.00000  Uiso   1.00
H599   H     0.02736   0.21445   0.80651   0.00000  Uiso   1.00
N600   N     0.04931   0.16666   0.74999   0.00000  Uiso   1.00
C601   C     0.03336   0.13962   0.71894   0.00000  Uiso   1.00
C602   C     0.31726   0.14013   0.71870   0.00000  Uiso   1.00
N603   N     0.28402   0.16669   0.75000   0.00000  Uiso   1.00
F604   F     0.28846   0.13617   0.58921   0.00000  Uiso   1.00
F605   F     0.25053   0.04115   0.70085   0.00000  Uiso   1.00
N606   N     0.07750   0.04208   0.80829   0.00000  Uiso   1.00
O607   O     0.07845   0.07082   0.84194   0.00000  Uiso   1.00
O608   O     0.03517   0.02888   0.80628   0.00000  Uiso   1.00
F609   F     0.08176   0.29049   0.80385   0.00000  Uiso   1.00
F610   F     0.26741   0.21984   0.81337   0.00000  Uiso   1.00
N611   N     0.06579   0.10950   0.68748   0.00000  Uiso   1.00
O612   O     0.06146   0.07143   0.70279   0.00000  Uiso   1.00
O613   O     0.08642   0.11682   0.63819   0.00000  Uiso   1.00
F614   F     0.30283   0.11377   0.68699   0.00000  Uiso   1.00
F615   F     0.27641   0.09899   0.91555   0.00000  Uiso   1.00
F616   F     0.07586   0.17589   0.56872   0.00000  Uiso   1.00
N617   N     0.20267   0.09770   0.86933   0.00000  Uiso   1.00
O618   O     0.24505   0.09065   0.83474   0.00000  Uiso   1.00
O619   O     0.16540   0.07505   0.86878   0.00000  Uiso   1.00
F620   F     0.25112   0.29184   0.69997   0.00000  Uiso   1.00
O621   O     0.46042   0.22678   0.75001   0.00000  Uiso   1.00
O622   O     0.53961   0.22679   0.75001   0.00000  Uiso   1.00
C623   C     0.49988   0.24589   0.75031   0.00000  Uiso   1.00
O624   O     0.44108   0.16665   0.82549   0.00000  Uiso   1.00
O625   O     0.52027   0.16666   0.82549   0.00000  Uiso   1.00
C626   C     0.47371   0.16426   0.85008   0.00000  Uiso   1.00
Cu627  Cu    0.45311   0.16666   0.75000   0.00000  Uiso   1.00
Cu628  Cu    0.54689   0.16667   0.75000   0.00000  Uiso   1.00
O629   O     0.46039   0.10654   0.75000   0.00000  Uiso   1.00
O630   O     0.53958   0.10655   0.75000   0.00000  Uiso   1.00
O631   O     0.47973   0.16667   0.67451   0.00000  Uiso   1.00
O632   O     0.55892   0.16668   0.67451   0.00000  Uiso   1.00
C633   C     0.49961   0.08741   0.75112   0.00000  Uiso   1.00
C634   C     0.52642   0.16654   0.64983   0.00000  Uiso   1.00
C635   C     0.59648   0.13264   0.51334   0.00000  Uiso   1.00
H636   H     0.63157   0.11851   0.99319   0.00000  Uiso   1.00
C637   C     0.54193   0.16183   0.59275   0.00000  Uiso   1.00
C638   C     0.41022   0.17595   0.93440   0.00000  Uiso   1.00
C639   C     0.39536   0.18008   0.98818   0.00000  Uiso   1.00
C640   C     0.42812   0.17279   0.51614   0.00000  Uiso   1.00
C641   C     0.47721   0.15962   0.99014   0.00000  Uiso   1.00
C642   C     0.48924   0.14845   0.93630   0.00000  Uiso   1.00
C643   C     0.51424   0.15585   0.51547   0.00000  Uiso   1.00
C644   C     0.55998   0.13710   0.98863   0.00000  Uiso   1.00
C645   C     0.56806   0.12090   0.93855   0.00000  Uiso   1.00
C646   C     0.53220   0.12435   0.91334   0.00000  Uiso   1.00
C647   C     0.50784   0.17058   0.56646   0.00000  Uiso   1.00
C648   C     0.58725   0.14412   0.56537   0.00000  Uiso   1.00
C649   C     0.45735   0.16133   0.90760   0.00000  Uiso   1.00
H650   H     0.47661   0.18889   0.58724   0.00000  Uiso   1.00
H651   H     0.38476   0.18484   0.91366   0.00000  Uiso   1.00
H652   H     0.35827   0.19018   0.50842   0.00000  Uiso   1.00
C653   C     0.54244   0.31195   0.72648   0.00000  Uiso   1.00
C654   C     0.54214   0.02115   0.72725   0.00000  Uiso   1.00
C655   C     0.49889   0.04275   0.75318   0.00000  Uiso   1.00
C656   C     0.45533   0.02119   0.77912   0.00000  Uiso   1.00
C657   C     0.45605   0.31161   0.77747   0.00000  Uiso   1.00
C658   C     0.49944   0.29044   0.75129   0.00000  Uiso   1.00
C659   C     0.63294   0.19319   0.78150   0.00000  Uiso   1.00
C660   C     0.34920   0.19323   0.78134   0.00000  Uiso   1.00
H661   H     0.36069   0.21445   0.80651   0.00000  Uiso   1.00
N662   N     0.38265   0.16666   0.74999   0.00000  Uiso   1.00
C663   C     0.36669   0.13962   0.71894   0.00000  Uiso   1.00
C664   C     0.65060   0.14013   0.71870   0.00000  Uiso   1.00
N665   N     0.61735   0.16669   0.75000   0.00000  Uiso   1.00
F666   F     0.62179   0.13617   0.58921   0.00000  Uiso   1.00
F667   F     0.58387   0.04115   0.70085   0.00000  Uiso   1.00
N668   N     0.41083   0.04208   0.80829   0.00000  Uiso   1.00
O669   O     0.41178   0.07082   0.84194   0.00000  Uiso   1.00
O670   O     0.36850   0.02888   0.80628   0.00000  Uiso   1.00
F671   F     0.41510   0.29049   0.80385   0.00000  Uiso   1.00
F672   F     0.60075   0.21984   0.81337   0.00000  Uiso   1.00
N673   N     0.39913   0.10950   0.68748   0.00000  Uiso   1.00
O674   O     0.39479   0.07143   0.70279   0.00000  Uiso   1.00
O675   O     0.41976   0.11682   0.63819   0.00000  Uiso   1.00
F676   F     0.63617   0.11377   0.68699   0.00000  Uiso   1.00
F677   F     0.60974   0.09899   0.91555   0.00000  Uiso   1.00
F678   F     0.40920   0.17589   0.56872   0.00000  Uiso   1.00
N679   N     0.53600   0.09770   0.86933   0.00000  Uiso   1.00
O680   O     0.57838   0.09065   0.83474   0.00000  Uiso   1.00
O681   O     0.49873   0.07505   0.86878   0.00000  Uiso   1.00
F682   F     0.58445   0.29184   0.69997   0.00000  Uiso   1.00
O683   O     0.79375   0.22678   0.75001   0.00000  Uiso   1.00
O684   O     0.87294   0.22679   0.75001   0.00000  Uiso   1.00
C685   C     0.83321   0.24589   0.75031   0.00000  Uiso   1.00
O686   O     0.77441   0.16665   0.82549   0.00000  Uiso   1.00
O687   O     0.85360   0.16666   0.82549   0.00000  Uiso   1.00
C688   C     0.80704   0.16426   0.85008   0.00000  Uiso   1.00
Cu689  Cu    0.78645   0.16666   0.75000   0.00000  Uiso   1.00
Cu690  Cu    0.88022   0.16667   0.75000   0.00000  Uiso   1.00
O691   O     0.79373   0.10654   0.75000   0.00000  Uiso   1.00
O692   O     0.87292   0.10655   0.75000   0.00000  Uiso   1.00
O693   O     0.81306   0.16667   0.67451   0.00000  Uiso   1.00
O694   O     0.89225   0.16668   0.67451   0.00000  Uiso   1.00
C695   C     0.83295   0.08741   0.75112   0.00000  Uiso   1.00
C696   C     0.85975   0.16654   0.64983   0.00000  Uiso   1.00
C697   C     0.92981   0.13264   0.51334   0.00000  Uiso   1.00
H698   H     0.96490   0.11851   0.99319   0.00000  Uiso   1.00
C699   C     0.87526   0.16183   0.59275   0.00000  Uiso   1.00
C700   C     0.74355   0.17595   0.93440   0.00000  Uiso   1.00
C701   C     0.72869   0.18008   0.98818   0.00000  Uiso   1.00
C702   C     0.76146   0.17279   0.51614   0.00000  Uiso   1.00
C703   C     0.81054   0.15962   0.99014   0.00000  Uiso   1.00
C704   C     0.82258   0.14845   0.93630   0.00000  Uiso   1.00
C705   C     0.84758   0.15585   0.51547   0.00000  Uiso   1.00
C706   C     0.89332   0.13710   0.98863   0.00000  Uiso   1.00
C707   C     0.90139   0.12090   0.93855   0.00000  Uiso   1.00
C708   C     0.86553   0.12435   0.91334   0.00000  Uiso   1.00
C709   C     0.84118   0.17058   0.56646   0.00000  Uiso   1.00
C710   C     0.92058   0.14412   0.56537   0.00000  Uiso   1.00
C711   C     0.79068   0.16133   0.90760   0.00000  Uiso   1.00
H712   H     0.80994   0.18889   0.58724   0.00000  Uiso   1.00
H713   H     0.71810   0.18484   0.91366   0.00000  Uiso   1.00
H714   H     0.69160   0.19018   0.50842   0.00000  Uiso   1.00
C715   C     0.87577   0.31195   0.72648   0.00000  Uiso   1.00
C716   C     0.87547   0.02115   0.72725   0.00000  Uiso   1.00
C717   C     0.83222   0.04275   0.75318   0.00000  Uiso   1.00
C718   C     0.78867   0.02119   0.77912   0.00000  Uiso   1.00
C719   C     0.78938   0.31161   0.77747   0.00000  Uiso   1.00
C720   C     0.83277   0.29044   0.75129   0.00000  Uiso   1.00
C721   C     0.96628   0.19319   0.78150   0.00000  Uiso   1.00
C722   C     0.68253   0.19323   0.78134   0.00000  Uiso   1.00
H723   H     0.69403   0.21445   0.80651   0.00000  Uiso   1.00
N724   N     0.71598   0.16666   0.74999   0.00000  Uiso   1.00
C725   C     0.70002   0.13962   0.71894   0.00000  Uiso   1.00
C726   C     0.98393   0.14013   0.71870   0.00000  Uiso   1.00
N727   N     0.95069   0.16669   0.75000   0.00000  Uiso   1.00
F728   F     0.95513   0.13617   0.58921   0.00000  Uiso   1.00
F729   F     0.91720   0.04115   0.70085   0.00000  Uiso   1.00
N730   N     0.74416   0.04208   0.80829   0.00000  Uiso   1.00
O731   O     0.74512   0.07082   0.84194   0.00000  Uiso   1.00
O732   O     0.70183   0.02888   0.80628   0.00000  Uiso   1.00
F733   F     0.74843   0.29049   0.80385   0.00000  Uiso   1.00
F734   F     0.93408   0.21984   0.81337   0.00000  Uiso   1.00
N735   N     0.73246   0.10950   0.68748   0.00000  Uiso   1.00
O736   O     0.72812   0.07143   0.70279   0.00000  Uiso   1.00
O737   O     0.75309   0.11682   0.63819   0.00000  Uiso   1.00
F738   F     0.96950   0.11377   0.68699   0.00000  Uiso   1.00
F739   F     0.94308   0.09899   0.91555   0.00000  Uiso   1.00
F740   F     0.74253   0.17589   0.56872   0.00000  Uiso   1.00
N741   N     0.86933   0.09770   0.86933   0.00000  Uiso   1.00
O742   O     0.91171   0.09065   0.83474   0.00000  Uiso   1.00
O743   O     0.83207   0.07505   0.86878   0.00000  Uiso   1.00
F744   F     0.91778   0.29184   0.69997   0.00000  Uiso   1.00
O745   O     0.12708   0.56011   0.75001   0.00000  Uiso   1.00
O746   O     0.20627   0.56012   0.75001   0.00000  Uiso   1.00
C747   C     0.16654   0.57922   0.75031   0.00000  Uiso   1.00
O748   O     0.10775   0.49998   0.82549   0.00000  Uiso   1.00
O749   O     0.18694   0.49999   0.82549   0.00000  Uiso   1.00
C750   C     0.14038   0.49759   0.85008   0.00000  Uiso   1.00
Cu751  Cu    0.11978   0.49999   0.75000   0.00000  Uiso   1.00
Cu752  Cu    0.21355   0.50001   0.75000   0.00000  Uiso   1.00
O753   O     0.12706   0.43988   0.75000   0.00000  Uiso   1.00
O754   O     0.20625   0.43989   0.75000   0.00000  Uiso   1.00
O755   O     0.14640   0.50001   0.67451   0.00000  Uiso   1.00
O756   O     0.22559   0.50002   0.67451   0.00000  Uiso   1.00
C757   C     0.16628   0.42075   0.75112   0.00000  Uiso   1.00
C758   C     0.19309   0.49987   0.64983   0.00000  Uiso   1.00
C759   C     0.26314   0.46597   0.51334   0.00000  Uiso   1.00
H760   H     0.29823   0.45184   0.99319   0.00000  Uiso   1.00
C761   C     0.20860   0.49517   0.59275   0.00000  Uiso   1.00
C762   C     0.07689   0.50928   0.93440   0.00000  Uiso   1.00
C763   C     0.06203   0.51342   0.98818   0.00000  Uiso   1.00
C764   C     0.09479   0.50612   0.51614   0.00000  Uiso   1.00
C765   C     0.14387   0.49295   0.99014   0.00000  Uiso   1.00
C766   C     0.15591   0.48178   0.93630   0.00000  Uiso   1.00
C767   C     0.18091   0.48918   0.51547   0.00000  Uiso   1.00
C768   C     0.22665   0.47044   0.98863   0.00000  Uiso   1.00
C769   C     0.23473   0.45423   0.93855   0.00000  Uiso   1.00
C770   C     0.19887   0.45768   0.91334   0.00000  Uiso   1.00
C771   C     0.17451   0.50391   0.56646   0.00000  Uiso   1.00
C772   C     0.25392   0.47745   0.56537   0.00000  Uiso   1.00
C773   C     0.12401   0.49467   0.90760   0.00000  Uiso   1.00
H774   H     0.14327   0.52223   0.58724   0.00000  Uiso   1.00
H775   H     0.05143   0.51817   0.91366   0.00000  Uiso   1.00
H776   H     0.02494   0.52351   0.50842   0.00000  Uiso   1.00
C777   C     0.20911   0.64529   0.72648   0.00000  Uiso   1.00
C778   C     0.20880   0.35448   0.72725   0.00000  Uiso   1.00
C779   C     0.16556   0.37609   0.75318   0.00000  Uiso   1.00
C780   C     0.12200   0.35453   0.77912   0.00000  Uiso   1.00
C781   C     0.12272   0.64494   0.77747   0.00000  Uiso   1.00
C782   C     0.16611   0.62378   0.75129   0.00000  Uiso   1.00
C783   C     0.29961   0.52653   0.78150   0.00000  Uiso   1.00
C784   C     0.01587   0.52656   0.78134   0.00000  Uiso   1.00
H785   H     0.02736   0.54778   0.80651   0.00000  Uiso   1.00
N786   N     0.04931   0.49999   0.74999   0.00000  Uiso   1.00
C787   C     0.03336   0.47295   0.71894   0.00000  Uiso   1.00
C788   C     0.31726   0.47346   0.71870   0.00000  Uiso   1.00
N789   N     0.28402   0.50002   0.75000   0.00000  Uiso   1.00
F790   F     0.28846   0.46950   0.58921   0.00000  Uiso   1.00
F791   F     0.25053   0.37448   0.70085   0.00000  Uiso   1.00
N792   N     0.07750   0.37541   0.80829   0.00000  Uiso   1.00
O793   O     0.07845   0.40415   0.84194   0.00000  Uiso   1.00
O794   O     0.03517   0.36222   0.80628   0.00000  Uiso   1.00
F795   F     0.08176   0.62382   0.80385   0.00000  Uiso   1.00
F796   F     0.26741   0.55318   0.81337   0.00000  Uiso   1.00
N797   N     0.06579   0.44283   0.68748   0.00000  Uiso   1.00
O798   O     0.06146   0.40477   0.70279   0.00000  Uiso   1.00
O799   O     0.08642   0.45016   0.63819   0.00000  Uiso   1.00
F800   F     0.30283   0.44710   0.68699   0.00000  Uiso   1.00
F801   F     0.27641   0.43232   0.91555   0.00000  Uiso   1.00
F802   F     0.07586   0.50923   0.56872   0.00000  Uiso   1.00
N803   N     0.20267   0.43104   0.86933   0.00000  Uiso   1.00
O804   O     0.24505   0.42398   0.83474   0.00000  Uiso   1.00
O805   O     0.16540   0.40838   0.86878   0.00000  Uiso   1.00
F806   F     0.25112   0.62517   0.69997   0.00000  Uiso   1.00
O807   O     0.46042   0.56011   0.75001   0.00000  Uiso   1.00
O808   O     0.53961   0.56012   0.75001   0.00000  Uiso   1.00
C809   C     0.49988   0.57922   0.75031   0.00000  Uiso   1.00
O810   O     0.44108   0.49998   0.82549   0.00000  Uiso   1.00
O811   O     0.52027   0.49999   0.82549   0.00000  Uiso   1.00
C812   C     0.47371   0.49759   0.85008   0.00000  Uiso   1.00
Cu813  Cu    0.45311   0.49999   0.75000   0.00000  Uiso   1.00
Cu814  Cu    0.54689   0.50001   0.75000   0.00000  Uiso   1.00
O815   O     0.46039   0.43988   0.75000   0.00000  Uiso   1.00
O816   O     0.53958   0.43989   0.75000   0.00000  Uiso   1.00
O817   O     0.47973   0.50001   0.67451   0.00000  Uiso   1.00
O818   O     0.55892   0.50002   0.67451   0.00000  Uiso   1.00
C819   C     0.49961   0.42075   0.75112   0.00000  Uiso   1.00
C820   C     0.52642   0.49987   0.64983   0.00000  Uiso   1.00
C821   C     0.59648   0.46597   0.51334   0.00000  Uiso   1.00
H822   H     0.63157   0.45184   0.99319   0.00000  Uiso   1.00
C823   C     0.54193   0.49517   0.59275   0.00000  Uiso   1.00
C824   C     0.41022   0.50928   0.93440   0.00000  Uiso   1.00
C825   C     0.39536   0.51342   0.98818   0.00000  Uiso   1.00
C826   C     0.42812   0.50612   0.51614   0.00000  Uiso   1.00
C827   C     0.47721   0.49295   0.99014   0.00000  Uiso   1.00
C828   C     0.48924   0.48178   0.93630   0.00000  Uiso   1.00
C829   C     0.51424   0.48918   0.51547   0.00000  Uiso   1.00
C830   C     0.55998   0.47044   0.98863   0.00000  Uiso   1.00
C831   C     0.56806   0.45423   0.93855   0.00000  Uiso   1.00
C832   C     0.53220   0.45768   0.91334   0.00000  Uiso   1.00
C833   C     0.50784   0.50391   0.56646   0.00000  Uiso   1.00
C834   C     0.58725   0.47745   0.56537   0.00000  Uiso   1.00
C835   C     0.45735   0.49467   0.90760   0.00000  Uiso   1.00
H836   H     0.47661   0.52223   0.58724   0.00000  Uiso   1.00
H837   H     0.38476   0.51817   0.91366   0.00000  Uiso   1.00
H838   H     0.35827   0.52351   0.50842   0.00000  Uiso   1.00
C839   C     0.54244   0.64529   0.72648   0.00000  Uiso   1.00
C840   C     0.54214   0.35448   0.72725   0.00000  Uiso   1.00
C841   C     0.49889   0.37609   0.75318   0.00000  Uiso   1.00
C842   C     0.45533   0.35453   0.77912   0.00000  Uiso   1.00
C843   C     0.45605   0.64494   0.77747   0.00000  Uiso   1.00
C844   C     0.49944   0.62378   0.75129   0.00000  Uiso   1.00
C845   C     0.63294   0.52653   0.78150   0.00000  Uiso   1.00
C846   C     0.34920   0.52656   0.78134   0.00000  Uiso   1.00
H847   H     0.36069   0.54778   0.80651   0.00000  Uiso   1.00
N848   N     0.38265   0.49999   0.74999   0.00000  Uiso   1.00
C849   C     0.36669   0.47295   0.71894   0.00000  Uiso   1.00
C850   C     0.65060   0.47346   0.71870   0.00000  Uiso   1.00
N851   N     0.61735   0.50002   0.75000   0.00000  Uiso   1.00
F852   F     0.62179   0.46950   0.58921   0.00000  Uiso   1.00
F853   F     0.58387   0.37448   0.70085   0.00000  Uiso   1.00
N854   N     0.41083   0.37541   0.80829   0.00000  Uiso   1.00
O855   O     0.41178   0.40415   0.84194   0.00000  Uiso   1.00
O856   O     0.36850   0.36222   0.80628   0.00000  Uiso   1.00
F857   F     0.41510   0.62382   0.80385   0.00000  Uiso   1.00
F858   F     0.60075   0.55318   0.81337   0.00000  Uiso   1.00
N859   N     0.39913   0.44283   0.68748   0.00000  Uiso   1.00
O860   O     0.39479   0.40477   0.70279   0.00000  Uiso   1.00
O861   O     0.41976   0.45016   0.63819   0.00000  Uiso   1.00
F862   F     0.63617   0.44710   0.68699   0.00000  Uiso   1.00
F863   F     0.60974   0.43232   0.91555   0.00000  Uiso   1.00
F864   F     0.40920   0.50923   0.56872   0.00000  Uiso   1.00
N865   N     0.53600   0.43104   0.86933   0.00000  Uiso   1.00
O866   O     0.57838   0.42398   0.83474   0.00000  Uiso   1.00
O867   O     0.49873   0.40838   0.86878   0.00000  Uiso   1.00
F868   F     0.58445   0.62517   0.69997   0.00000  Uiso   1.00
O869   O     0.79375   0.56011   0.75001   0.00000  Uiso   1.00
O870   O     0.87294   0.56012   0.75001   0.00000  Uiso   1.00
C871   C     0.83321   0.57922   0.75031   0.00000  Uiso   1.00
O872   O     0.77441   0.49998   0.82549   0.00000  Uiso   1.00
O873   O     0.85360   0.49999   0.82549   0.00000  Uiso   1.00
C874   C     0.80704   0.49759   0.85008   0.00000  Uiso   1.00
Cu875  Cu    0.78645   0.49999   0.75000   0.00000  Uiso   1.00
Cu876  Cu    0.88022   0.50001   0.75000   0.00000  Uiso   1.00
O877   O     0.79373   0.43988   0.75000   0.00000  Uiso   1.00
O878   O     0.87292   0.43989   0.75000   0.00000  Uiso   1.00
O879   O     0.81306   0.50001   0.67451   0.00000  Uiso   1.00
O880   O     0.89225   0.50002   0.67451   0.00000  Uiso   1.00
C881   C     0.83295   0.42075   0.75112   0.00000  Uiso   1.00
C882   C     0.85975   0.49987   0.64983   0.00000  Uiso   1.00
C883   C     0.92981   0.46597   0.51334   0.00000  Uiso   1.00
H884   H     0.96490   0.45184   0.99319   0.00000  Uiso   1.00
C885   C     0.87526   0.49517   0.59275   0.00000  Uiso   1.00
C886   C     0.74355   0.50928   0.93440   0.00000  Uiso   1.00
C887   C     0.72869   0.51342   0.98818   0.00000  Uiso   1.00
C888   C     0.76146   0.50612   0.51614   0.00000  Uiso   1.00
C889   C     0.81054   0.49295   0.99014   0.00000  Uiso   1.00
C890   C     0.82258   0.48178   0.93630   0.00000  Uiso   1.00
C891   C     0.84758   0.48918   0.51547   0.00000  Uiso   1.00
C892   C     0.89332   0.47044   0.98863   0.00000  Uiso   1.00
C893   C     0.90139   0.45423   0.93855   0.00000  Uiso   1.00
C894   C     0.86553   0.45768   0.91334   0.00000  Uiso   1.00
C895   C     0.84118   0.50391   0.56646   0.00000  Uiso   1.00
C896   C     0.92058   0.47745   0.56537   0.00000  Uiso   1.00
C897   C     0.79068   0.49467   0.90760   0.00000  Uiso   1.00
H898   H     0.80994   0.52223   0.58724   0.00000  Uiso   1.00
H899   H     0.71810   0.51817   0.91366   0.00000  Uiso   1.00
H900   H     0.69160   0.52351   0.50842   0.00000  Uiso   1.00
C901   C     0.87577   0.64529   0.72648   0.00000  Uiso   1.00
C902   C     0.87547   0.35448   0.72725   0.00000  Uiso   1.00
C903   C     0.83222   0.37609   0.75318   0.00000  Uiso   1.00
C904   C     0.78867   0.35453   0.77912   0.00000  Uiso   1.00
C905   C     0.78938   0.64494   0.77747   0.00000  Uiso   1.00
C906   C     0.83277   0.62378   0.75129   0.00000  Uiso   1.00
C907   C     0.96628   0.52653   0.78150   0.00000  Uiso   1.00
C908   C     0.68253   0.52656   0.78134   0.00000  Uiso   1.00
H909   H     0.69403   0.54778   0.80651   0.00000  Uiso   1.00
N910   N     0.71598   0.49999   0.74999   0.00000  Uiso   1.00
C911   C     0.70002   0.47295   0.71894   0.00000  Uiso   1.00
C912   C     0.98393   0.47346   0.71870   0.00000  Uiso   1.00
N913   N     0.95069   0.50002   0.75000   0.00000  Uiso   1.00
F914   F     0.95513   0.46950   0.58921   0.00000  Uiso   1.00
F915   F     0.91720   0.37448   0.70085   0.00000  Uiso   1.00
N916   N     0.74416   0.37541   0.80829   0.00000  Uiso   1.00
O917   O     0.74512   0.40415   0.84194   0.00000  Uiso   1.00
O918   O     0.70183   0.36222   0.80628   0.00000  Uiso   1.00
F919   F     0.74843   0.62382   0.80385   0.00000  Uiso   1.00
F920   F     0.93408   0.55318   0.81337   0.00000  Uiso   1.00
N921   N     0.73246   0.44283   0.68748   0.00000  Uiso   1.00
O922   O     0.72812   0.40477   0.70279   0.00000  Uiso   1.00
O923   O     0.75309   0.45016   0.63819   0.00000  Uiso   1.00
F924   F     0.96950   0.44710   0.68699   0.00000  Uiso   1.00
F925   F     0.94308   0.43232   0.91555   0.00000  Uiso   1.00
F926   F     0.74253   0.50923   0.56872   0.00000  Uiso   1.00
N927   N     0.86933   0.43104   0.86933   0.00000  Uiso   1.00
O928   O     0.91171   0.42398   0.83474   0.00000  Uiso   1.00
O929   O     0.83207   0.40838   0.86878   0.00000  Uiso   1.00
F930   F     0.91778   0.62517   0.69997   0.00000  Uiso   1.00
O931   O     0.12708   0.89345   0.75001   0.00000  Uiso   1.00
O932   O     0.20627   0.89346   0.75001   0.00000  Uiso   1.00
C933   C     0.16654   0.91256   0.75031   0.00000  Uiso   1.00
O934   O     0.10775   0.83332   0.82549   0.00000  Uiso   1.00
O935   O     0.18694   0.83333   0.82549   0.00000  Uiso   1.00
C936   C     0.14038   0.83092   0.85008   0.00000  Uiso   1.00
Cu937  Cu    0.11978   0.83333   0.75000   0.00000  Uiso   1.00
Cu938  Cu    0.21355   0.83334   0.75000   0.00000  Uiso   1.00
O939   O     0.12706   0.77321   0.75000   0.00000  Uiso   1.00
O940   O     0.20625   0.77322   0.75000   0.00000  Uiso   1.00
O941   O     0.14640   0.83334   0.67451   0.00000  Uiso   1.00
O942   O     0.22559   0.83335   0.67451   0.00000  Uiso   1.00
C943   C     0.16628   0.75408   0.75112   0.00000  Uiso   1.00
C944   C     0.19309   0.83321   0.64983   0.00000  Uiso   1.00
C945   C     0.26314   0.79930   0.51334   0.00000  Uiso   1.00
H946   H     0.29823   0.78517   0.99319   0.00000  Uiso   1.00
C947   C     0.20860   0.82850   0.59275   0.00000  Uiso   1.00
C948   C     0.07689   0.84262   0.93440   0.00000  Uiso   1.00
C949   C     0.06203   0.84675   0.98818   0.00000  Uiso   1.00
C950   C     0.09479   0.83946   0.51614   0.00000  Uiso   1.00
C951   C     0.14387   0.82628   0.99014   0.00000  Uiso   1.00
C952   C     0.15591   0.81511   0.93630   0.00000  Uiso   1.00
C953   C     0.18091   0.82251   0.51547   0.00000  Uiso   1.00
C954   C     0.22665   0.80377   0.98863   0.00000  Uiso   1.00
C955   C     0.23473   0.78756   0.93855   0.00000  Uiso   1.00
C956   C     0.19887   0.79101   0.91334   0.00000  Uiso   1.00
C957   C     0.17451   0.83725   0.56646   0.00000  Uiso   1.00
C958   C     0.25392   0.81078   0.56537   0.00000  Uiso   1.00
C959   C     0.12401   0.82800   0.90760   0.00000  Uiso   1.00
H960   H     0.14327   0.85556   0.58724   0.00000  Uiso   1.00
H961   H     0.05143   0.85150   0.91366   0.00000  Uiso   1.00
H962   H     0.02494   0.85685   0.50842   0.00000  Uiso   1.00
C963   C     0.20911   0.97862   0.72648   0.00000  Uiso   1.00
C964   C     0.20880   0.68781   0.72725   0.00000  Uiso   1.00
C965   C     0.16556   0.70942   0.75318   0.00000  Uiso   1.00
C966   C     0.12200   0.68786   0.77912   0.00000  Uiso   1.00
C967   C     0.12272   0.97828   0.77747   0.00000  Uiso   1.00
C968   C     0.16611   0.95711   0.75129   0.00000  Uiso   1.00
C969   C     0.29961   0.85986   0.78150   0.00000  Uiso   1.00
C970   C     0.01587   0.85989   0.78134   0.00000  Uiso   1.00
H971   H     0.02736   0.88112   0.80651   0.00000  Uiso   1.00
N972   N     0.04931   0.83332   0.74999   0.00000  Uiso   1.00
C973   C     0.03336   0.80628   0.71894   0.00000  Uiso   1.00
C974   C     0.31726   0.80679   0.71870   0.00000  Uiso   1.00
N975   N     0.28402   0.83335   0.75000   0.00000  Uiso   1.00
F976   F     0.28846   0.80283   0.58921   0.00000  Uiso   1.00
F977   F     0.25053   0.70782   0.70085   0.00000  Uiso   1.00
N978   N     0.07750   0.70874   0.80829   0.00000  Uiso   1.00
O979   O     0.07845   0.73748   0.84194   0.00000  Uiso   1.00
O980   O     0.03517   0.69555   0.80628   0.00000  Uiso   1.00
F981   F     0.08176   0.95716   0.80385   0.00000  Uiso   1.00
F982   F     0.26741   0.88651   0.81337   0.00000  Uiso   1.00
N983   N     0.06579   0.77616   0.68748   0.00000  Uiso   1.00
O984   O     0.06146   0.73810   0.70279   0.00000  Uiso   1.00
O985   O     0.08642   0.78349   0.63819   0.00000  Uiso   1.00
F986   F     0.30283   0.78043   0.68699   0.00000  Uiso   1.00
F987   F     0.27641   0.76565   0.91555   0.00000  Uiso   1.00
F988   F     0.07586   0.84256   0.56872   0.00000  Uiso   1.00
N989   N     0.20267   0.76437   0.86933   0.00000  Uiso   1.00
O990   O     0.24505   0.75731   0.83474   0.00000  Uiso   1.00
O991   O     0.16540   0.74172   0.86878   0.00000  Uiso   1.00
F992   F     0.25112   0.95851   0.69997   0.00000  Uiso   1.00
O993   O     0.46042   0.89345   0.75001   0.00000  Uiso   1.00
O994   O     0.53961   0.89346   0.75001   0.00000  Uiso   1.00
C995   C     0.49988   0.91256   0.75031   0.00000  Uiso   1.00
O996   O     0.44108   0.83332   0.82549   0.00000  Uiso   1.00
O997   O     0.52027   0.83333   0.82549   0.00000  Uiso   1.00
C998   C     0.47371   0.83092   0.85008   0.00000  Uiso   1.00
Cu999  Cu    0.45311   0.83333   0.75000   0.00000  Uiso   1.00
Cu1000 Cu    0.54689   0.83334   0.75000   0.00000  Uiso   1.00
O1001  O     0.46039   0.77321   0.75000   0.00000  Uiso   1.00
O1002  O     0.53958   0.77322   0.75000   0.00000  Uiso   1.00
O1003  O     0.47973   0.83334   0.67451   0.00000  Uiso   1.00
O1004  O     0.55892   0.83335   0.67451   0.00000  Uiso   1.00
C1005  C     0.49961   0.75408   0.75112   0.00000  Uiso   1.00
C1006  C     0.52642   0.83321   0.64983   0.00000  Uiso   1.00
C1007  C     0.59648   0.79930   0.51334   0.00000  Uiso   1.00
H1008  H     0.63157   0.78517   0.99319   0.00000  Uiso   1.00
C1009  C     0.54193   0.82850   0.59275   0.00000  Uiso   1.00
C1010  C     0.41022   0.84262   0.93440   0.00000  Uiso   1.00
C1011  C     0.39536   0.84675   0.98818   0.00000  Uiso   1.00
C1012  C     0.42812   0.83946   0.51614   0.00000  Uiso   1.00
C1013  C     0.47721   0.82628   0.99014   0.00000  Uiso   1.00
C1014  C     0.48924   0.81511   0.93630   0.00000  Uiso   1.00
C1015  C     0.51424   0.82251   0.51547   0.00000  Uiso   1.00
C1016  C     0.55998   0.80377   0.98863   0.00000  Uiso   1.00
C1017  C     0.56806   0.78756   0.93855   0.00000  Uiso   1.00
C1018  C     0.53220   0.79101   0.91334   0.00000  Uiso   1.00
C1019  C     0.50784   0.83725   0.56646   0.00000  Uiso   1.00
C1020  C     0.58725   0.81078   0.56537   0.00000  Uiso   1.00
C1021  C     0.45735   0.82800   0.90760   0.00000  Uiso   1.00
H1022  H     0.47661   0.85556   0.58724   0.00000  Uiso   1.00
H1023  H     0.38476   0.85150   0.91366   0.00000  Uiso   1.00
H1024  H     0.35827   0.85685   0.50842   0.00000  Uiso   1.00
C1025  C     0.54244   0.97862   0.72648   0.00000  Uiso   1.00
C1026  C     0.54214   0.68781   0.72725   0.00000  Uiso   1.00
C1027  C     0.49889   0.70942   0.75318   0.00000  Uiso   1.00
C1028  C     0.45533   0.68786   0.77912   0.00000  Uiso   1.00
C1029  C     0.45605   0.97828   0.77747   0.00000  Uiso   1.00
C1030  C     0.49944   0.95711   0.75129   0.00000  Uiso   1.00
C1031  C     0.63294   0.85986   0.78150   0.00000  Uiso   1.00
C1032  C     0.34920   0.85989   0.78134   0.00000  Uiso   1.00
H1033  H     0.36069   0.88112   0.80651   0.00000  Uiso   1.00
N1034  N     0.38265   0.83332   0.74999   0.00000  Uiso   1.00
C1035  C     0.36669   0.80628   0.71894   0.00000  Uiso   1.00
C1036  C     0.65060   0.80679   0.71870   0.00000  Uiso   1.00
N1037  N     0.61735   0.83335   0.75000   0.00000  Uiso   1.00
F1038  F     0.62179   0.80283   0.58921   0.00000  Uiso   1.00
F1039  F     0.58387   0.70782   0.70085   0.00000  Uiso   1.00
N1040  N     0.41083   0.70874   0.80829   0.00000  Uiso   1.00
O1041  O     0.41178   0.73748   0.84194   0.00000  Uiso   1.00
O1042  O     0.36850   0.69555   0.80628   0.00000  Uiso   1.00
F1043  F     0.41510   0.95716   0.80385   0.00000  Uiso   1.00
F1044  F     0.60075   0.88651   0.81337   0.00000  Uiso   1.00
N1045  N     0.39913   0.77616   0.68748   0.00000  Uiso   1.00
O1046  O     0.39479   0.73810   0.70279   0.00000  Uiso   1.00
O1047  O     0.41976   0.78349   0.63819   0.00000  Uiso   1.00
F1048  F     0.63617   0.78043   0.68699   0.00000  Uiso   1.00
F1049  F     0.60974   0.76565   0.91555   0.00000  Uiso   1.00
F1050  F     0.40920   0.84256   0.56872   0.00000  Uiso   1.00
N1051  N     0.53600   0.76437   0.86933   0.00000  Uiso   1.00
O1052  O     0.57838   0.75731   0.83474   0.00000  Uiso   1.00
O1053  O     0.49873   0.74172   0.86878   0.00000  Uiso   1.00
F1054  F     0.58445   0.95851   0.69997   0.00000  Uiso   1.00
O1055  O     0.79375   0.89345   0.75001   0.00000  Uiso   1.00
O1056  O     0.87294   0.89346   0.75001   0.00000  Uiso   1.00
C1057  C     0.83321   0.91256   0.75031   0.00000  Uiso   1.00
O1058  O     0.77441   0.83332   0.82549   0.00000  Uiso   1.00
O1059  O     0.85360   0.83333   0.82549   0.00000  Uiso   1.00
C1060  C     0.80704   0.83092   0.85008   0.00000  Uiso   1.00
Cu1061 Cu    0.78645   0.83333   0.75000   0.00000  Uiso   1.00
Cu1062 Cu    0.88022   0.83334   0.75000   0.00000  Uiso   1.00
O1063  O     0.79373   0.77321   0.75000   0.00000  Uiso   1.00
O1064  O     0.87292   0.77322   0.75000   0.00000  Uiso   1.00
O1065  O     0.81306   0.83334   0.67451   0.00000  Uiso   1.00
O1066  O     0.89225   0.83335   0.67451   0.00000  Uiso   1.00
C1067  C     0.83295   0.75408   0.75112   0.00000  Uiso   1.00
C1068  C     0.85975   0.83321   0.64983   0.00000  Uiso   1.00
C1069  C     0.92981   0.79930   0.51334   0.00000  Uiso   1.00
H1070  H     0.96490   0.78517   0.99319   0.00000  Uiso   1.00
C1071  C     0.87526   0.82850   0.59275   0.00000  Uiso   1.00
C1072  C     0.74355   0.84262   0.93440   0.00000  Uiso   1.00
C1073  C     0.72869   0.84675   0.98818   0.00000  Uiso   1.00
C1074  C     0.76146   0.83946   0.51614   0.00000  Uiso   1.00
C1075  C     0.81054   0.82628   0.99014   0.00000  Uiso   1.00
C1076  C     0.82258   0.81511   0.93630   0.00000  Uiso   1.00
C1077  C     0.84758   0.82251   0.51547   0.00000  Uiso   1.00
C1078  C     0.89332   0.80377   0.98863   0.00000  Uiso   1.00
C1079  C     0.90139   0.78756   0.93855   0.00000  Uiso   1.00
C1080  C     0.86553   0.79101   0.91334   0.00000  Uiso   1.00
C1081  C     0.84118   0.83725   0.56646   0.00000  Uiso   1.00
C1082  C     0.92058   0.81078   0.56537   0.00000  Uiso   1.00
C1083  C     0.79068   0.82800   0.90760   0.00000  Uiso   1.00
H1084  H     0.80994   0.85556   0.58724   0.00000  Uiso   1.00
H1085  H     0.71810   0.85150   0.91366   0.00000  Uiso   1.00
H1086  H     0.69160   0.85685   0.50842   0.00000  Uiso   1.00
C1087  C     0.87577   0.97862   0.72648   0.00000  Uiso   1.00
C1088  C     0.87547   0.68781   0.72725   0.00000  Uiso   1.00
C1089  C     0.83222   0.70942   0.75318   0.00000  Uiso   1.00
C1090  C     0.78867   0.68786   0.77912   0.00000  Uiso   1.00
C1091  C     0.78938   0.97828   0.77747   0.00000  Uiso   1.00
C1092  C     0.83277   0.95711   0.75129   0.00000  Uiso   1.00
C1093  C     0.96628   0.85986   0.78150   0.00000  Uiso   1.00
C1094  C     0.68253   0.85989   0.78134   0.00000  Uiso   1.00
H1095  H     0.69403   0.88112   0.80651   0.00000  Uiso   1.00
N1096  N     0.71598   0.83332   0.74999   0.00000  Uiso   1.00
C1097  C     0.70002   0.80628   0.71894   0.00000  Uiso   1.00
C1098  C     0.98393   0.80679   0.71870   0.00000  Uiso   1.00
N1099  N     0.95069   0.83335   0.75000   0.00000  Uiso   1.00
F1100  F     0.95513   0.80283   0.58921   0.00000  Uiso   1.00
F1101  F     0.91720   0.70782   0.70085   0.00000  Uiso   1.00
N1102  N     0.74416   0.70874   0.80829   0.00000  Uiso   1.00
O1103  O     0.74512   0.73748   0.84194   0.00000  Uiso   1.00
O1104  O     0.70183   0.69555   0.80628   0.00000  Uiso   1.00
F1105  F     0.74843   0.95716   0.80385   0.00000  Uiso   1.00
F1106  F     0.93408   0.88651   0.81337   0.00000  Uiso   1.00
N1107  N     0.73246   0.77616   0.68748   0.00000  Uiso   1.00
O1108  O     0.72812   0.73810   0.70279   0.00000  Uiso   1.00
O1109  O     0.75309   0.78349   0.63819   0.00000  Uiso   1.00
F1110  F     0.96950   0.78043   0.68699   0.00000  Uiso   1.00
F1111  F     0.94308   0.76565   0.91555   0.00000  Uiso   1.00
F1112  F     0.74253   0.84256   0.56872   0.00000  Uiso   1.00
N1113  N     0.86933   0.76437   0.86933   0.00000  Uiso   1.00
O1114  O     0.91171   0.75731   0.83474   0.00000  Uiso   1.00
O1115  O     0.83207   0.74172   0.86878   0.00000  Uiso   1.00
F1116  F     0.91778   0.95851   0.69997   0.00000  Uiso   1.00
loop_
_geom_bond_atom_site_label_1
_geom_bond_atom_site_label_2
_geom_bond_distance
_geom_bond_site_symmetry_2
_ccdc_geom_bond_type
O1     Cu7     1.964   .     S
O1     C3      1.291   .     A
O2     C3      1.292   .     A
O2     Cu8     1.963   .     S
C3     C38     1.447   .     S
O4     Cu7     1.952   .     S
O4     C6      1.300   .     A
O5     Cu8     1.937   .     S
O5     C6      1.296   .     A
C6     C29     1.476   .     S
Cu7    Cu8     2.682   .     S
Cu7    O11     1.937   .     S
Cu7    N42     2.016   .     S
Cu7    O9      1.963   .     S
Cu8    O12     1.952   .     S
Cu8    N45     2.016   .     S
Cu8    O10     1.964   .     S
O9     C13     1.290   .     A
O10    C13     1.295   .     A
O11    C14     1.297   .     A
O12    C14     1.296   .     A
C13    C35     1.452   .     S
C14    C17     1.468   .     S
C15    C28     1.389   .     A
C15    H574    1.084   1_554 S
C15    C582    1.406   1_554 S
H16    C573    1.084   .     S
C17    C27     1.398   .     A
C17    C28     1.401   .     A
C18    C29     1.401   .     A
C18    C19     1.382   .     A
C18    H31     1.083   .     S
C19    C578    1.389   .     S
C19    H590    1.083   .     S
C20    F58     1.353   .     S
C20    C577    1.389   1_554 S
C20    C579    1.427   1_554 S
C21    C22     1.425   .     A
C21    C578    1.427   .     S
C21    C581    1.429   .     S
C22    C29     1.427   .     A
C22    C26     1.425   .     A
C23    C27     1.406   .     A
C23    C579    1.429   1_554 S
C23    C582    1.420   1_554 S
C24    C25     1.393   .     A
C24    C573    1.406   .     S
C24    C581    1.420   .     S
C25    F57     1.360   .     S
C25    C26     1.396   .     A
C26    N59     1.437   .     S
C27    H30     1.074   .     S
C28    F46     1.357   .     S
H32    C577    1.083   1_554 S
C33    C38     1.398   .     A
C33    F62     1.359   .     S
C33    C220    1.381   .     S
C34    F47     1.358   .     S
C34    C35     1.404   .     A
C34    C405    1.381   1_545 S
C35    C36     1.417   .     A
C36    N48     1.441   .     S
C36    C409    1.394   1_545 S
C37    C38     1.402   .     A
C37    F51     1.360   .     S
C37    C222    1.394   .     S
C39    N45     1.370   .     A
C39    F52     1.355   .     S
C39    C102    1.417   .     S
C40    H41     1.082   .     S
C40    N42     1.365   .     A
C40    C163    1.417   1_455 S
N42    C43     1.378   .     A
C43    N53     1.428   .     S
C43    C168    1.416   1_455 S
C44    F56     1.354   .     S
C44    N45     1.362   .     A
C44    C105    1.416   .     S
N48    O50     1.301   .     A
N48    O49     1.301   .     A
N53    O55     1.299   .     A
N53    O54     1.300   .     A
N59    O61     1.300   .     A
N59    O60     1.302   .     A
O63    Cu69    1.964   .     S
O63    C65     1.291   .     A
O64    C65     1.292   .     A
O64    Cu70    1.963   .     S
C65    C100    1.447   .     S
O66    Cu69    1.952   .     S
O66    C68     1.300   .     A
O67    Cu70    1.937   .     S
O67    C68     1.296   .     A
C68    C91     1.476   .     S
Cu69   Cu70    2.682   .     S
Cu69   O73     1.937   .     S
Cu69   N104    2.016   .     S
Cu69   O71     1.963   .     S
Cu70   O74     1.952   .     S
Cu70   N107    2.016   .     S
Cu70   O72     1.964   .     S
O71    C75     1.290   .     A
O72    C75     1.295   .     A
O73    C76     1.297   .     A
O74    C76     1.296   .     A
C75    C97     1.452   .     S
C76    C79     1.468   .     S
C77    C90     1.389   .     A
C77    H636    1.084   1_554 S
C77    C644    1.406   1_554 S
H78    C635    1.084   .     S
C79    C89     1.398   .     A
C79    C90     1.401   .     A
C80    C91     1.401   .     A
C80    C81     1.382   .     A
C80    H93     1.083   .     S
C81    C640    1.389   .     S
C81    H652    1.083   .     S
C82    F120    1.353   .     S
C82    C639    1.389   1_554 S
C82    C641    1.427   1_554 S
C83    C84     1.425   .     A
C83    C640    1.427   .     S
C83    C643    1.429   .     S
C84    C91     1.427   .     A
C84    C88     1.425   .     A
C85    C89     1.406   .     A
C85    C641    1.429   1_554 S
C85    C644    1.420   1_554 S
C86    C87     1.393   .     A
C86    C635    1.406   .     S
C86    C643    1.420   .     S
C87    F119    1.360   .     S
C87    C88     1.396   .     A
C88    N121    1.437   .     S
C89    H92     1.074   .     S
C90    F108    1.357   .     S
H94    C639    1.083   1_554 S
C95    C100    1.398   .     A
C95    F124    1.359   .     S
C95    C282    1.381   .     S
C96    F109    1.358   .     S
C96    C97     1.404   .     A
C96    C467    1.381   1_545 S
C97    C98     1.417   .     A
C98    N110    1.441   .     S
C98    C471    1.394   1_545 S
C99    C100    1.402   .     A
C99    F113    1.360   .     S
C99    C284    1.394   .     S
C101   N107    1.370   .     A
C101   F114    1.355   .     S
C101   C164    1.417   .     S
C102   H103    1.082   .     S
C102   N104    1.365   .     A
N104   C105    1.378   .     A
C105   N115    1.428   .     S
C106   F118    1.354   .     S
C106   N107    1.362   .     A
C106   C167    1.416   .     S
N110   O112    1.301   .     A
N110   O111    1.301   .     A
N115   O117    1.299   .     A
N115   O116    1.300   .     A
N121   O123    1.300   .     A
N121   O122    1.302   .     A
O125   Cu131   1.964   .     S
O125   C127    1.291   .     A
O126   C127    1.292   .     A
O126   Cu132   1.963   .     S
C127   C162    1.447   .     S
O128   Cu131   1.952   .     S
O128   C130    1.300   .     A
O129   Cu132   1.937   .     S
O129   C130    1.296   .     A
C130   C153    1.476   .     S
Cu131  Cu132   2.682   .     S
Cu131  O135    1.937   .     S
Cu131  N166    2.016   .     S
Cu131  O133    1.963   .     S
Cu132  O136    1.952   .     S
Cu132  N169    2.016   .     S
Cu132  O134    1.964   .     S
O133   C137    1.290   .     A
O134   C137    1.295   .     A
O135   C138    1.297   .     A
O136   C138    1.296   .     A
C137   C159    1.452   .     S
C138   C141    1.468   .     S
C139   C152    1.389   .     A
C139   H698    1.084   1_554 S
C139   C706    1.406   1_554 S
H140   C697    1.084   .     S
C141   C151    1.398   .     A
C141   C152    1.401   .     A
C142   C153    1.401   .     A
C142   C143    1.382   .     A
C142   H155    1.083   .     S
C143   C702    1.389   .     S
C143   H714    1.083   .     S
C144   F182    1.353   .     S
C144   C701    1.389   1_554 S
C144   C703    1.427   1_554 S
C145   C146    1.425   .     A
C145   C702    1.427   .     S
C145   C705    1.429   .     S
C146   C153    1.427   .     A
C146   C150    1.425   .     A
C147   C151    1.406   .     A
C147   C703    1.429   1_554 S
C147   C706    1.420   1_554 S
C148   C149    1.393   .     A
C148   C697    1.406   .     S
C148   C705    1.420   .     S
C149   F181    1.360   .     S
C149   C150    1.396   .     A
C150   N183    1.437   .     S
C151   H154    1.074   .     S
C152   F170    1.357   .     S
H156   C701    1.083   1_554 S
C157   C162    1.398   .     A
C157   F186    1.359   .     S
C157   C344    1.381   .     S
C158   F171    1.358   .     S
C158   C159    1.404   .     A
C158   C529    1.381   1_545 S
C159   C160    1.417   .     A
C160   N172    1.441   .     S
C160   C533    1.394   1_545 S
C161   C162    1.402   .     A
C161   F175    1.360   .     S
C161   C346    1.394   .     S
C163   N169    1.370   .     A
C163   F176    1.355   .     S
C163   C40     1.417   1_655 S
C164   H165    1.082   .     S
C164   N166    1.365   .     A
N166   C167    1.378   .     A
C167   N177    1.428   .     S
C168   F180    1.354   .     S
C168   N169    1.362   .     A
C168   C43     1.416   1_655 S
N172   O174    1.301   .     A
N172   O173    1.301   .     A
N177   O179    1.299   .     A
N177   O178    1.300   .     A
N183   O185    1.300   .     A
N183   O184    1.302   .     A
O187   Cu193   1.964   .     S
O187   C189    1.291   .     A
O188   C189    1.292   .     A
O188   Cu194   1.963   .     S
C189   C224    1.447   .     S
O190   Cu193   1.952   .     S
O190   C192    1.300   .     A
O191   Cu194   1.937   .     S
O191   C192    1.296   .     A
C192   C215    1.476   .     S
Cu193  Cu194   2.682   .     S
Cu193  O197    1.937   .     S
Cu193  N228    2.016   .     S
Cu193  O195    1.963   .     S
Cu194  O198    1.952   .     S
Cu194  N231    2.016   .     S
Cu194  O196    1.964   .     S
O195   C199    1.290   .     A
O196   C199    1.295   .     A
O197   C200    1.297   .     A
O198   C200    1.296   .     A
C199   C221    1.452   .     S
C200   C203    1.468   .     S
C201   C214    1.389   .     A
C201   H760    1.084   1_554 S
C201   C768    1.406   1_554 S
H202   C759    1.084   .     S
C203   C213    1.398   .     A
C203   C214    1.401   .     A
C204   C215    1.401   .     A
C204   C205    1.382   .     A
C204   H217    1.083   .     S
C205   C764    1.389   .     S
C205   H776    1.083   .     S
C206   F244    1.353   .     S
C206   C763    1.389   1_554 S
C206   C765    1.427   1_554 S
C207   C208    1.425   .     A
C207   C764    1.427   .     S
C207   C767    1.429   .     S
C208   C215    1.427   .     A
C208   C212    1.425   .     A
C209   C213    1.406   .     A
C209   C765    1.429   1_554 S
C209   C768    1.420   1_554 S
C210   C211    1.393   .     A
C210   C759    1.406   .     S
C210   C767    1.420   .     S
C211   F243    1.360   .     S
C211   C212    1.396   .     A
C212   N245    1.437   .     S
C213   H216    1.074   .     S
C214   F232    1.357   .     S
H218   C763    1.083   1_554 S
C219   C224    1.398   .     A
C219   F248    1.359   .     S
C219   C406    1.381   .     S
C220   F233    1.358   .     S
C220   C221    1.404   .     A
C221   C222    1.417   .     A
C222   N234    1.441   .     S
C223   C224    1.402   .     A
C223   F237    1.360   .     S
C223   C408    1.394   .     S
C225   N231    1.370   .     A
C225   F238    1.355   .     S
C225   C288    1.417   .     S
C226   H227    1.082   .     S
C226   N228    1.365   .     A
C226   C349    1.417   1_455 S
N228   C229    1.378   .     A
C229   N239    1.428   .     S
C229   C354    1.416   1_455 S
C230   F242    1.354   .     S
C230   N231    1.362   .     A
C230   C291    1.416   .     S
N234   O236    1.301   .     A
N234   O235    1.301   .     A
N239   O241    1.299   .     A
N239   O240    1.300   .     A
N245   O247    1.300   .     A
N245   O246    1.302   .     A
O249   Cu255   1.964   .     S
O249   C251    1.291   .     A
O250   C251    1.292   .     A
O250   Cu256   1.963   .     S
C251   C286    1.447   .     S
O252   Cu255   1.952   .     S
O252   C254    1.300   .     A
O253   Cu256   1.937   .     S
O253   C254    1.296   .     A
C254   C277    1.476   .     S
Cu255  Cu256   2.682   .     S
Cu255  O259    1.937   .     S
Cu255  N290    2.016   .     S
Cu255  O257    1.963   .     S
Cu256  O260    1.952   .     S
Cu256  N293    2.016   .     S
Cu256  O258    1.964   .     S
O257   C261    1.290   .     A
O258   C261    1.295   .     A
O259   C262    1.297   .     A
O260   C262    1.296   .     A
C261   C283    1.452   .     S
C262   C265    1.468   .     S
C263   C276    1.389   .     A
C263   H822    1.084   1_554 S
C263   C830    1.406   1_554 S
H264   C821    1.084   .     S
C265   C275    1.398   .     A
C265   C276    1.401   .     A
C266   C277    1.401   .     A
C266   C267    1.382   .     A
C266   H279    1.083   .     S
C267   C826    1.389   .     S
C267   H838    1.083   .     S
C268   F306    1.353   .     S
C268   C825    1.389   1_554 S
C268   C827    1.427   1_554 S
C269   C270    1.425   .     A
C269   C826    1.427   .     S
C269   C829    1.429   .     S
C270   C277    1.427   .     A
C270   C274    1.425   .     A
C271   C275    1.406   .     A
C271   C827    1.429   1_554 S
C271   C830    1.420   1_554 S
C272   C273    1.393   .     A
C272   C821    1.406   .     S
C272   C829    1.420   .     S
C273   F305    1.360   .     S
C273   C274    1.396   .     A
C274   N307    1.437   .     S
C275   H278    1.074   .     S
C276   F294    1.357   .     S
H280   C825    1.083   1_554 S
C281   C286    1.398   .     A
C281   F310    1.359   .     S
C281   C468    1.381   .     S
C282   F295    1.358   .     S
C282   C283    1.404   .     A
C283   C284    1.417   .     A
C284   N296    1.441   .     S
C285   C286    1.402   .     A
C285   F299    1.360   .     S
C285   C470    1.394   .     S
C287   N293    1.370   .     A
C287   F300    1.355   .     S
C287   C350    1.417   .     S
C288   H289    1.082   .     S
C288   N290    1.365   .     A
N290   C291    1.378   .     A
C291   N301    1.428   .     S
C292   F304    1.354   .     S
C292   N293    1.362   .     A
C292   C353    1.416   .     S
N296   O298    1.301   .     A
N296   O297    1.301   .     A
N301   O303    1.299   .     A
N301   O302    1.300   .     A
N307   O309    1.300   .     A
N307   O308    1.302   .     A
O311   Cu317   1.964   .     S
O311   C313    1.291   .     A
O312   C313    1.292   .     A
O312   Cu318   1.963   .     S
C313   C348    1.447   .     S
O314   Cu317   1.952   .     S
O314   C316    1.300   .     A
O315   Cu318   1.937   .     S
O315   C316    1.296   .     A
C316   C339    1.476   .     S
Cu317  Cu318   2.682   .     S
Cu317  O321    1.937   .     S
Cu317  N352    2.016   .     S
Cu317  O319    1.963   .     S
Cu318  O322    1.952   .     S
Cu318  N355    2.016   .     S
Cu318  O320    1.964   .     S
O319   C323    1.290   .     A
O320   C323    1.295   .     A
O321   C324    1.297   .     A
O322   C324    1.296   .     A
C323   C345    1.452   .     S
C324   C327    1.468   .     S
C325   C338    1.389   .     A
C325   H884    1.084   1_554 S
C325   C892    1.406   1_554 S
H326   C883    1.084   .     S
C327   C337    1.398   .     A
C327   C338    1.401   .     A
C328   C339    1.401   .     A
C328   C329    1.382   .     A
C328   H341    1.083   .     S
C329   C888    1.389   .     S
C329   H900    1.083   .     S
C330   F368    1.353   .     S
C330   C887    1.389   1_554 S
C330   C889    1.427   1_554 S
C331   C332    1.425   .     A
C331   C888    1.427   .     S
C331   C891    1.429   .     S
C332   C339    1.427   .     A
C332   C336    1.425   .     A
C333   C337    1.406   .     A
C333   C889    1.429   1_554 S
C333   C892    1.420   1_554 S
C334   C335    1.393   .     A
C334   C883    1.406   .     S
C334   C891    1.420   .     S
C335   F367    1.360   .     S
C335   C336    1.396   .     A
C336   N369    1.437   .     S
C337   H340    1.074   .     S
C338   F356    1.357   .     S
H342   C887    1.083   1_554 S
C343   C348    1.398   .     A
C343   F372    1.359   .     S
C343   C530    1.381   .     S
C344   F357    1.358   .     S
C344   C345    1.404   .     A
C345   C346    1.417   .     A
C346   N358    1.441   .     S
C347   C348    1.402   .     A
C347   F361    1.360   .     S
C347   C532    1.394   .     S
C349   N355    1.370   .     A
C349   F362    1.355   .     S
C349   C226    1.417   1_655 S
C350   H351    1.082   .     S
C350   N352    1.365   .     A
N352   C353    1.378   .     A
C353   N363    1.428   .     S
C354   F366    1.354   .     S
C354   N355    1.362   .     A
C354   C229    1.416   1_655 S
N358   O360    1.301   .     A
N358   O359    1.301   .     A
N363   O365    1.299   .     A
N363   O364    1.300   .     A
N369   O371    1.300   .     A
N369   O370    1.302   .     A
O373   Cu379   1.964   .     S
O373   C375    1.291   .     A
O374   C375    1.292   .     A
O374   Cu380   1.963   .     S
C375   C410    1.447   .     S
O376   Cu379   1.952   .     S
O376   C378    1.300   .     A
O377   Cu380   1.937   .     S
O377   C378    1.296   .     A
C378   C401    1.476   .     S
Cu379  Cu380   2.682   .     S
Cu379  O383    1.937   .     S
Cu379  N414    2.016   .     S
Cu379  O381    1.963   .     S
Cu380  O384    1.952   .     S
Cu380  N417    2.016   .     S
Cu380  O382    1.964   .     S
O381   C385    1.290   .     A
O382   C385    1.295   .     A
O383   C386    1.297   .     A
O384   C386    1.296   .     A
C385   C407    1.452   .     S
C386   C389    1.468   .     S
C387   C400    1.389   .     A
C387   H946    1.084   1_554 S
C387   C954    1.406   1_554 S
H388   C945    1.084   .     S
C389   C399    1.398   .     A
C389   C400    1.401   .     A
C390   C401    1.401   .     A
C390   C391    1.382   .     A
C390   H403    1.083   .     S
C391   C950    1.389   .     S
C391   H962    1.083   .     S
C392   F430    1.353   .     S
C392   C949    1.389   1_554 S
C392   C951    1.427   1_554 S
C393   C394    1.425   .     A
C393   C950    1.427   .     S
C393   C953    1.429   .     S
C394   C401    1.427   .     A
C394   C398    1.425   .     A
C395   C399    1.406   .     A
C395   C951    1.429   1_554 S
C395   C954    1.420   1_554 S
C396   C397    1.393   .     A
C396   C945    1.406   .     S
C396   C953    1.420   .     S
C397   F429    1.360   .     S
C397   C398    1.396   .     A
C398   N431    1.437   .     S
C399   H402    1.074   .     S
C400   F418    1.357   .     S
H404   C949    1.083   1_554 S
C405   C410    1.398   .     A
C405   F434    1.359   .     S
C405   C34     1.381   1_565 S
C406   F419    1.358   .     S
C406   C407    1.404   .     A
C407   C408    1.417   .     A
C408   N420    1.441   .     S
C409   C410    1.402   .     A
C409   F423    1.360   .     S
C409   C36     1.394   1_565 S
C411   N417    1.370   .     A
C411   F424    1.355   .     S
C411   C474    1.417   .     S
C412   H413    1.082   .     S
C412   N414    1.365   .     A
C412   C535    1.417   1_455 S
N414   C415    1.378   .     A
C415   N425    1.428   .     S
C415   C540    1.416   1_455 S
C416   F428    1.354   .     S
C416   N417    1.362   .     A
C416   C477    1.416   .     S
N420   O422    1.301   .     A
N420   O421    1.301   .     A
N425   O427    1.299   .     A
N425   O426    1.300   .     A
N431   O433    1.300   .     A
N431   O432    1.302   .     A
O435   Cu441   1.964   .     S
O435   C437    1.291   .     A
O436   C437    1.292   .     A
O436   Cu442   1.963   .     S
C437   C472    1.447   .     S
O438   Cu441   1.952   .     S
O438   C440    1.300   .     A
O439   Cu442   1.937   .     S
O439   C440    1.296   .     A
C440   C463    1.476   .     S
Cu441  Cu442   2.682   .     S
Cu441  O445    1.937   .     S
Cu441  N476    2.016   .     S
Cu441  O443    1.963   .     S
Cu442  O446    1.952   .     S
Cu442  N479    2.016   .     S
Cu442  O444    1.964   .     S
O443   C447    1.290   .     A
O444   C447    1.295   .     A
O445   C448    1.297   .     A
O446   C448    1.296   .     A
C447   C469    1.452   .     S
C448   C451    1.468   .     S
C449   C462    1.389   .     A
C449   H1008   1.084   1_554 S
C449   C1016   1.406   1_554 S
H450   C1007   1.084   .     S
C451   C461    1.398   .     A
C451   C462    1.401   .     A
C452   C463    1.401   .     A
C452   C453    1.382   .     A
C452   H465    1.083   .     S
C453   C1012   1.389   .     S
C453   H1024   1.083   .     S
C454   F492    1.353   .     S
C454   C1011   1.389   1_554 S
C454   C1013   1.427   1_554 S
C455   C456    1.425   .     A
C455   C1012   1.427   .     S
C455   C1015   1.429   .     S
C456   C463    1.427   .     A
C456   C460    1.425   .     A
C457   C461    1.406   .     A
C457   C1013   1.429   1_554 S
C457   C1016   1.420   1_554 S
C458   C459    1.393   .     A
C458   C1007   1.406   .     S
C458   C1015   1.420   .     S
C459   F491    1.360   .     S
C459   C460    1.396   .     A
C460   N493    1.437   .     S
C461   H464    1.074   .     S
C462   F480    1.357   .     S
H466   C1011   1.083   1_554 S
C467   C472    1.398   .     A
C467   F496    1.359   .     S
C467   C96     1.381   1_565 S
C468   F481    1.358   .     S
C468   C469    1.404   .     A
C469   C470    1.417   .     A
C470   N482    1.441   .     S
C471   C472    1.402   .     A
C471   F485    1.360   .     S
C471   C98     1.394   1_565 S
C473   N479    1.370   .     A
C473   F486    1.355   .     S
C473   C536    1.417   .     S
C474   H475    1.082   .     S
C474   N476    1.365   .     A
N476   C477    1.378   .     A
C477   N487    1.428   .     S
C478   F490    1.354   .     S
C478   N479    1.362   .     A
C478   C539    1.416   .     S
N482   O484    1.301   .     A
N482   O483    1.301   .     A
N487   O489    1.299   .     A
N487   O488    1.300   .     A
N493   O495    1.300   .     A
N493   O494    1.302   .     A
O497   Cu503   1.964   .     S
O497   C499    1.291   .     A
O498   C499    1.292   .     A
O498   Cu504   1.963   .     S
C499   C534    1.447   .     S
O500   Cu503   1.952   .     S
O500   C502    1.300   .     A
O501   Cu504   1.937   .     S
O501   C502    1.296   .     A
C502   C525    1.476   .     S
Cu503  Cu504   2.682   .     S
Cu503  O507    1.937   .     S
Cu503  N538    2.016   .     S
Cu503  O505    1.963   .     S
Cu504  O508    1.952   .     S
Cu504  N541    2.016   .     S
Cu504  O506    1.964   .     S
O505   C509    1.290   .     A
O506   C509    1.295   .     A
O507   C510    1.297   .     A
O508   C510    1.296   .     A
C509   C531    1.452   .     S
C510   C513    1.468   .     S
C511   C524    1.389   .     A
C511   H1070   1.084   1_554 S
C511   C1078   1.406   1_554 S
H512   C1069   1.084   .     S
C513   C523    1.398   .     A
C513   C524    1.401   .     A
C514   C525    1.401   .     A
C514   C515    1.382   .     A
C514   H527    1.083   .     S
C515   C1074   1.389   .     S
C515   H1086   1.083   .     S
C516   F554    1.353   .     S
C516   C1073   1.389   1_554 S
C516   C1075   1.427   1_554 S
C517   C518    1.425   .     A
C517   C1074   1.427   .     S
C517   C1077   1.429   .     S
C518   C525    1.427   .     A
C518   C522    1.425   .     A
C519   C523    1.406   .     A
C519   C1075   1.429   1_554 S
C519   C1078   1.420   1_554 S
C520   C521    1.393   .     A
C520   C1069   1.406   .     S
C520   C1077   1.420   .     S
C521   F553    1.360   .     S
C521   C522    1.396   .     A
C522   N555    1.437   .     S
C523   H526    1.074   .     S
C524   F542    1.357   .     S
H528   C1073   1.083   1_554 S
C529   C534    1.398   .     A
C529   F558    1.359   .     S
C529   C158    1.381   1_565 S
C530   F543    1.358   .     S
C530   C531    1.404   .     A
C531   C532    1.417   .     A
C532   N544    1.441   .     S
C533   C534    1.402   .     A
C533   F547    1.360   .     S
C533   C160    1.394   1_565 S
C535   N541    1.370   .     A
C535   F548    1.355   .     S
C535   C412    1.417   1_655 S
C536   H537    1.082   .     S
C536   N538    1.365   .     A
N538   C539    1.378   .     A
C539   N549    1.428   .     S
C540   F552    1.354   .     S
C540   N541    1.362   .     A
C540   C415    1.416   1_655 S
N544   O546    1.301   .     A
N544   O545    1.301   .     A
N549   O551    1.299   .     A
N549   O550    1.300   .     A
N555   O557    1.300   .     A
N555   O556    1.302   .     A
O559   Cu565   1.964   .     S
O559   C561    1.291   .     A
O560   C561    1.292   .     A
O560   Cu566   1.963   .     S
C561   C596    1.447   .     S
O562   Cu565   1.952   .     S
O562   C564    1.300   .     A
O563   Cu566   1.937   .     S
O563   C564    1.296   .     A
C564   C587    1.476   .     S
Cu565  Cu566   2.682   .     S
Cu565  O569    1.937   .     S
Cu565  N600    2.016   .     S
Cu565  O567    1.963   .     S
Cu566  O570    1.952   .     S
Cu566  N603    2.016   .     S
Cu566  O568    1.964   .     S
O567   C571    1.290   .     A
O568   C571    1.295   .     A
O569   C572    1.297   .     A
O570   C572    1.296   .     A
C571   C593    1.452   .     S
C572   C575    1.468   .     S
C573   C586    1.389   .     A
H574   C15     1.084   1_556 S
C575   C585    1.398   .     A
C575   C586    1.401   .     A
C576   C587    1.401   .     A
C576   C577    1.382   .     A
C576   H589    1.083   .     S
C577   C20     1.389   1_556 S
C577   H32     1.083   1_556 S
C578   F616    1.353   .     S
C579   C580    1.425   .     A
C579   C20     1.427   1_556 S
C579   C23     1.429   1_556 S
C580   C587    1.427   .     A
C580   C584    1.425   .     A
C581   C585    1.406   .     A
C582   C583    1.393   .     A
C582   C15     1.406   1_556 S
C582   C23     1.420   1_556 S
C583   F615    1.360   .     S
C583   C584    1.396   .     A
C584   N617    1.437   .     S
C585   H588    1.074   .     S
C586   F604    1.357   .     S
C591   C596    1.398   .     A
C591   F620    1.359   .     S
C591   C778    1.381   .     S
C592   F605    1.358   .     S
C592   C593    1.404   .     A
C592   C963    1.381   1_545 S
C593   C594    1.417   .     A
C594   N606    1.441   .     S
C594   C967    1.394   1_545 S
C595   C596    1.402   .     A
C595   F609    1.360   .     S
C595   C780    1.394   .     S
C597   N603    1.370   .     A
C597   F610    1.355   .     S
C597   C660    1.417   .     S
C598   H599    1.082   .     S
C598   N600    1.365   .     A
C598   C721    1.417   1_455 S
N600   C601    1.378   .     A
C601   N611    1.428   .     S
C601   C726    1.416   1_455 S
C602   F614    1.354   .     S
C602   N603    1.362   .     A
C602   C663    1.416   .     S
N606   O608    1.301   .     A
N606   O607    1.301   .     A
N611   O613    1.299   .     A
N611   O612    1.300   .     A
N617   O619    1.300   .     A
N617   O618    1.302   .     A
O621   Cu627   1.964   .     S
O621   C623    1.291   .     A
O622   C623    1.292   .     A
O622   Cu628   1.963   .     S
C623   C658    1.447   .     S
O624   Cu627   1.952   .     S
O624   C626    1.300   .     A
O625   Cu628   1.937   .     S
O625   C626    1.296   .     A
C626   C649    1.476   .     S
Cu627  Cu628   2.682   .     S
Cu627  O631    1.937   .     S
Cu627  N662    2.016   .     S
Cu627  O629    1.963   .     S
Cu628  O632    1.952   .     S
Cu628  N665    2.016   .     S
Cu628  O630    1.964   .     S
O629   C633    1.290   .     A
O630   C633    1.295   .     A
O631   C634    1.297   .     A
O632   C634    1.296   .     A
C633   C655    1.452   .     S
C634   C637    1.468   .     S
C635   C648    1.389   .     A
H636   C77     1.084   1_556 S
C637   C647    1.398   .     A
C637   C648    1.401   .     A
C638   C649    1.401   .     A
C638   C639    1.382   .     A
C638   H651    1.083   .     S
C639   C82     1.389   1_556 S
C639   H94     1.083   1_556 S
C640   F678    1.353   .     S
C641   C642    1.425   .     A
C641   C82     1.427   1_556 S
C641   C85     1.429   1_556 S
C642   C649    1.427   .     A
C642   C646    1.425   .     A
C643   C647    1.406   .     A
C644   C645    1.393   .     A
C644   C77     1.406   1_556 S
C644   C85     1.420   1_556 S
C645   F677    1.360   .     S
C645   C646    1.396   .     A
C646   N679    1.437   .     S
C647   H650    1.074   .     S
C648   F666    1.357   .     S
C653   C658    1.398   .     A
C653   F682    1.359   .     S
C653   C840    1.381   .     S
C654   F667    1.358   .     S
C654   C655    1.404   .     A
C654   C1025   1.381   1_545 S
C655   C656    1.417   .     A
C656   N668    1.441   .     S
C656   C1029   1.394   1_545 S
C657   C658    1.402   .     A
C657   F671    1.360   .     S
C657   C842    1.394   .     S
C659   N665    1.370   .     A
C659   F672    1.355   .     S
C659   C722    1.417   .     S
C660   H661    1.082   .     S
C660   N662    1.365   .     A
N662   C663    1.378   .     A
C663   N673    1.428   .     S
C664   F676    1.354   .     S
C664   N665    1.362   .     A
C664   C725    1.416   .     S
N668   O670    1.301   .     A
N668   O669    1.301   .     A
N673   O675    1.299   .     A
N673   O674    1.300   .     A
N679   O681    1.300   .     A
N679   O680    1.302   .     A
O683   Cu689   1.964   .     S
O683   C685    1.291   .     A
O684   C685    1.292   .     A
O684   Cu690   1.963   .     S
C685   C720    1.447   .     S
O686   Cu689   1.952   .     S
O686   C688    1.300   .     A
O687   Cu690   1.937   .     S
O687   C688    1.296   .     A
C688   C711    1.476   .     S
Cu689  Cu690   2.682   .     S
Cu689  O693    1.937   .     S
Cu689  N724    2.016   .     S
Cu689  O691    1.963   .     S
Cu690  O694    1.952   .     S
Cu690  N727    2.016   .     S
Cu690  O692    1.964   .     S
O691   C695    1.290   .     A
O692   C695    1.295   .     A
O693   C696    1.297   .     A
O694   C696    1.296   .     A
C695   C717    1.452   .     S
C696   C699    1.468   .     S
C697   C710    1.389   .     A
H698   C139    1.084   1_556 S
C699   C709    1.398   .     A
C699   C710    1.401   .     A
C700   C711    1.401   .     A
C700   C701    1.382   .     A
C700   H713    1.083   .     S
C701   C144    1.389   1_556 S
C701   H156    1.083   1_556 S
C702   F740    1.353   .     S
C703   C704    1.425   .     A
C703   C144    1.427   1_556 S
C703   C147    1.429   1_556 S
C704   C711    1.427   .     A
C704   C708    1.425   .     A
C705   C709    1.406   .     A
C706   C707    1.393   .     A
C706   C139    1.406   1_556 S
C706   C147    1.420   1_556 S
C707   F739    1.360   .     S
C707   C708    1.396   .     A
C708   N741    1.437   .     S
C709   H712    1.074   .     S
C710   F728    1.357   .     S
C715   C720    1.398   .     A
C715   F744    1.359   .     S
C715   C902    1.381   .     S
C716   F729    1.358   .     S
C716   C717    1.404   .     A
C716   C1087   1.381   1_545 S
C717   C718    1.417   .     A
C718   N730    1.441   .     S
C718   C1091   1.394   1_545 S
C719   C720    1.402   .     A
C719   F733    1.360   .     S
C719   C904    1.394   .     S
C721   N727    1.370   .     A
C721   F734    1.355   .     S
C721   C598    1.417   1_655 S
C722   H723    1.082   .     S
C722   N724    1.365   .     A
N724   C725    1.378   .     A
C725   N735    1.428   .     S
C726   F738    1.354   .     S
C726   N727    1.362   .     A
C726   C601    1.416   1_655 S
N730   O732    1.301   .     A
N730   O731    1.301   .     A
N735   O737    1.299   .     A
N735   O736    1.300   .     A
N741   O743    1.300   .     A
N741   O742    1.302   .     A
O745   Cu751   1.964   .     S
O745   C747    1.291   .     A
O746   C747    1.292   .     A
O746   Cu752   1.963   .     S
C747   C782    1.447   .     S
O748   Cu751   1.952   .     S
O748   C750    1.300   .     A
O749   Cu752   1.937   .     S
O749   C750    1.296   .     A
C750   C773    1.476   .     S
Cu751  Cu752   2.682   .     S
Cu751  O755    1.937   .     S
Cu751  N786    2.016   .     S
Cu751  O753    1.963   .     S
Cu752  O756    1.952   .     S
Cu752  N789    2.016   .     S
Cu752  O754    1.964   .     S
O753   C757    1.290   .     A
O754   C757    1.295   .     A
O755   C758    1.297   .     A
O756   C758    1.296   .     A
C757   C779    1.452   .     S
C758   C761    1.468   .     S
C759   C772    1.389   .     A
H760   C201    1.084   1_556 S
C761   C771    1.398   .     A
C761   C772    1.401   .     A
C762   C773    1.401   .     A
C762   C763    1.382   .     A
C762   H775    1.083   .     S
C763   C206    1.389   1_556 S
C763   H218    1.083   1_556 S
C764   F802    1.353   .     S
C765   C766    1.425   .     A
C765   C206    1.427   1_556 S
C765   C209    1.429   1_556 S
C766   C773    1.427   .     A
C766   C770    1.425   .     A
C767   C771    1.406   .     A
C768   C769    1.393   .     A
C768   C201    1.406   1_556 S
C768   C209    1.420   1_556 S
C769   F801    1.360   .     S
C769   C770    1.396   .     A
C770   N803    1.437   .     S
C771   H774    1.074   .     S
C772   F790    1.357   .     S
C777   C782    1.398   .     A
C777   F806    1.359   .     S
C777   C964    1.381   .     S
C778   F791    1.358   .     S
C778   C779    1.404   .     A
C779   C780    1.417   .     A
C780   N792    1.441   .     S
C781   C782    1.402   .     A
C781   F795    1.360   .     S
C781   C966    1.394   .     S
C783   N789    1.370   .     A
C783   F796    1.355   .     S
C783   C846    1.417   .     S
C784   H785    1.082   .     S
C784   N786    1.365   .     A
C784   C907    1.417   1_455 S
N786   C787    1.378   .     A
C787   N797    1.428   .     S
C787   C912    1.416   1_455 S
C788   F800    1.354   .     S
C788   N789    1.362   .     A
C788   C849    1.416   .     S
N792   O794    1.301   .     A
N792   O793    1.301   .     A
N797   O799    1.299   .     A
N797   O798    1.300   .     A
N803   O805    1.300   .     A
N803   O804    1.302   .     A
O807   Cu813   1.964   .     S
O807   C809    1.291   .     A
O808   C809    1.292   .     A
O808   Cu814   1.963   .     S
C809   C844    1.447   .     S
O810   Cu813   1.952   .     S
O810   C812    1.300   .     A
O811   Cu814   1.937   .     S
O811   C812    1.296   .     A
C812   C835    1.476   .     S
Cu813  Cu814   2.682   .     S
Cu813  O817    1.937   .     S
Cu813  N848    2.016   .     S
Cu813  O815    1.963   .     S
Cu814  O818    1.952   .     S
Cu814  N851    2.016   .     S
Cu814  O816    1.964   .     S
O815   C819    1.290   .     A
O816   C819    1.295   .     A
O817   C820    1.297   .     A
O818   C820    1.296   .     A
C819   C841    1.452   .     S
C820   C823    1.468   .     S
C821   C834    1.389   .     A
H822   C263    1.084   1_556 S
C823   C833    1.398   .     A
C823   C834    1.401   .     A
C824   C835    1.401   .     A
C824   C825    1.382   .     A
C824   H837    1.083   .     S
C825   C268    1.389   1_556 S
C825   H280    1.083   1_556 S
C826   F864    1.353   .     S
C827   C828    1.425   .     A
C827   C268    1.427   1_556 S
C827   C271    1.429   1_556 S
C828   C835    1.427   .     A
C828   C832    1.425   .     A
C829   C833    1.406   .     A
C830   C831    1.393   .     A
C830   C263    1.406   1_556 S
C830   C271    1.420   1_556 S
C831   F863    1.360   .     S
C831   C832    1.396   .     A
C832   N865    1.437   .     S
C833   H836    1.074   .     S
C834   F852    1.357   .     S
C839   C844    1.398   .     A
C839   F868    1.359   .     S
C839   C1026   1.381   .     S
C840   F853    1.358   .     S
C840   C841    1.404   .     A
C841   C842    1.417   .     A
C842   N854    1.441   .     S
C843   C844    1.402   .     A
C843   F857    1.360   .     S
C843   C1028   1.394   .     S
C845   N851    1.370   .     A
C845   F858    1.355   .     S
C845   C908    1.417   .     S
C846   H847    1.082   .     S
C846   N848    1.365   .     A
N848   C849    1.378   .     A
C849   N859    1.428   .     S
C850   F862    1.354   .     S
C850   N851    1.362   .     A
C850   C911    1.416   .     S
N854   O856    1.301   .     A
N854   O855    1.301   .     A
N859   O861    1.299   .     A
N859   O860    1.300   .     A
N865   O867    1.300   .     A
N865   O866    1.302   .     A
O869   Cu875   1.964   .     S
O869   C871    1.291   .     A
O870   C871    1.292   .     A
O870   Cu876   1.963   .     S
C871   C906    1.447   .     S
O872   Cu875   1.952   .     S
O872   C874    1.300   .     A
O873   Cu876   1.937   .     S
O873   C874    1.296   .     A
C874   C897    1.476   .     S
Cu875  Cu876   2.682   .     S
Cu875  O879    1.937   .     S
Cu875  N910    2.016   .     S
Cu875  O877    1.963   .     S
Cu876  O880    1.952   .     S
Cu876  N913    2.016   .     S
Cu876  O878    1.964   .     S
O877   C881    1.290   .     A
O878   C881    1.295   .     A
O879   C882    1.297   .     A
O880   C882    1.296   .     A
C881   C903    1.452   .     S
C882   C885    1.468   .     S
C883   C896    1.389   .     A
H884   C325    1.084   1_556 S
C885   C895    1.398   .     A
C885   C896    1.401   .     A
C886   C897    1.401   .     A
C886   C887    1.382   .     A
C886   H899    1.083   .     S
C887   C330    1.389   1_556 S
C887   H342    1.083   1_556 S
C888   F926    1.353   .     S
C889   C890    1.425   .     A
C889   C330    1.427   1_556 S
C889   C333    1.429   1_556 S
C890   C897    1.427   .     A
C890   C894    1.425   .     A
C891   C895    1.406   .     A
C892   C893    1.393   .     A
C892   C325    1.406   1_556 S
C892   C333    1.420   1_556 S
C893   F925    1.360   .     S
C893   C894    1.396   .     A
C894   N927    1.437   .     S
C895   H898    1.074   .     S
C896   F914    1.357   .     S
C901   C906    1.398   .     A
C901   F930    1.359   .     S
C901   C1088   1.381   .     S
C902   F915    1.358   .     S
C902   C903    1.404   .     A
C903   C904    1.417   .     A
C904   N916    1.441   .     S
C905   C906    1.402   .     A
C905   F919    1.360   .     S
C905   C1090   1.394   .     S
C907   N913    1.370   .     A
C907   F920    1.355   .     S
C907   C784    1.417   1_655 S
C908   H909    1.082   .     S
C908   N910    1.365   .     A
N910   C911    1.378   .     A
C911   N921    1.428   .     S
C912   F924    1.354   .     S
C912   N913    1.362   .     A
C912   C787    1.416   1_655 S
N916   O918    1.301   .     A
N916   O917    1.301   .     A
N921   O923    1.299   .     A
N921   O922    1.300   .     A
N927   O929    1.300   .     A
N927   O928    1.302   .     A
O931   Cu937   1.964   .     S
O931   C933    1.291   .     A
O932   C933    1.292   .     A
O932   Cu938   1.963   .     S
C933   C968    1.447   .     S
O934   Cu937   1.952   .     S
O934   C936    1.300   .     A
O935   Cu938   1.937   .     S
O935   C936    1.296   .     A
C936   C959    1.476   .     S
Cu937  Cu938   2.682   .     S
Cu937  O941    1.937   .     S
Cu937  N972    2.016   .     S
Cu937  O939    1.963   .     S
Cu938  O942    1.952   .     S
Cu938  N975    2.016   .     S
Cu938  O940    1.964   .     S
O939   C943    1.290   .     A
O940   C943    1.295   .     A
O941   C944    1.297   .     A
O942   C944    1.296   .     A
C943   C965    1.452   .     S
C944   C947    1.468   .     S
C945   C958    1.389   .     A
H946   C387    1.084   1_556 S
C947   C957    1.398   .     A
C947   C958    1.401   .     A
C948   C959    1.401   .     A
C948   C949    1.382   .     A
C948   H961    1.083   .     S
C949   C392    1.389   1_556 S
C949   H404    1.083   1_556 S
C950   F988    1.353   .     S
C951   C952    1.425   .     A
C951   C392    1.427   1_556 S
C951   C395    1.429   1_556 S
C952   C959    1.427   .     A
C952   C956    1.425   .     A
C953   C957    1.406   .     A
C954   C955    1.393   .     A
C954   C387    1.406   1_556 S
C954   C395    1.420   1_556 S
C955   F987    1.360   .     S
C955   C956    1.396   .     A
C956   N989    1.437   .     S
C957   H960    1.074   .     S
C958   F976    1.357   .     S
C963   C968    1.398   .     A
C963   F992    1.359   .     S
C963   C592    1.381   1_565 S
C964   F977    1.358   .     S
C964   C965    1.404   .     A
C965   C966    1.417   .     A
C966   N978    1.441   .     S
C967   C968    1.402   .     A
C967   F981    1.360   .     S
C967   C594    1.394   1_565 S
C969   N975    1.370   .     A
C969   F982    1.355   .     S
C969   C1032   1.417   .     S
C970   H971    1.082   .     S
C970   N972    1.365   .     A
C970   C1093   1.417   1_455 S
N972   C973    1.378   .     A
C973   N983    1.428   .     S
C973   C1098   1.416   1_455 S
C974   F986    1.354   .     S
C974   N975    1.362   .     A
C974   C1035   1.416   .     S
N978   O980    1.301   .     A
N978   O979    1.301   .     A
N983   O985    1.299   .     A
N983   O984    1.300   .     A
N989   O991    1.300   .     A
N989   O990    1.302   .     A
O993   Cu999   1.964   .     S
O993   C995    1.291   .     A
O994   C995    1.292   .     A
O994   Cu1000  1.963   .     S
C995   C1030   1.447   .     S
O996   Cu999   1.952   .     S
O996   C998    1.300   .     A
O997   Cu1000  1.937   .     S
O997   C998    1.296   .     A
C998   C1021   1.476   .     S
Cu999  Cu1000  2.682   .     S
Cu999  O1003   1.937   .     S
Cu999  N1034   2.016   .     S
Cu999  O1001   1.963   .     S
Cu1000 O1004   1.952   .     S
Cu1000 N1037   2.016   .     S
Cu1000 O1002   1.964   .     S
O1001  C1005   1.290   .     A
O1002  C1005   1.295   .     A
O1003  C1006   1.297   .     A
O1004  C1006   1.296   .     A
C1005  C1027   1.452   .     S
C1006  C1009   1.468   .     S
C1007  C1020   1.389   .     A
H1008  C449    1.084   1_556 S
C1009  C1019   1.398   .     A
C1009  C1020   1.401   .     A
C1010  C1021   1.401   .     A
C1010  C1011   1.382   .     A
C1010  H1023   1.083   .     S
C1011  C454    1.389   1_556 S
C1011  H466    1.083   1_556 S
C1012  F1050   1.353   .     S
C1013  C1014   1.425   .     A
C1013  C454    1.427   1_556 S
C1013  C457    1.429   1_556 S
C1014  C1021   1.427   .     A
C1014  C1018   1.425   .     A
C1015  C1019   1.406   .     A
C1016  C1017   1.393   .     A
C1016  C449    1.406   1_556 S
C1016  C457    1.420   1_556 S
C1017  F1049   1.360   .     S
C1017  C1018   1.396   .     A
C1018  N1051   1.437   .     S
C1019  H1022   1.074   .     S
C1020  F1038   1.357   .     S
C1025  C1030   1.398   .     A
C1025  F1054   1.359   .     S
C1025  C654    1.381   1_565 S
C1026  F1039   1.358   .     S
C1026  C1027   1.404   .     A
C1027  C1028   1.417   .     A
C1028  N1040   1.441   .     S
C1029  C1030   1.402   .     A
C1029  F1043   1.360   .     S
C1029  C656    1.394   1_565 S
C1031  N1037   1.370   .     A
C1031  F1044   1.355   .     S
C1031  C1094   1.417   .     S
C1032  H1033   1.082   .     S
C1032  N1034   1.365   .     A
N1034  C1035   1.378   .     A
C1035  N1045   1.428   .     S
C1036  F1048   1.354   .     S
C1036  N1037   1.362   .     A
C1036  C1097   1.416   .     S
N1040  O1042   1.301   .     A
N1040  O1041   1.301   .     A
N1045  O1047   1.299   .     A
N1045  O1046   1.300   .     A
N1051  O1053   1.300   .     A
N1051  O1052   1.302   .     A
O1055  Cu1061  1.964   .     S
O1055  C1057   1.291   .     A
O1056  C1057   1.292   .     A
O1056  Cu1062  1.963   .     S
C1057  C1092   1.447   .     S
O1058  Cu1061  1.952   .     S
O1058  C1060   1.300   .     A
O1059  Cu1062  1.937   .     S
O1059  C1060   1.296   .     A
C1060  C1083   1.476   .     S
Cu1061 Cu1062  2.682   .     S
Cu1061 O1065   1.937   .     S
Cu1061 N1096   2.016   .     S
Cu1061 O1063   1.963   .     S
Cu1062 O1066   1.952   .     S
Cu1062 N1099   2.016   .     S
Cu1062 O1064   1.964   .     S
O1063  C1067   1.290   .     A
O1064  C1067   1.295   .     A
O1065  C1068   1.297   .     A
O1066  C1068   1.296   .     A
C1067  C1089   1.452   .     S
C1068  C1071   1.468   .     S
C1069  C1082   1.389   .     A
H1070  C511    1.084   1_556 S
C1071  C1081   1.398   .     A
C1071  C1082   1.401   .     A
C1072  C1083   1.401   .     A
C1072  C1073   1.382   .     A
C1072  H1085   1.083   .     S
C1073  C516    1.389   1_556 S
C1073  H528    1.083   1_556 S
C1074  F1112   1.353   .     S
C1075  C1076   1.425   .     A
C1075  C516    1.427   1_556 S
C1075  C519    1.429   1_556 S
C1076  C1083   1.427   .     A
C1076  C1080   1.425   .     A
C1077  C1081   1.406   .     A
C1078  C1079   1.393   .     A
C1078  C511    1.406   1_556 S
C1078  C519    1.420   1_556 S
C1079  F1111   1.360   .     S
C1079  C1080   1.396   .     A
C1080  N1113   1.437   .     S
C1081  H1084   1.074   .     S
C1082  F1100   1.357   .     S
C1087  C1092   1.398   .     A
C1087  F1116   1.359   .     S
C1087  C716    1.381   1_565 S
C1088  F1101   1.358   .     S
C1088  C1089   1.404   .     A
C1089  C1090   1.417   .     A
C1090  N1102   1.441   .     S
C1091  C1092   1.402   .     A
C1091  F1105   1.360   .     S
C1091  C718    1.394   1_565 S
C1093  N1099   1.370   .     A
C1093  F1106   1.355   .     S
C1093  C970    1.417   1_655 S
C1094  H1095   1.082   .     S
C1094  N1096   1.365   .     A
N1096  C1097   1.378   .     A
C1097  N1107   1.428   .     S
C1098  F1110   1.354   .     S
C1098  N1099   1.362   .     A
C1098  C973    1.416   1_655 S
N1102  O1104   1.301   .     A
N1102  O1103   1.301   .     A
N1107  O1109   1.299   .     A
N1107  O1108   1.300   .     A
N1113  O1115   1.300   .     A
N1113  O1114   1.302   .     A
