data_str_m2_o1_o17_pcu_sym.13
_audit_creation_date              2020-01-03
_audit_creation_method            'Materials Studio'
_symmetry_space_group_name_H-M    'P1'
_symmetry_Int_Tables_number       1
_symmetry_cell_setting            triclinic
loop_
_symmetry_equiv_pos_as_xyz
  x,y,z
_cell_length_a                    32.4344
_cell_length_b                    28.5721
_cell_length_c                    30.1927
_cell_angle_alpha                 90.1277
_cell_angle_beta                  90.8165
_cell_angle_gamma                 90.0844
loop_
_atom_site_label
_atom_site_type_symbol
_atom_site_fract_x
_atom_site_fract_y
_atom_site_fract_z
_atom_site_U_iso_or_equiv
_atom_site_adp_type
_atom_site_occupancy
C1     C     0.08740   0.16669   0.25112   0.00000  Uiso   1.00
C2     C     0.04277   0.16677   0.25191   0.00000  Uiso   1.00
C3     C     0.14035   0.02470   0.22287   0.00000  Uiso   1.00
C4     C     0.19295   0.30872   0.27707   0.00000  Uiso   1.00
C5     C     0.19296   0.02494   0.27710   0.00000  Uiso   1.00
C6     C     0.14035   0.30842   0.22287   0.00000  Uiso   1.00
C7     C     0.16595   0.16661   0.16449   0.00000  Uiso   1.00
C8     C     0.16775   0.16667   0.33535   0.00000  Uiso   1.00
C9     C     0.20535   0.17345   0.40677   0.00000  Uiso   1.00
C10    C     0.13072   0.15268   0.09202   0.00000  Uiso   1.00
C11    C     0.16796   0.16640   0.38347   0.00000  Uiso   1.00
C12    C     0.24597   0.16669   0.25031   0.00000  Uiso   1.00
C13    C     0.16610   0.16692   0.11615   0.00000  Uiso   1.00
C14    C     0.13096   0.15798   0.40550   0.00000  Uiso   1.00
C15    C     0.20235   0.18001   0.09428   0.00000  Uiso   1.00
C16    C     0.13085   0.15840   0.45203   0.00000  Uiso   1.00
C17    C     0.20360   0.17718   0.04767   0.00000  Uiso   1.00
C18    C     0.16804   0.16617   0.47626   0.00000  Uiso   1.00
C19    C     0.16710   0.16743   0.02318   0.00000  Uiso   1.00
C20    C     0.20604   0.17223   0.45378   0.00000  Uiso   1.00
C21    C     0.12967   0.15863   0.04556   0.00000  Uiso   1.00
C22    C     0.09368   0.15366   0.47473   0.00000  Uiso   1.00
C23    C     0.09250   0.15492   0.02060   0.00000  Uiso   1.00
C24    C     0.24077   0.18297   0.02523   0.00000  Uiso   1.00
C25    C     0.25134   0.23090   0.37356   0.00000  Uiso   1.00
C26    C     0.07313   0.14377   0.14462   0.00000  Uiso   1.00
C27    C     0.09236   0.14965   0.37939   0.00000  Uiso   1.00
C28    C     0.23973   0.19262   0.12073   0.00000  Uiso   1.00
C29    C     0.05125   0.15895   0.04029   0.00000  Uiso   1.00
C30    C     0.28501   0.17456   0.46108   0.00000  Uiso   1.00
C31    C     0.24296   0.17781   0.47940   0.00000  Uiso   1.00
C32    C     0.02131   0.12446   0.25586   0.00000  Uiso   1.00
C33    C     0.31205   0.20912   0.24773   0.00000  Uiso   1.00
C34    C     0.31202   0.12444   0.25542   0.00000  Uiso   1.00
C35    C     0.02133   0.20912   0.24808   0.00000  Uiso   1.00
C36    C     0.29059   0.16675   0.25114   0.00000  Uiso   1.00
Cu37   Cu    0.16667   0.21355   0.25000   0.00000  Uiso   1.00
Cu38   Cu    0.16667   0.11978   0.25000   0.00000  Uiso   1.00
H39    H     0.06458   0.15122   0.45686   0.00000  Uiso   1.00
H40    H     0.11927   0.28964   0.20114   0.00000  Uiso   1.00
H41    H     0.24707   0.16005   0.35614   0.00000  Uiso   1.00
H42    H     0.28229   0.23945   0.38742   0.00000  Uiso   1.00
H43    H     0.22837   0.25502   0.38832   0.00000  Uiso   1.00
H44    H     0.25214   0.23667   0.33729   0.00000  Uiso   1.00
H45    H     0.08854   0.09650   0.09401   0.00000  Uiso   1.00
H46    H     0.04108   0.14386   0.13136   0.00000  Uiso   1.00
H47    H     0.08209   0.18011   0.15377   0.00000  Uiso   1.00
H48    H     0.07318   0.12112   0.17419   0.00000  Uiso   1.00
H49    H     0.04608   0.10530   0.36338   0.00000  Uiso   1.00
H50    H     0.26923   0.18900   0.04354   0.00000  Uiso   1.00
H51    H     0.29541   0.17274   0.14448   0.00000  Uiso   1.00
H52    H     0.32792   0.13101   0.04706   0.00000  Uiso   1.00
H53    H     0.32560   0.13707   0.42558   0.00000  Uiso   1.00
H54    H     0.03738   0.09140   0.25908   0.00000  Uiso   1.00
H55    H     0.29601   0.24218   0.24446   0.00000  Uiso   1.00
H56    H     0.29595   0.09136   0.25840   0.00000  Uiso   1.00
H57    H     0.03739   0.24220   0.24497   0.00000  Uiso   1.00
H58    H     0.11929   0.04330   0.20112   0.00000  Uiso   1.00
H59    H     0.21401   0.29030   0.29873   0.00000  Uiso   1.00
H60    H     0.21405   0.04371   0.29883   0.00000  Uiso   1.00
N61    N     0.16667   0.28402   0.25000   0.00000  Uiso   1.00
N62    N     0.16667   0.04931   0.25000   0.00000  Uiso   1.00
N63    N     0.24194   0.18228   0.38247   0.00000  Uiso   1.00
N64    N     0.10077   0.12354   0.11272   0.00000  Uiso   1.00
O65    O     0.10655   0.20625   0.25000   0.00000  Uiso   1.00
O66    O     0.07178   0.10683   0.38285   0.00000  Uiso   1.00
O67    O     0.24219   0.23108   0.13840   0.00000  Uiso   1.00
O68    O     0.27172   0.16024   0.12561   0.00000  Uiso   1.00
O69    O     0.04267   0.19348   0.06227   0.00000  Uiso   1.00
O70    O     0.02161   0.12440   0.03181   0.00000  Uiso   1.00
O71    O     0.31053   0.20493   0.46966   0.00000  Uiso   1.00
O72    O     0.29605   0.13547   0.43596   0.00000  Uiso   1.00
O73    O     0.22679   0.12709   0.25001   0.00000  Uiso   1.00
O74    O     0.22679   0.20625   0.25001   0.00000  Uiso   1.00
O75    O     0.10655   0.12709   0.25000   0.00000  Uiso   1.00
O76    O     0.16666   0.20627   0.18513   0.00000  Uiso   1.00
O77    O     0.16668   0.12707   0.31487   0.00000  Uiso   1.00
O78    O     0.16668   0.20627   0.31487   0.00000  Uiso   1.00
O79    O     0.16666   0.12707   0.18513   0.00000  Uiso   1.00
O80    O     0.07876   0.18028   0.35507   0.00000  Uiso   1.00
C81    C     0.42073   0.16669   0.25112   0.00000  Uiso   1.00
C82    C     0.37610   0.16677   0.25191   0.00000  Uiso   1.00
C83    C     0.47369   0.02470   0.22287   0.00000  Uiso   1.00
C84    C     0.52628   0.30872   0.27707   0.00000  Uiso   1.00
C85    C     0.52630   0.02494   0.27710   0.00000  Uiso   1.00
C86    C     0.47368   0.30842   0.22287   0.00000  Uiso   1.00
C87    C     0.49929   0.16661   0.16449   0.00000  Uiso   1.00
C88    C     0.50108   0.16667   0.33535   0.00000  Uiso   1.00
C89    C     0.53868   0.17345   0.40677   0.00000  Uiso   1.00
C90    C     0.46406   0.15268   0.09202   0.00000  Uiso   1.00
C91    C     0.50129   0.16640   0.38347   0.00000  Uiso   1.00
C92    C     0.57930   0.16669   0.25031   0.00000  Uiso   1.00
C93    C     0.49943   0.16692   0.11615   0.00000  Uiso   1.00
C94    C     0.46429   0.15798   0.40550   0.00000  Uiso   1.00
C95    C     0.53569   0.18001   0.09428   0.00000  Uiso   1.00
C96    C     0.46418   0.15840   0.45203   0.00000  Uiso   1.00
C97    C     0.53693   0.17718   0.04767   0.00000  Uiso   1.00
C98    C     0.50138   0.16617   0.47626   0.00000  Uiso   1.00
C99    C     0.50043   0.16743   0.02318   0.00000  Uiso   1.00
C100   C     0.53937   0.17223   0.45378   0.00000  Uiso   1.00
C101   C     0.46300   0.15863   0.04556   0.00000  Uiso   1.00
C102   C     0.42701   0.15366   0.47473   0.00000  Uiso   1.00
C103   C     0.42584   0.15492   0.02060   0.00000  Uiso   1.00
C104   C     0.57410   0.18297   0.02523   0.00000  Uiso   1.00
C105   C     0.58467   0.23090   0.37356   0.00000  Uiso   1.00
C106   C     0.40647   0.14377   0.14462   0.00000  Uiso   1.00
C107   C     0.42569   0.14965   0.37939   0.00000  Uiso   1.00
C108   C     0.57307   0.19262   0.12073   0.00000  Uiso   1.00
C109   C     0.38458   0.15895   0.04029   0.00000  Uiso   1.00
C110   C     0.61834   0.17456   0.46108   0.00000  Uiso   1.00
C111   C     0.57630   0.17781   0.47940   0.00000  Uiso   1.00
C112   C     0.35464   0.12446   0.25586   0.00000  Uiso   1.00
C113   C     0.64538   0.20912   0.24773   0.00000  Uiso   1.00
C114   C     0.64535   0.12444   0.25542   0.00000  Uiso   1.00
C115   C     0.35467   0.20912   0.24808   0.00000  Uiso   1.00
C116   C     0.62392   0.16675   0.25114   0.00000  Uiso   1.00
Cu117  Cu    0.50000   0.21355   0.25000   0.00000  Uiso   1.00
Cu118  Cu    0.50000   0.11978   0.25000   0.00000  Uiso   1.00
H119   H     0.39791   0.15122   0.45686   0.00000  Uiso   1.00
H120   H     0.45261   0.28964   0.20114   0.00000  Uiso   1.00
H121   H     0.58040   0.16005   0.35614   0.00000  Uiso   1.00
H122   H     0.61562   0.23945   0.38742   0.00000  Uiso   1.00
H123   H     0.56170   0.25502   0.38832   0.00000  Uiso   1.00
H124   H     0.58547   0.23667   0.33729   0.00000  Uiso   1.00
H125   H     0.42187   0.09650   0.09401   0.00000  Uiso   1.00
H126   H     0.37441   0.14386   0.13136   0.00000  Uiso   1.00
H127   H     0.41543   0.18011   0.15377   0.00000  Uiso   1.00
H128   H     0.40652   0.12112   0.17419   0.00000  Uiso   1.00
H129   H     0.37941   0.10530   0.36338   0.00000  Uiso   1.00
H130   H     0.60256   0.18900   0.04354   0.00000  Uiso   1.00
H131   H     0.62874   0.17274   0.14448   0.00000  Uiso   1.00
H132   H     0.66125   0.13101   0.04706   0.00000  Uiso   1.00
H133   H     0.65893   0.13707   0.42558   0.00000  Uiso   1.00
H134   H     0.37071   0.09140   0.25908   0.00000  Uiso   1.00
H135   H     0.62934   0.24218   0.24446   0.00000  Uiso   1.00
H136   H     0.62928   0.09136   0.25840   0.00000  Uiso   1.00
H137   H     0.37072   0.24220   0.24497   0.00000  Uiso   1.00
H138   H     0.45262   0.04330   0.20112   0.00000  Uiso   1.00
H139   H     0.54734   0.29030   0.29873   0.00000  Uiso   1.00
H140   H     0.54738   0.04371   0.29883   0.00000  Uiso   1.00
N141   N     0.50000   0.28402   0.25000   0.00000  Uiso   1.00
N142   N     0.50000   0.04931   0.25000   0.00000  Uiso   1.00
N143   N     0.57527   0.18228   0.38247   0.00000  Uiso   1.00
N144   N     0.43410   0.12354   0.11272   0.00000  Uiso   1.00
O145   O     0.43988   0.20625   0.25000   0.00000  Uiso   1.00
O146   O     0.40512   0.10683   0.38285   0.00000  Uiso   1.00
O147   O     0.57552   0.23108   0.13840   0.00000  Uiso   1.00
O148   O     0.60506   0.16024   0.12561   0.00000  Uiso   1.00
O149   O     0.37601   0.19348   0.06227   0.00000  Uiso   1.00
O150   O     0.35494   0.12440   0.03181   0.00000  Uiso   1.00
O151   O     0.64386   0.20493   0.46966   0.00000  Uiso   1.00
O152   O     0.62938   0.13547   0.43596   0.00000  Uiso   1.00
O153   O     0.56012   0.12709   0.25001   0.00000  Uiso   1.00
O154   O     0.56012   0.20625   0.25001   0.00000  Uiso   1.00
O155   O     0.43988   0.12709   0.25000   0.00000  Uiso   1.00
O156   O     0.49999   0.20627   0.18513   0.00000  Uiso   1.00
O157   O     0.50001   0.12707   0.31487   0.00000  Uiso   1.00
O158   O     0.50001   0.20627   0.31487   0.00000  Uiso   1.00
O159   O     0.49999   0.12707   0.18513   0.00000  Uiso   1.00
O160   O     0.41209   0.18028   0.35507   0.00000  Uiso   1.00
C161   C     0.75407   0.16669   0.25112   0.00000  Uiso   1.00
C162   C     0.70944   0.16677   0.25191   0.00000  Uiso   1.00
C163   C     0.80702   0.02470   0.22287   0.00000  Uiso   1.00
C164   C     0.85962   0.30872   0.27707   0.00000  Uiso   1.00
C165   C     0.85963   0.02494   0.27710   0.00000  Uiso   1.00
C166   C     0.80702   0.30842   0.22287   0.00000  Uiso   1.00
C167   C     0.83262   0.16661   0.16449   0.00000  Uiso   1.00
C168   C     0.83442   0.16667   0.33535   0.00000  Uiso   1.00
C169   C     0.87202   0.17345   0.40677   0.00000  Uiso   1.00
C170   C     0.79739   0.15268   0.09202   0.00000  Uiso   1.00
C171   C     0.83463   0.16640   0.38347   0.00000  Uiso   1.00
C172   C     0.91264   0.16669   0.25031   0.00000  Uiso   1.00
C173   C     0.83277   0.16692   0.11615   0.00000  Uiso   1.00
C174   C     0.79763   0.15798   0.40550   0.00000  Uiso   1.00
C175   C     0.86902   0.18001   0.09428   0.00000  Uiso   1.00
C176   C     0.79751   0.15840   0.45203   0.00000  Uiso   1.00
C177   C     0.87026   0.17718   0.04767   0.00000  Uiso   1.00
C178   C     0.83471   0.16617   0.47626   0.00000  Uiso   1.00
C179   C     0.83377   0.16743   0.02318   0.00000  Uiso   1.00
C180   C     0.87271   0.17223   0.45378   0.00000  Uiso   1.00
C181   C     0.79634   0.15863   0.04556   0.00000  Uiso   1.00
C182   C     0.76034   0.15366   0.47473   0.00000  Uiso   1.00
C183   C     0.75917   0.15492   0.02060   0.00000  Uiso   1.00
C184   C     0.90744   0.18297   0.02523   0.00000  Uiso   1.00
C185   C     0.91800   0.23090   0.37356   0.00000  Uiso   1.00
C186   C     0.73980   0.14377   0.14462   0.00000  Uiso   1.00
C187   C     0.75903   0.14965   0.37939   0.00000  Uiso   1.00
C188   C     0.90640   0.19262   0.12073   0.00000  Uiso   1.00
C189   C     0.71791   0.15895   0.04029   0.00000  Uiso   1.00
C190   C     0.95168   0.17456   0.46108   0.00000  Uiso   1.00
C191   C     0.90963   0.17781   0.47940   0.00000  Uiso   1.00
C192   C     0.68798   0.12446   0.25586   0.00000  Uiso   1.00
C193   C     0.97872   0.20912   0.24773   0.00000  Uiso   1.00
C194   C     0.97869   0.12444   0.25542   0.00000  Uiso   1.00
C195   C     0.68800   0.20912   0.24808   0.00000  Uiso   1.00
C196   C     0.95725   0.16675   0.25114   0.00000  Uiso   1.00
Cu197  Cu    0.83333   0.21355   0.25000   0.00000  Uiso   1.00
Cu198  Cu    0.83333   0.11978   0.25000   0.00000  Uiso   1.00
H199   H     0.73125   0.15122   0.45686   0.00000  Uiso   1.00
H200   H     0.78594   0.28964   0.20114   0.00000  Uiso   1.00
H201   H     0.91374   0.16005   0.35614   0.00000  Uiso   1.00
H202   H     0.94895   0.23945   0.38742   0.00000  Uiso   1.00
H203   H     0.89503   0.25502   0.38832   0.00000  Uiso   1.00
H204   H     0.91880   0.23667   0.33729   0.00000  Uiso   1.00
H205   H     0.75520   0.09650   0.09401   0.00000  Uiso   1.00
H206   H     0.70774   0.14386   0.13136   0.00000  Uiso   1.00
H207   H     0.74876   0.18011   0.15377   0.00000  Uiso   1.00
H208   H     0.73985   0.12112   0.17419   0.00000  Uiso   1.00
H209   H     0.71275   0.10530   0.36338   0.00000  Uiso   1.00
H210   H     0.93589   0.18900   0.04354   0.00000  Uiso   1.00
H211   H     0.96207   0.17274   0.14448   0.00000  Uiso   1.00
H212   H     0.99459   0.13101   0.04706   0.00000  Uiso   1.00
H213   H     0.99226   0.13707   0.42558   0.00000  Uiso   1.00
H214   H     0.70404   0.09140   0.25908   0.00000  Uiso   1.00
H215   H     0.96268   0.24218   0.24446   0.00000  Uiso   1.00
H216   H     0.96262   0.09136   0.25840   0.00000  Uiso   1.00
H217   H     0.70406   0.24220   0.24497   0.00000  Uiso   1.00
H218   H     0.78595   0.04330   0.20112   0.00000  Uiso   1.00
H219   H     0.88067   0.29030   0.29873   0.00000  Uiso   1.00
H220   H     0.88072   0.04371   0.29883   0.00000  Uiso   1.00
N221   N     0.83333   0.28402   0.25000   0.00000  Uiso   1.00
N222   N     0.83333   0.04931   0.25000   0.00000  Uiso   1.00
N223   N     0.90861   0.18228   0.38247   0.00000  Uiso   1.00
N224   N     0.76743   0.12354   0.11272   0.00000  Uiso   1.00
O225   O     0.77321   0.20625   0.25000   0.00000  Uiso   1.00
O226   O     0.73845   0.10683   0.38285   0.00000  Uiso   1.00
O227   O     0.90886   0.23108   0.13840   0.00000  Uiso   1.00
O228   O     0.93839   0.16024   0.12561   0.00000  Uiso   1.00
O229   O     0.70934   0.19348   0.06227   0.00000  Uiso   1.00
O230   O     0.68827   0.12440   0.03181   0.00000  Uiso   1.00
O231   O     0.97719   0.20493   0.46966   0.00000  Uiso   1.00
O232   O     0.96272   0.13547   0.43596   0.00000  Uiso   1.00
O233   O     0.89345   0.12709   0.25001   0.00000  Uiso   1.00
O234   O     0.89345   0.20625   0.25001   0.00000  Uiso   1.00
O235   O     0.77321   0.12709   0.25000   0.00000  Uiso   1.00
O236   O     0.83332   0.20627   0.18513   0.00000  Uiso   1.00
O237   O     0.83334   0.12707   0.31487   0.00000  Uiso   1.00
O238   O     0.83334   0.20627   0.31487   0.00000  Uiso   1.00
O239   O     0.83332   0.12707   0.18513   0.00000  Uiso   1.00
O240   O     0.74542   0.18028   0.35507   0.00000  Uiso   1.00
C241   C     0.08740   0.50002   0.25112   0.00000  Uiso   1.00
C242   C     0.04277   0.50010   0.25191   0.00000  Uiso   1.00
C243   C     0.14035   0.35803   0.22287   0.00000  Uiso   1.00
C244   C     0.19295   0.64205   0.27707   0.00000  Uiso   1.00
C245   C     0.19296   0.35828   0.27710   0.00000  Uiso   1.00
C246   C     0.14035   0.64175   0.22287   0.00000  Uiso   1.00
C247   C     0.16595   0.49994   0.16449   0.00000  Uiso   1.00
C248   C     0.16775   0.50000   0.33535   0.00000  Uiso   1.00
C249   C     0.20535   0.50679   0.40677   0.00000  Uiso   1.00
C250   C     0.13072   0.48601   0.09202   0.00000  Uiso   1.00
C251   C     0.16796   0.49973   0.38347   0.00000  Uiso   1.00
C252   C     0.24597   0.50003   0.25031   0.00000  Uiso   1.00
C253   C     0.16610   0.50026   0.11615   0.00000  Uiso   1.00
C254   C     0.13096   0.49132   0.40550   0.00000  Uiso   1.00
C255   C     0.20235   0.51335   0.09428   0.00000  Uiso   1.00
C256   C     0.13085   0.49173   0.45203   0.00000  Uiso   1.00
C257   C     0.20360   0.51051   0.04767   0.00000  Uiso   1.00
C258   C     0.16804   0.49950   0.47626   0.00000  Uiso   1.00
C259   C     0.16710   0.50077   0.02318   0.00000  Uiso   1.00
C260   C     0.20604   0.50556   0.45378   0.00000  Uiso   1.00
C261   C     0.12967   0.49196   0.04556   0.00000  Uiso   1.00
C262   C     0.09368   0.48699   0.47473   0.00000  Uiso   1.00
C263   C     0.09250   0.48825   0.02060   0.00000  Uiso   1.00
C264   C     0.24077   0.51630   0.02523   0.00000  Uiso   1.00
C265   C     0.25134   0.56423   0.37356   0.00000  Uiso   1.00
C266   C     0.07313   0.47711   0.14462   0.00000  Uiso   1.00
C267   C     0.09236   0.48298   0.37939   0.00000  Uiso   1.00
C268   C     0.23973   0.52596   0.12073   0.00000  Uiso   1.00
C269   C     0.05125   0.49228   0.04029   0.00000  Uiso   1.00
C270   C     0.28501   0.50789   0.46108   0.00000  Uiso   1.00
C271   C     0.24296   0.51115   0.47940   0.00000  Uiso   1.00
C272   C     0.02131   0.45779   0.25586   0.00000  Uiso   1.00
C273   C     0.31205   0.54245   0.24773   0.00000  Uiso   1.00
C274   C     0.31202   0.45777   0.25542   0.00000  Uiso   1.00
C275   C     0.02133   0.54246   0.24808   0.00000  Uiso   1.00
C276   C     0.29059   0.50008   0.25114   0.00000  Uiso   1.00
Cu277  Cu    0.16667   0.54689   0.25000   0.00000  Uiso   1.00
Cu278  Cu    0.16667   0.45311   0.25000   0.00000  Uiso   1.00
H279   H     0.06458   0.48455   0.45686   0.00000  Uiso   1.00
H280   H     0.11927   0.62297   0.20114   0.00000  Uiso   1.00
H281   H     0.24707   0.49339   0.35614   0.00000  Uiso   1.00
H282   H     0.28229   0.57279   0.38742   0.00000  Uiso   1.00
H283   H     0.22837   0.58835   0.38832   0.00000  Uiso   1.00
H284   H     0.25214   0.57000   0.33729   0.00000  Uiso   1.00
H285   H     0.08854   0.42984   0.09401   0.00000  Uiso   1.00
H286   H     0.04108   0.47719   0.13136   0.00000  Uiso   1.00
H287   H     0.08209   0.51345   0.15377   0.00000  Uiso   1.00
H288   H     0.07318   0.45446   0.17419   0.00000  Uiso   1.00
H289   H     0.04608   0.43864   0.36338   0.00000  Uiso   1.00
H290   H     0.26923   0.52233   0.04354   0.00000  Uiso   1.00
H291   H     0.29541   0.50607   0.14448   0.00000  Uiso   1.00
H292   H     0.32792   0.46435   0.04706   0.00000  Uiso   1.00
H293   H     0.32560   0.47041   0.42558   0.00000  Uiso   1.00
H294   H     0.03738   0.42473   0.25908   0.00000  Uiso   1.00
H295   H     0.29601   0.57552   0.24446   0.00000  Uiso   1.00
H296   H     0.29595   0.42469   0.25840   0.00000  Uiso   1.00
H297   H     0.03739   0.57553   0.24497   0.00000  Uiso   1.00
H298   H     0.11929   0.37664   0.20112   0.00000  Uiso   1.00
H299   H     0.21401   0.62363   0.29873   0.00000  Uiso   1.00
H300   H     0.21405   0.37705   0.29883   0.00000  Uiso   1.00
N301   N     0.16667   0.61736   0.25000   0.00000  Uiso   1.00
N302   N     0.16667   0.38264   0.25000   0.00000  Uiso   1.00
N303   N     0.24194   0.51561   0.38247   0.00000  Uiso   1.00
N304   N     0.10077   0.45687   0.11272   0.00000  Uiso   1.00
O305   O     0.10655   0.53958   0.25000   0.00000  Uiso   1.00
O306   O     0.07178   0.44016   0.38285   0.00000  Uiso   1.00
O307   O     0.24219   0.56441   0.13840   0.00000  Uiso   1.00
O308   O     0.27172   0.49357   0.12561   0.00000  Uiso   1.00
O309   O     0.04267   0.52682   0.06227   0.00000  Uiso   1.00
O310   O     0.02161   0.45773   0.03181   0.00000  Uiso   1.00
O311   O     0.31053   0.53827   0.46966   0.00000  Uiso   1.00
O312   O     0.29605   0.46880   0.43596   0.00000  Uiso   1.00
O313   O     0.22679   0.46042   0.25001   0.00000  Uiso   1.00
O314   O     0.22679   0.53958   0.25001   0.00000  Uiso   1.00
O315   O     0.10655   0.46042   0.25000   0.00000  Uiso   1.00
O316   O     0.16666   0.53960   0.18513   0.00000  Uiso   1.00
O317   O     0.16668   0.46040   0.31487   0.00000  Uiso   1.00
O318   O     0.16668   0.53960   0.31487   0.00000  Uiso   1.00
O319   O     0.16666   0.46040   0.18513   0.00000  Uiso   1.00
O320   O     0.07876   0.51361   0.35507   0.00000  Uiso   1.00
C321   C     0.42073   0.50002   0.25112   0.00000  Uiso   1.00
C322   C     0.37610   0.50010   0.25191   0.00000  Uiso   1.00
C323   C     0.47369   0.35803   0.22287   0.00000  Uiso   1.00
C324   C     0.52628   0.64205   0.27707   0.00000  Uiso   1.00
C325   C     0.52630   0.35828   0.27710   0.00000  Uiso   1.00
C326   C     0.47368   0.64175   0.22287   0.00000  Uiso   1.00
C327   C     0.49929   0.49994   0.16449   0.00000  Uiso   1.00
C328   C     0.50108   0.50000   0.33535   0.00000  Uiso   1.00
C329   C     0.53868   0.50679   0.40677   0.00000  Uiso   1.00
C330   C     0.46406   0.48601   0.09202   0.00000  Uiso   1.00
C331   C     0.50129   0.49973   0.38347   0.00000  Uiso   1.00
C332   C     0.57930   0.50003   0.25031   0.00000  Uiso   1.00
C333   C     0.49943   0.50026   0.11615   0.00000  Uiso   1.00
C334   C     0.46429   0.49132   0.40550   0.00000  Uiso   1.00
C335   C     0.53569   0.51335   0.09428   0.00000  Uiso   1.00
C336   C     0.46418   0.49173   0.45203   0.00000  Uiso   1.00
C337   C     0.53693   0.51051   0.04767   0.00000  Uiso   1.00
C338   C     0.50138   0.49950   0.47626   0.00000  Uiso   1.00
C339   C     0.50043   0.50077   0.02318   0.00000  Uiso   1.00
C340   C     0.53937   0.50556   0.45378   0.00000  Uiso   1.00
C341   C     0.46300   0.49196   0.04556   0.00000  Uiso   1.00
C342   C     0.42701   0.48699   0.47473   0.00000  Uiso   1.00
C343   C     0.42584   0.48825   0.02060   0.00000  Uiso   1.00
C344   C     0.57410   0.51630   0.02523   0.00000  Uiso   1.00
C345   C     0.58467   0.56423   0.37356   0.00000  Uiso   1.00
C346   C     0.40647   0.47711   0.14462   0.00000  Uiso   1.00
C347   C     0.42569   0.48298   0.37939   0.00000  Uiso   1.00
C348   C     0.57307   0.52596   0.12073   0.00000  Uiso   1.00
C349   C     0.38458   0.49228   0.04029   0.00000  Uiso   1.00
C350   C     0.61834   0.50789   0.46108   0.00000  Uiso   1.00
C351   C     0.57630   0.51115   0.47940   0.00000  Uiso   1.00
C352   C     0.35464   0.45779   0.25586   0.00000  Uiso   1.00
C353   C     0.64538   0.54245   0.24773   0.00000  Uiso   1.00
C354   C     0.64535   0.45777   0.25542   0.00000  Uiso   1.00
C355   C     0.35467   0.54246   0.24808   0.00000  Uiso   1.00
C356   C     0.62392   0.50008   0.25114   0.00000  Uiso   1.00
Cu357  Cu    0.50000   0.54689   0.25000   0.00000  Uiso   1.00
Cu358  Cu    0.50000   0.45311   0.25000   0.00000  Uiso   1.00
H359   H     0.39791   0.48455   0.45686   0.00000  Uiso   1.00
H360   H     0.45261   0.62297   0.20114   0.00000  Uiso   1.00
H361   H     0.58040   0.49339   0.35614   0.00000  Uiso   1.00
H362   H     0.61562   0.57279   0.38742   0.00000  Uiso   1.00
H363   H     0.56170   0.58835   0.38832   0.00000  Uiso   1.00
H364   H     0.58547   0.57000   0.33729   0.00000  Uiso   1.00
H365   H     0.42187   0.42984   0.09401   0.00000  Uiso   1.00
H366   H     0.37441   0.47719   0.13136   0.00000  Uiso   1.00
H367   H     0.41543   0.51345   0.15377   0.00000  Uiso   1.00
H368   H     0.40652   0.45446   0.17419   0.00000  Uiso   1.00
H369   H     0.37941   0.43864   0.36338   0.00000  Uiso   1.00
H370   H     0.60256   0.52233   0.04354   0.00000  Uiso   1.00
H371   H     0.62874   0.50607   0.14448   0.00000  Uiso   1.00
H372   H     0.66125   0.46435   0.04706   0.00000  Uiso   1.00
H373   H     0.65893   0.47041   0.42558   0.00000  Uiso   1.00
H374   H     0.37071   0.42473   0.25908   0.00000  Uiso   1.00
H375   H     0.62934   0.57552   0.24446   0.00000  Uiso   1.00
H376   H     0.62928   0.42469   0.25840   0.00000  Uiso   1.00
H377   H     0.37072   0.57553   0.24497   0.00000  Uiso   1.00
H378   H     0.45262   0.37664   0.20112   0.00000  Uiso   1.00
H379   H     0.54734   0.62363   0.29873   0.00000  Uiso   1.00
H380   H     0.54738   0.37705   0.29883   0.00000  Uiso   1.00
N381   N     0.50000   0.61736   0.25000   0.00000  Uiso   1.00
N382   N     0.50000   0.38264   0.25000   0.00000  Uiso   1.00
N383   N     0.57527   0.51561   0.38247   0.00000  Uiso   1.00
N384   N     0.43410   0.45687   0.11272   0.00000  Uiso   1.00
O385   O     0.43988   0.53958   0.25000   0.00000  Uiso   1.00
O386   O     0.40512   0.44016   0.38285   0.00000  Uiso   1.00
O387   O     0.57552   0.56441   0.13840   0.00000  Uiso   1.00
O388   O     0.60506   0.49357   0.12561   0.00000  Uiso   1.00
O389   O     0.37601   0.52682   0.06227   0.00000  Uiso   1.00
O390   O     0.35494   0.45773   0.03181   0.00000  Uiso   1.00
O391   O     0.64386   0.53827   0.46966   0.00000  Uiso   1.00
O392   O     0.62938   0.46880   0.43596   0.00000  Uiso   1.00
O393   O     0.56012   0.46042   0.25001   0.00000  Uiso   1.00
O394   O     0.56012   0.53958   0.25001   0.00000  Uiso   1.00
O395   O     0.43988   0.46042   0.25000   0.00000  Uiso   1.00
O396   O     0.49999   0.53960   0.18513   0.00000  Uiso   1.00
O397   O     0.50001   0.46040   0.31487   0.00000  Uiso   1.00
O398   O     0.50001   0.53960   0.31487   0.00000  Uiso   1.00
O399   O     0.49999   0.46040   0.18513   0.00000  Uiso   1.00
O400   O     0.41209   0.51361   0.35507   0.00000  Uiso   1.00
C401   C     0.75407   0.50002   0.25112   0.00000  Uiso   1.00
C402   C     0.70944   0.50010   0.25191   0.00000  Uiso   1.00
C403   C     0.80702   0.35803   0.22287   0.00000  Uiso   1.00
C404   C     0.85962   0.64205   0.27707   0.00000  Uiso   1.00
C405   C     0.85963   0.35828   0.27710   0.00000  Uiso   1.00
C406   C     0.80702   0.64175   0.22287   0.00000  Uiso   1.00
C407   C     0.83262   0.49994   0.16449   0.00000  Uiso   1.00
C408   C     0.83442   0.50000   0.33535   0.00000  Uiso   1.00
C409   C     0.87202   0.50679   0.40677   0.00000  Uiso   1.00
C410   C     0.79739   0.48601   0.09202   0.00000  Uiso   1.00
C411   C     0.83463   0.49973   0.38347   0.00000  Uiso   1.00
C412   C     0.91264   0.50003   0.25031   0.00000  Uiso   1.00
C413   C     0.83277   0.50026   0.11615   0.00000  Uiso   1.00
C414   C     0.79763   0.49132   0.40550   0.00000  Uiso   1.00
C415   C     0.86902   0.51335   0.09428   0.00000  Uiso   1.00
C416   C     0.79751   0.49173   0.45203   0.00000  Uiso   1.00
C417   C     0.87026   0.51051   0.04767   0.00000  Uiso   1.00
C418   C     0.83471   0.49950   0.47626   0.00000  Uiso   1.00
C419   C     0.83377   0.50077   0.02318   0.00000  Uiso   1.00
C420   C     0.87271   0.50556   0.45378   0.00000  Uiso   1.00
C421   C     0.79634   0.49196   0.04556   0.00000  Uiso   1.00
C422   C     0.76034   0.48699   0.47473   0.00000  Uiso   1.00
C423   C     0.75917   0.48825   0.02060   0.00000  Uiso   1.00
C424   C     0.90744   0.51630   0.02523   0.00000  Uiso   1.00
C425   C     0.91800   0.56423   0.37356   0.00000  Uiso   1.00
C426   C     0.73980   0.47711   0.14462   0.00000  Uiso   1.00
C427   C     0.75903   0.48298   0.37939   0.00000  Uiso   1.00
C428   C     0.90640   0.52596   0.12073   0.00000  Uiso   1.00
C429   C     0.71791   0.49228   0.04029   0.00000  Uiso   1.00
C430   C     0.95168   0.50789   0.46108   0.00000  Uiso   1.00
C431   C     0.90963   0.51115   0.47940   0.00000  Uiso   1.00
C432   C     0.68798   0.45779   0.25586   0.00000  Uiso   1.00
C433   C     0.97872   0.54245   0.24773   0.00000  Uiso   1.00
C434   C     0.97869   0.45777   0.25542   0.00000  Uiso   1.00
C435   C     0.68800   0.54246   0.24808   0.00000  Uiso   1.00
C436   C     0.95725   0.50008   0.25114   0.00000  Uiso   1.00
Cu437  Cu    0.83333   0.54689   0.25000   0.00000  Uiso   1.00
Cu438  Cu    0.83333   0.45311   0.25000   0.00000  Uiso   1.00
H439   H     0.73125   0.48455   0.45686   0.00000  Uiso   1.00
H440   H     0.78594   0.62297   0.20114   0.00000  Uiso   1.00
H441   H     0.91374   0.49339   0.35614   0.00000  Uiso   1.00
H442   H     0.94895   0.57279   0.38742   0.00000  Uiso   1.00
H443   H     0.89503   0.58835   0.38832   0.00000  Uiso   1.00
H444   H     0.91880   0.57000   0.33729   0.00000  Uiso   1.00
H445   H     0.75520   0.42984   0.09401   0.00000  Uiso   1.00
H446   H     0.70774   0.47719   0.13136   0.00000  Uiso   1.00
H447   H     0.74876   0.51345   0.15377   0.00000  Uiso   1.00
H448   H     0.73985   0.45446   0.17419   0.00000  Uiso   1.00
H449   H     0.71275   0.43864   0.36338   0.00000  Uiso   1.00
H450   H     0.93589   0.52233   0.04354   0.00000  Uiso   1.00
H451   H     0.96207   0.50607   0.14448   0.00000  Uiso   1.00
H452   H     0.99459   0.46435   0.04706   0.00000  Uiso   1.00
H453   H     0.99226   0.47041   0.42558   0.00000  Uiso   1.00
H454   H     0.70404   0.42473   0.25908   0.00000  Uiso   1.00
H455   H     0.96268   0.57552   0.24446   0.00000  Uiso   1.00
H456   H     0.96262   0.42469   0.25840   0.00000  Uiso   1.00
H457   H     0.70406   0.57553   0.24497   0.00000  Uiso   1.00
H458   H     0.78595   0.37664   0.20112   0.00000  Uiso   1.00
H459   H     0.88067   0.62363   0.29873   0.00000  Uiso   1.00
H460   H     0.88072   0.37705   0.29883   0.00000  Uiso   1.00
N461   N     0.83333   0.61736   0.25000   0.00000  Uiso   1.00
N462   N     0.83333   0.38264   0.25000   0.00000  Uiso   1.00
N463   N     0.90861   0.51561   0.38247   0.00000  Uiso   1.00
N464   N     0.76743   0.45687   0.11272   0.00000  Uiso   1.00
O465   O     0.77321   0.53958   0.25000   0.00000  Uiso   1.00
O466   O     0.73845   0.44016   0.38285   0.00000  Uiso   1.00
O467   O     0.90886   0.56441   0.13840   0.00000  Uiso   1.00
O468   O     0.93839   0.49357   0.12561   0.00000  Uiso   1.00
O469   O     0.70934   0.52682   0.06227   0.00000  Uiso   1.00
O470   O     0.68827   0.45773   0.03181   0.00000  Uiso   1.00
O471   O     0.97719   0.53827   0.46966   0.00000  Uiso   1.00
O472   O     0.96272   0.46880   0.43596   0.00000  Uiso   1.00
O473   O     0.89345   0.46042   0.25001   0.00000  Uiso   1.00
O474   O     0.89345   0.53958   0.25001   0.00000  Uiso   1.00
O475   O     0.77321   0.46042   0.25000   0.00000  Uiso   1.00
O476   O     0.83332   0.53960   0.18513   0.00000  Uiso   1.00
O477   O     0.83334   0.46040   0.31487   0.00000  Uiso   1.00
O478   O     0.83334   0.53960   0.31487   0.00000  Uiso   1.00
O479   O     0.83332   0.46040   0.18513   0.00000  Uiso   1.00
O480   O     0.74542   0.51361   0.35507   0.00000  Uiso   1.00
C481   C     0.08740   0.83335   0.25112   0.00000  Uiso   1.00
C482   C     0.04277   0.83344   0.25191   0.00000  Uiso   1.00
C483   C     0.14035   0.69136   0.22287   0.00000  Uiso   1.00
C484   C     0.19295   0.97538   0.27707   0.00000  Uiso   1.00
C485   C     0.19296   0.69161   0.27710   0.00000  Uiso   1.00
C486   C     0.14035   0.97508   0.22287   0.00000  Uiso   1.00
C487   C     0.16595   0.83327   0.16449   0.00000  Uiso   1.00
C488   C     0.16775   0.83333   0.33535   0.00000  Uiso   1.00
C489   C     0.20535   0.84012   0.40677   0.00000  Uiso   1.00
C490   C     0.13072   0.81934   0.09202   0.00000  Uiso   1.00
C491   C     0.16796   0.83306   0.38347   0.00000  Uiso   1.00
C492   C     0.24597   0.83336   0.25031   0.00000  Uiso   1.00
C493   C     0.16610   0.83359   0.11615   0.00000  Uiso   1.00
C494   C     0.13096   0.82465   0.40550   0.00000  Uiso   1.00
C495   C     0.20235   0.84668   0.09428   0.00000  Uiso   1.00
C496   C     0.13085   0.82507   0.45203   0.00000  Uiso   1.00
C497   C     0.20360   0.84384   0.04767   0.00000  Uiso   1.00
C498   C     0.16804   0.83284   0.47626   0.00000  Uiso   1.00
C499   C     0.16710   0.83410   0.02318   0.00000  Uiso   1.00
C500   C     0.20604   0.83890   0.45378   0.00000  Uiso   1.00
C501   C     0.12967   0.82530   0.04556   0.00000  Uiso   1.00
C502   C     0.09368   0.82033   0.47473   0.00000  Uiso   1.00
C503   C     0.09250   0.82158   0.02060   0.00000  Uiso   1.00
C504   C     0.24077   0.84963   0.02523   0.00000  Uiso   1.00
C505   C     0.25134   0.89757   0.37356   0.00000  Uiso   1.00
C506   C     0.07313   0.81044   0.14462   0.00000  Uiso   1.00
C507   C     0.09236   0.81632   0.37939   0.00000  Uiso   1.00
C508   C     0.23973   0.85929   0.12073   0.00000  Uiso   1.00
C509   C     0.05125   0.82561   0.04029   0.00000  Uiso   1.00
C510   C     0.28501   0.84122   0.46108   0.00000  Uiso   1.00
C511   C     0.24296   0.84448   0.47940   0.00000  Uiso   1.00
C512   C     0.02131   0.79112   0.25586   0.00000  Uiso   1.00
C513   C     0.31205   0.87578   0.24773   0.00000  Uiso   1.00
C514   C     0.31202   0.79111   0.25542   0.00000  Uiso   1.00
C515   C     0.02133   0.87579   0.24808   0.00000  Uiso   1.00
C516   C     0.29059   0.83342   0.25114   0.00000  Uiso   1.00
Cu517  Cu    0.16667   0.88022   0.25000   0.00000  Uiso   1.00
Cu518  Cu    0.16667   0.78645   0.25000   0.00000  Uiso   1.00
H519   H     0.06458   0.81789   0.45686   0.00000  Uiso   1.00
H520   H     0.11927   0.95631   0.20114   0.00000  Uiso   1.00
H521   H     0.24707   0.82672   0.35614   0.00000  Uiso   1.00
H522   H     0.28229   0.90612   0.38742   0.00000  Uiso   1.00
H523   H     0.22837   0.92168   0.38832   0.00000  Uiso   1.00
H524   H     0.25214   0.90333   0.33729   0.00000  Uiso   1.00
H525   H     0.08854   0.76317   0.09401   0.00000  Uiso   1.00
H526   H     0.04108   0.81052   0.13136   0.00000  Uiso   1.00
H527   H     0.08209   0.84678   0.15377   0.00000  Uiso   1.00
H528   H     0.07318   0.78779   0.17419   0.00000  Uiso   1.00
H529   H     0.04608   0.77197   0.36338   0.00000  Uiso   1.00
H530   H     0.26923   0.85567   0.04354   0.00000  Uiso   1.00
H531   H     0.29541   0.83940   0.14448   0.00000  Uiso   1.00
H532   H     0.32792   0.79768   0.04706   0.00000  Uiso   1.00
H533   H     0.32560   0.80374   0.42558   0.00000  Uiso   1.00
H534   H     0.03738   0.75807   0.25908   0.00000  Uiso   1.00
H535   H     0.29601   0.90885   0.24446   0.00000  Uiso   1.00
H536   H     0.29595   0.75802   0.25840   0.00000  Uiso   1.00
H537   H     0.03739   0.90886   0.24497   0.00000  Uiso   1.00
H538   H     0.11929   0.70997   0.20112   0.00000  Uiso   1.00
H539   H     0.21401   0.95697   0.29873   0.00000  Uiso   1.00
H540   H     0.21405   0.71038   0.29883   0.00000  Uiso   1.00
N541   N     0.16667   0.95069   0.25000   0.00000  Uiso   1.00
N542   N     0.16667   0.71598   0.25000   0.00000  Uiso   1.00
N543   N     0.24194   0.84894   0.38247   0.00000  Uiso   1.00
N544   N     0.10077   0.79021   0.11272   0.00000  Uiso   1.00
O545   O     0.10655   0.87291   0.25000   0.00000  Uiso   1.00
O546   O     0.07178   0.77349   0.38285   0.00000  Uiso   1.00
O547   O     0.24219   0.89775   0.13840   0.00000  Uiso   1.00
O548   O     0.27172   0.82690   0.12561   0.00000  Uiso   1.00
O549   O     0.04267   0.86015   0.06227   0.00000  Uiso   1.00
O550   O     0.02161   0.79107   0.03181   0.00000  Uiso   1.00
O551   O     0.31053   0.87160   0.46966   0.00000  Uiso   1.00
O552   O     0.29605   0.80214   0.43596   0.00000  Uiso   1.00
O553   O     0.22679   0.79375   0.25001   0.00000  Uiso   1.00
O554   O     0.22679   0.87291   0.25001   0.00000  Uiso   1.00
O555   O     0.10655   0.79375   0.25000   0.00000  Uiso   1.00
O556   O     0.16666   0.87293   0.18513   0.00000  Uiso   1.00
O557   O     0.16668   0.79373   0.31487   0.00000  Uiso   1.00
O558   O     0.16668   0.87293   0.31487   0.00000  Uiso   1.00
O559   O     0.16666   0.79373   0.18513   0.00000  Uiso   1.00
O560   O     0.07876   0.84694   0.35507   0.00000  Uiso   1.00
C561   C     0.42073   0.83335   0.25112   0.00000  Uiso   1.00
C562   C     0.37610   0.83344   0.25191   0.00000  Uiso   1.00
C563   C     0.47369   0.69136   0.22287   0.00000  Uiso   1.00
C564   C     0.52628   0.97538   0.27707   0.00000  Uiso   1.00
C565   C     0.52630   0.69161   0.27710   0.00000  Uiso   1.00
C566   C     0.47368   0.97508   0.22287   0.00000  Uiso   1.00
C567   C     0.49929   0.83327   0.16449   0.00000  Uiso   1.00
C568   C     0.50108   0.83333   0.33535   0.00000  Uiso   1.00
C569   C     0.53868   0.84012   0.40677   0.00000  Uiso   1.00
C570   C     0.46406   0.81934   0.09202   0.00000  Uiso   1.00
C571   C     0.50129   0.83306   0.38347   0.00000  Uiso   1.00
C572   C     0.57930   0.83336   0.25031   0.00000  Uiso   1.00
C573   C     0.49943   0.83359   0.11615   0.00000  Uiso   1.00
C574   C     0.46429   0.82465   0.40550   0.00000  Uiso   1.00
C575   C     0.53569   0.84668   0.09428   0.00000  Uiso   1.00
C576   C     0.46418   0.82507   0.45203   0.00000  Uiso   1.00
C577   C     0.53693   0.84384   0.04767   0.00000  Uiso   1.00
C578   C     0.50138   0.83284   0.47626   0.00000  Uiso   1.00
C579   C     0.50043   0.83410   0.02318   0.00000  Uiso   1.00
C580   C     0.53937   0.83890   0.45378   0.00000  Uiso   1.00
C581   C     0.46300   0.82530   0.04556   0.00000  Uiso   1.00
C582   C     0.42701   0.82033   0.47473   0.00000  Uiso   1.00
C583   C     0.42584   0.82158   0.02060   0.00000  Uiso   1.00
C584   C     0.57410   0.84963   0.02523   0.00000  Uiso   1.00
C585   C     0.58467   0.89757   0.37356   0.00000  Uiso   1.00
C586   C     0.40647   0.81044   0.14462   0.00000  Uiso   1.00
C587   C     0.42569   0.81632   0.37939   0.00000  Uiso   1.00
C588   C     0.57307   0.85929   0.12073   0.00000  Uiso   1.00
C589   C     0.38458   0.82561   0.04029   0.00000  Uiso   1.00
C590   C     0.61834   0.84122   0.46108   0.00000  Uiso   1.00
C591   C     0.57630   0.84448   0.47940   0.00000  Uiso   1.00
C592   C     0.35464   0.79112   0.25586   0.00000  Uiso   1.00
C593   C     0.64538   0.87578   0.24773   0.00000  Uiso   1.00
C594   C     0.64535   0.79111   0.25542   0.00000  Uiso   1.00
C595   C     0.35467   0.87579   0.24808   0.00000  Uiso   1.00
C596   C     0.62392   0.83342   0.25114   0.00000  Uiso   1.00
Cu597  Cu    0.50000   0.88022   0.25000   0.00000  Uiso   1.00
Cu598  Cu    0.50000   0.78645   0.25000   0.00000  Uiso   1.00
H599   H     0.39791   0.81789   0.45686   0.00000  Uiso   1.00
H600   H     0.45261   0.95631   0.20114   0.00000  Uiso   1.00
H601   H     0.58040   0.82672   0.35614   0.00000  Uiso   1.00
H602   H     0.61562   0.90612   0.38742   0.00000  Uiso   1.00
H603   H     0.56170   0.92168   0.38832   0.00000  Uiso   1.00
H604   H     0.58547   0.90333   0.33729   0.00000  Uiso   1.00
H605   H     0.42187   0.76317   0.09401   0.00000  Uiso   1.00
H606   H     0.37441   0.81052   0.13136   0.00000  Uiso   1.00
H607   H     0.41543   0.84678   0.15377   0.00000  Uiso   1.00
H608   H     0.40652   0.78779   0.17419   0.00000  Uiso   1.00
H609   H     0.37941   0.77197   0.36338   0.00000  Uiso   1.00
H610   H     0.60256   0.85567   0.04354   0.00000  Uiso   1.00
H611   H     0.62874   0.83940   0.14448   0.00000  Uiso   1.00
H612   H     0.66125   0.79768   0.04706   0.00000  Uiso   1.00
H613   H     0.65893   0.80374   0.42558   0.00000  Uiso   1.00
H614   H     0.37071   0.75807   0.25908   0.00000  Uiso   1.00
H615   H     0.62934   0.90885   0.24446   0.00000  Uiso   1.00
H616   H     0.62928   0.75802   0.25840   0.00000  Uiso   1.00
H617   H     0.37072   0.90886   0.24497   0.00000  Uiso   1.00
H618   H     0.45262   0.70997   0.20112   0.00000  Uiso   1.00
H619   H     0.54734   0.95697   0.29873   0.00000  Uiso   1.00
H620   H     0.54738   0.71038   0.29883   0.00000  Uiso   1.00
N621   N     0.50000   0.95069   0.25000   0.00000  Uiso   1.00
N622   N     0.50000   0.71598   0.25000   0.00000  Uiso   1.00
N623   N     0.57527   0.84894   0.38247   0.00000  Uiso   1.00
N624   N     0.43410   0.79021   0.11272   0.00000  Uiso   1.00
O625   O     0.43988   0.87291   0.25000   0.00000  Uiso   1.00
O626   O     0.40512   0.77349   0.38285   0.00000  Uiso   1.00
O627   O     0.57552   0.89775   0.13840   0.00000  Uiso   1.00
O628   O     0.60506   0.82690   0.12561   0.00000  Uiso   1.00
O629   O     0.37601   0.86015   0.06227   0.00000  Uiso   1.00
O630   O     0.35494   0.79107   0.03181   0.00000  Uiso   1.00
O631   O     0.64386   0.87160   0.46966   0.00000  Uiso   1.00
O632   O     0.62938   0.80214   0.43596   0.00000  Uiso   1.00
O633   O     0.56012   0.79375   0.25001   0.00000  Uiso   1.00
O634   O     0.56012   0.87291   0.25001   0.00000  Uiso   1.00
O635   O     0.43988   0.79375   0.25000   0.00000  Uiso   1.00
O636   O     0.49999   0.87293   0.18513   0.00000  Uiso   1.00
O637   O     0.50001   0.79373   0.31487   0.00000  Uiso   1.00
O638   O     0.50001   0.87293   0.31487   0.00000  Uiso   1.00
O639   O     0.49999   0.79373   0.18513   0.00000  Uiso   1.00
O640   O     0.41209   0.84694   0.35507   0.00000  Uiso   1.00
C641   C     0.75407   0.83335   0.25112   0.00000  Uiso   1.00
C642   C     0.70944   0.83344   0.25191   0.00000  Uiso   1.00
C643   C     0.80702   0.69136   0.22287   0.00000  Uiso   1.00
C644   C     0.85962   0.97538   0.27707   0.00000  Uiso   1.00
C645   C     0.85963   0.69161   0.27710   0.00000  Uiso   1.00
C646   C     0.80702   0.97508   0.22287   0.00000  Uiso   1.00
C647   C     0.83262   0.83327   0.16449   0.00000  Uiso   1.00
C648   C     0.83442   0.83333   0.33535   0.00000  Uiso   1.00
C649   C     0.87202   0.84012   0.40677   0.00000  Uiso   1.00
C650   C     0.79739   0.81934   0.09202   0.00000  Uiso   1.00
C651   C     0.83463   0.83306   0.38347   0.00000  Uiso   1.00
C652   C     0.91264   0.83336   0.25031   0.00000  Uiso   1.00
C653   C     0.83277   0.83359   0.11615   0.00000  Uiso   1.00
C654   C     0.79763   0.82465   0.40550   0.00000  Uiso   1.00
C655   C     0.86902   0.84668   0.09428   0.00000  Uiso   1.00
C656   C     0.79751   0.82507   0.45203   0.00000  Uiso   1.00
C657   C     0.87026   0.84384   0.04767   0.00000  Uiso   1.00
C658   C     0.83471   0.83284   0.47626   0.00000  Uiso   1.00
C659   C     0.83377   0.83410   0.02318   0.00000  Uiso   1.00
C660   C     0.87271   0.83890   0.45378   0.00000  Uiso   1.00
C661   C     0.79634   0.82530   0.04556   0.00000  Uiso   1.00
C662   C     0.76034   0.82033   0.47473   0.00000  Uiso   1.00
C663   C     0.75917   0.82158   0.02060   0.00000  Uiso   1.00
C664   C     0.90744   0.84963   0.02523   0.00000  Uiso   1.00
C665   C     0.91800   0.89757   0.37356   0.00000  Uiso   1.00
C666   C     0.73980   0.81044   0.14462   0.00000  Uiso   1.00
C667   C     0.75903   0.81632   0.37939   0.00000  Uiso   1.00
C668   C     0.90640   0.85929   0.12073   0.00000  Uiso   1.00
C669   C     0.71791   0.82561   0.04029   0.00000  Uiso   1.00
C670   C     0.95168   0.84122   0.46108   0.00000  Uiso   1.00
C671   C     0.90963   0.84448   0.47940   0.00000  Uiso   1.00
C672   C     0.68798   0.79112   0.25586   0.00000  Uiso   1.00
C673   C     0.97872   0.87578   0.24773   0.00000  Uiso   1.00
C674   C     0.97869   0.79111   0.25542   0.00000  Uiso   1.00
C675   C     0.68800   0.87579   0.24808   0.00000  Uiso   1.00
C676   C     0.95725   0.83342   0.25114   0.00000  Uiso   1.00
Cu677  Cu    0.83333   0.88022   0.25000   0.00000  Uiso   1.00
Cu678  Cu    0.83333   0.78645   0.25000   0.00000  Uiso   1.00
H679   H     0.73125   0.81789   0.45686   0.00000  Uiso   1.00
H680   H     0.78594   0.95631   0.20114   0.00000  Uiso   1.00
H681   H     0.91374   0.82672   0.35614   0.00000  Uiso   1.00
H682   H     0.94895   0.90612   0.38742   0.00000  Uiso   1.00
H683   H     0.89503   0.92168   0.38832   0.00000  Uiso   1.00
H684   H     0.91880   0.90333   0.33729   0.00000  Uiso   1.00
H685   H     0.75520   0.76317   0.09401   0.00000  Uiso   1.00
H686   H     0.70774   0.81052   0.13136   0.00000  Uiso   1.00
H687   H     0.74876   0.84678   0.15377   0.00000  Uiso   1.00
H688   H     0.73985   0.78779   0.17419   0.00000  Uiso   1.00
H689   H     0.71275   0.77197   0.36338   0.00000  Uiso   1.00
H690   H     0.93589   0.85567   0.04354   0.00000  Uiso   1.00
H691   H     0.96207   0.83940   0.14448   0.00000  Uiso   1.00
H692   H     0.99459   0.79768   0.04706   0.00000  Uiso   1.00
H693   H     0.99226   0.80374   0.42558   0.00000  Uiso   1.00
H694   H     0.70404   0.75807   0.25908   0.00000  Uiso   1.00
H695   H     0.96268   0.90885   0.24446   0.00000  Uiso   1.00
H696   H     0.96262   0.75802   0.25840   0.00000  Uiso   1.00
H697   H     0.70406   0.90886   0.24497   0.00000  Uiso   1.00
H698   H     0.78595   0.70997   0.20112   0.00000  Uiso   1.00
H699   H     0.88067   0.95697   0.29873   0.00000  Uiso   1.00
H700   H     0.88072   0.71038   0.29883   0.00000  Uiso   1.00
N701   N     0.83333   0.95069   0.25000   0.00000  Uiso   1.00
N702   N     0.83333   0.71598   0.25000   0.00000  Uiso   1.00
N703   N     0.90861   0.84894   0.38247   0.00000  Uiso   1.00
N704   N     0.76743   0.79021   0.11272   0.00000  Uiso   1.00
O705   O     0.77321   0.87291   0.25000   0.00000  Uiso   1.00
O706   O     0.73845   0.77349   0.38285   0.00000  Uiso   1.00
O707   O     0.90886   0.89775   0.13840   0.00000  Uiso   1.00
O708   O     0.93839   0.82690   0.12561   0.00000  Uiso   1.00
O709   O     0.70934   0.86015   0.06227   0.00000  Uiso   1.00
O710   O     0.68827   0.79107   0.03181   0.00000  Uiso   1.00
O711   O     0.97719   0.87160   0.46966   0.00000  Uiso   1.00
O712   O     0.96272   0.80214   0.43596   0.00000  Uiso   1.00
O713   O     0.89345   0.79375   0.25001   0.00000  Uiso   1.00
O714   O     0.89345   0.87291   0.25001   0.00000  Uiso   1.00
O715   O     0.77321   0.79375   0.25000   0.00000  Uiso   1.00
O716   O     0.83332   0.87293   0.18513   0.00000  Uiso   1.00
O717   O     0.83334   0.79373   0.31487   0.00000  Uiso   1.00
O718   O     0.83334   0.87293   0.31487   0.00000  Uiso   1.00
O719   O     0.83332   0.79373   0.18513   0.00000  Uiso   1.00
O720   O     0.74542   0.84694   0.35507   0.00000  Uiso   1.00
C721   C     0.08740   0.16669   0.75112   0.00000  Uiso   1.00
C722   C     0.04277   0.16677   0.75191   0.00000  Uiso   1.00
C723   C     0.14035   0.02470   0.72287   0.00000  Uiso   1.00
C724   C     0.19295   0.30872   0.77707   0.00000  Uiso   1.00
C725   C     0.19296   0.02494   0.77710   0.00000  Uiso   1.00
C726   C     0.14035   0.30842   0.72287   0.00000  Uiso   1.00
C727   C     0.16595   0.16661   0.66449   0.00000  Uiso   1.00
C728   C     0.16775   0.16667   0.83535   0.00000  Uiso   1.00
C729   C     0.20535   0.17345   0.90677   0.00000  Uiso   1.00
C730   C     0.13072   0.15268   0.59202   0.00000  Uiso   1.00
C731   C     0.16796   0.16640   0.88347   0.00000  Uiso   1.00
C732   C     0.24597   0.16669   0.75031   0.00000  Uiso   1.00
C733   C     0.16610   0.16692   0.61615   0.00000  Uiso   1.00
C734   C     0.13096   0.15798   0.90550   0.00000  Uiso   1.00
C735   C     0.20235   0.18001   0.59428   0.00000  Uiso   1.00
C736   C     0.13085   0.15840   0.95203   0.00000  Uiso   1.00
C737   C     0.20360   0.17718   0.54767   0.00000  Uiso   1.00
C738   C     0.16804   0.16617   0.97626   0.00000  Uiso   1.00
C739   C     0.16710   0.16743   0.52318   0.00000  Uiso   1.00
C740   C     0.20604   0.17223   0.95378   0.00000  Uiso   1.00
C741   C     0.12967   0.15863   0.54556   0.00000  Uiso   1.00
C742   C     0.09368   0.15366   0.97473   0.00000  Uiso   1.00
C743   C     0.09250   0.15492   0.52060   0.00000  Uiso   1.00
C744   C     0.24077   0.18297   0.52523   0.00000  Uiso   1.00
C745   C     0.25134   0.23090   0.87356   0.00000  Uiso   1.00
C746   C     0.07313   0.14377   0.64462   0.00000  Uiso   1.00
C747   C     0.09236   0.14965   0.87939   0.00000  Uiso   1.00
C748   C     0.23973   0.19262   0.62073   0.00000  Uiso   1.00
C749   C     0.05125   0.15895   0.54029   0.00000  Uiso   1.00
C750   C     0.28501   0.17456   0.96108   0.00000  Uiso   1.00
C751   C     0.24296   0.17781   0.97940   0.00000  Uiso   1.00
C752   C     0.02131   0.12446   0.75586   0.00000  Uiso   1.00
C753   C     0.31205   0.20912   0.74773   0.00000  Uiso   1.00
C754   C     0.31202   0.12444   0.75542   0.00000  Uiso   1.00
C755   C     0.02133   0.20912   0.74808   0.00000  Uiso   1.00
C756   C     0.29059   0.16675   0.75114   0.00000  Uiso   1.00
Cu757  Cu    0.16667   0.21355   0.75000   0.00000  Uiso   1.00
Cu758  Cu    0.16667   0.11978   0.75000   0.00000  Uiso   1.00
H759   H     0.06458   0.15122   0.95686   0.00000  Uiso   1.00
H760   H     0.11927   0.28964   0.70114   0.00000  Uiso   1.00
H761   H     0.24707   0.16005   0.85614   0.00000  Uiso   1.00
H762   H     0.28229   0.23945   0.88742   0.00000  Uiso   1.00
H763   H     0.22837   0.25502   0.88832   0.00000  Uiso   1.00
H764   H     0.25214   0.23667   0.83729   0.00000  Uiso   1.00
H765   H     0.08854   0.09650   0.59401   0.00000  Uiso   1.00
H766   H     0.04108   0.14386   0.63136   0.00000  Uiso   1.00
H767   H     0.08209   0.18011   0.65377   0.00000  Uiso   1.00
H768   H     0.07318   0.12112   0.67419   0.00000  Uiso   1.00
H769   H     0.04608   0.10530   0.86338   0.00000  Uiso   1.00
H770   H     0.26923   0.18900   0.54354   0.00000  Uiso   1.00
H771   H     0.29541   0.17274   0.64448   0.00000  Uiso   1.00
H772   H     0.32792   0.13101   0.54706   0.00000  Uiso   1.00
H773   H     0.32560   0.13707   0.92558   0.00000  Uiso   1.00
H774   H     0.03738   0.09140   0.75908   0.00000  Uiso   1.00
H775   H     0.29601   0.24218   0.74446   0.00000  Uiso   1.00
H776   H     0.29595   0.09136   0.75840   0.00000  Uiso   1.00
H777   H     0.03739   0.24220   0.74497   0.00000  Uiso   1.00
H778   H     0.11929   0.04330   0.70112   0.00000  Uiso   1.00
H779   H     0.21401   0.29030   0.79873   0.00000  Uiso   1.00
H780   H     0.21405   0.04371   0.79883   0.00000  Uiso   1.00
N781   N     0.16667   0.28402   0.75000   0.00000  Uiso   1.00
N782   N     0.16667   0.04931   0.75000   0.00000  Uiso   1.00
N783   N     0.24194   0.18228   0.88247   0.00000  Uiso   1.00
N784   N     0.10077   0.12354   0.61272   0.00000  Uiso   1.00
O785   O     0.10655   0.20625   0.75000   0.00000  Uiso   1.00
O786   O     0.07178   0.10683   0.88285   0.00000  Uiso   1.00
O787   O     0.24219   0.23108   0.63840   0.00000  Uiso   1.00
O788   O     0.27172   0.16024   0.62561   0.00000  Uiso   1.00
O789   O     0.04267   0.19348   0.56227   0.00000  Uiso   1.00
O790   O     0.02161   0.12440   0.53181   0.00000  Uiso   1.00
O791   O     0.31053   0.20493   0.96966   0.00000  Uiso   1.00
O792   O     0.29605   0.13547   0.93596   0.00000  Uiso   1.00
O793   O     0.22679   0.12709   0.75001   0.00000  Uiso   1.00
O794   O     0.22679   0.20625   0.75001   0.00000  Uiso   1.00
O795   O     0.10655   0.12709   0.75000   0.00000  Uiso   1.00
O796   O     0.16666   0.20627   0.68513   0.00000  Uiso   1.00
O797   O     0.16668   0.12707   0.81487   0.00000  Uiso   1.00
O798   O     0.16668   0.20627   0.81487   0.00000  Uiso   1.00
O799   O     0.16666   0.12707   0.68513   0.00000  Uiso   1.00
O800   O     0.07876   0.18028   0.85507   0.00000  Uiso   1.00
C801   C     0.42073   0.16669   0.75112   0.00000  Uiso   1.00
C802   C     0.37610   0.16677   0.75191   0.00000  Uiso   1.00
C803   C     0.47369   0.02470   0.72287   0.00000  Uiso   1.00
C804   C     0.52628   0.30872   0.77707   0.00000  Uiso   1.00
C805   C     0.52630   0.02494   0.77710   0.00000  Uiso   1.00
C806   C     0.47368   0.30842   0.72287   0.00000  Uiso   1.00
C807   C     0.49929   0.16661   0.66449   0.00000  Uiso   1.00
C808   C     0.50108   0.16667   0.83535   0.00000  Uiso   1.00
C809   C     0.53868   0.17345   0.90677   0.00000  Uiso   1.00
C810   C     0.46406   0.15268   0.59202   0.00000  Uiso   1.00
C811   C     0.50129   0.16640   0.88347   0.00000  Uiso   1.00
C812   C     0.57930   0.16669   0.75031   0.00000  Uiso   1.00
C813   C     0.49943   0.16692   0.61615   0.00000  Uiso   1.00
C814   C     0.46429   0.15798   0.90550   0.00000  Uiso   1.00
C815   C     0.53569   0.18001   0.59428   0.00000  Uiso   1.00
C816   C     0.46418   0.15840   0.95203   0.00000  Uiso   1.00
C817   C     0.53693   0.17718   0.54767   0.00000  Uiso   1.00
C818   C     0.50138   0.16617   0.97626   0.00000  Uiso   1.00
C819   C     0.50043   0.16743   0.52318   0.00000  Uiso   1.00
C820   C     0.53937   0.17223   0.95378   0.00000  Uiso   1.00
C821   C     0.46300   0.15863   0.54556   0.00000  Uiso   1.00
C822   C     0.42701   0.15366   0.97473   0.00000  Uiso   1.00
C823   C     0.42584   0.15492   0.52060   0.00000  Uiso   1.00
C824   C     0.57410   0.18297   0.52523   0.00000  Uiso   1.00
C825   C     0.58467   0.23090   0.87356   0.00000  Uiso   1.00
C826   C     0.40647   0.14377   0.64462   0.00000  Uiso   1.00
C827   C     0.42569   0.14965   0.87939   0.00000  Uiso   1.00
C828   C     0.57307   0.19262   0.62073   0.00000  Uiso   1.00
C829   C     0.38458   0.15895   0.54029   0.00000  Uiso   1.00
C830   C     0.61834   0.17456   0.96108   0.00000  Uiso   1.00
C831   C     0.57630   0.17781   0.97940   0.00000  Uiso   1.00
C832   C     0.35464   0.12446   0.75586   0.00000  Uiso   1.00
C833   C     0.64538   0.20912   0.74773   0.00000  Uiso   1.00
C834   C     0.64535   0.12444   0.75542   0.00000  Uiso   1.00
C835   C     0.35467   0.20912   0.74808   0.00000  Uiso   1.00
C836   C     0.62392   0.16675   0.75114   0.00000  Uiso   1.00
Cu837  Cu    0.50000   0.21355   0.75000   0.00000  Uiso   1.00
Cu838  Cu    0.50000   0.11978   0.75000   0.00000  Uiso   1.00
H839   H     0.39791   0.15122   0.95686   0.00000  Uiso   1.00
H840   H     0.45261   0.28964   0.70114   0.00000  Uiso   1.00
H841   H     0.58040   0.16005   0.85614   0.00000  Uiso   1.00
H842   H     0.61562   0.23945   0.88742   0.00000  Uiso   1.00
H843   H     0.56170   0.25502   0.88832   0.00000  Uiso   1.00
H844   H     0.58547   0.23667   0.83729   0.00000  Uiso   1.00
H845   H     0.42187   0.09650   0.59401   0.00000  Uiso   1.00
H846   H     0.37441   0.14386   0.63136   0.00000  Uiso   1.00
H847   H     0.41543   0.18011   0.65377   0.00000  Uiso   1.00
H848   H     0.40652   0.12112   0.67419   0.00000  Uiso   1.00
H849   H     0.37941   0.10530   0.86338   0.00000  Uiso   1.00
H850   H     0.60256   0.18900   0.54354   0.00000  Uiso   1.00
H851   H     0.62874   0.17274   0.64448   0.00000  Uiso   1.00
H852   H     0.66125   0.13101   0.54706   0.00000  Uiso   1.00
H853   H     0.65893   0.13707   0.92558   0.00000  Uiso   1.00
H854   H     0.37071   0.09140   0.75908   0.00000  Uiso   1.00
H855   H     0.62934   0.24218   0.74446   0.00000  Uiso   1.00
H856   H     0.62928   0.09136   0.75840   0.00000  Uiso   1.00
H857   H     0.37072   0.24220   0.74497   0.00000  Uiso   1.00
H858   H     0.45262   0.04330   0.70112   0.00000  Uiso   1.00
H859   H     0.54734   0.29030   0.79873   0.00000  Uiso   1.00
H860   H     0.54738   0.04371   0.79883   0.00000  Uiso   1.00
N861   N     0.50000   0.28402   0.75000   0.00000  Uiso   1.00
N862   N     0.50000   0.04931   0.75000   0.00000  Uiso   1.00
N863   N     0.57527   0.18228   0.88247   0.00000  Uiso   1.00
N864   N     0.43410   0.12354   0.61272   0.00000  Uiso   1.00
O865   O     0.43988   0.20625   0.75000   0.00000  Uiso   1.00
O866   O     0.40512   0.10683   0.88285   0.00000  Uiso   1.00
O867   O     0.57552   0.23108   0.63840   0.00000  Uiso   1.00
O868   O     0.60506   0.16024   0.62561   0.00000  Uiso   1.00
O869   O     0.37601   0.19348   0.56227   0.00000  Uiso   1.00
O870   O     0.35494   0.12440   0.53181   0.00000  Uiso   1.00
O871   O     0.64386   0.20493   0.96966   0.00000  Uiso   1.00
O872   O     0.62938   0.13547   0.93596   0.00000  Uiso   1.00
O873   O     0.56012   0.12709   0.75001   0.00000  Uiso   1.00
O874   O     0.56012   0.20625   0.75001   0.00000  Uiso   1.00
O875   O     0.43988   0.12709   0.75000   0.00000  Uiso   1.00
O876   O     0.49999   0.20627   0.68513   0.00000  Uiso   1.00
O877   O     0.50001   0.12707   0.81487   0.00000  Uiso   1.00
O878   O     0.50001   0.20627   0.81487   0.00000  Uiso   1.00
O879   O     0.49999   0.12707   0.68513   0.00000  Uiso   1.00
O880   O     0.41209   0.18028   0.85507   0.00000  Uiso   1.00
C881   C     0.75407   0.16669   0.75112   0.00000  Uiso   1.00
C882   C     0.70944   0.16677   0.75191   0.00000  Uiso   1.00
C883   C     0.80702   0.02470   0.72287   0.00000  Uiso   1.00
C884   C     0.85962   0.30872   0.77707   0.00000  Uiso   1.00
C885   C     0.85963   0.02494   0.77710   0.00000  Uiso   1.00
C886   C     0.80702   0.30842   0.72287   0.00000  Uiso   1.00
C887   C     0.83262   0.16661   0.66449   0.00000  Uiso   1.00
C888   C     0.83442   0.16667   0.83535   0.00000  Uiso   1.00
C889   C     0.87202   0.17345   0.90677   0.00000  Uiso   1.00
C890   C     0.79739   0.15268   0.59202   0.00000  Uiso   1.00
C891   C     0.83463   0.16640   0.88347   0.00000  Uiso   1.00
C892   C     0.91264   0.16669   0.75031   0.00000  Uiso   1.00
C893   C     0.83277   0.16692   0.61615   0.00000  Uiso   1.00
C894   C     0.79763   0.15798   0.90550   0.00000  Uiso   1.00
C895   C     0.86902   0.18001   0.59428   0.00000  Uiso   1.00
C896   C     0.79751   0.15840   0.95203   0.00000  Uiso   1.00
C897   C     0.87026   0.17718   0.54767   0.00000  Uiso   1.00
C898   C     0.83471   0.16617   0.97626   0.00000  Uiso   1.00
C899   C     0.83377   0.16743   0.52318   0.00000  Uiso   1.00
C900   C     0.87271   0.17223   0.95378   0.00000  Uiso   1.00
C901   C     0.79634   0.15863   0.54556   0.00000  Uiso   1.00
C902   C     0.76034   0.15366   0.97473   0.00000  Uiso   1.00
C903   C     0.75917   0.15492   0.52060   0.00000  Uiso   1.00
C904   C     0.90744   0.18297   0.52523   0.00000  Uiso   1.00
C905   C     0.91800   0.23090   0.87356   0.00000  Uiso   1.00
C906   C     0.73980   0.14377   0.64462   0.00000  Uiso   1.00
C907   C     0.75903   0.14965   0.87939   0.00000  Uiso   1.00
C908   C     0.90640   0.19262   0.62073   0.00000  Uiso   1.00
C909   C     0.71791   0.15895   0.54029   0.00000  Uiso   1.00
C910   C     0.95168   0.17456   0.96108   0.00000  Uiso   1.00
C911   C     0.90963   0.17781   0.97940   0.00000  Uiso   1.00
C912   C     0.68798   0.12446   0.75586   0.00000  Uiso   1.00
C913   C     0.97872   0.20912   0.74773   0.00000  Uiso   1.00
C914   C     0.97869   0.12444   0.75542   0.00000  Uiso   1.00
C915   C     0.68800   0.20912   0.74808   0.00000  Uiso   1.00
C916   C     0.95725   0.16675   0.75114   0.00000  Uiso   1.00
Cu917  Cu    0.83333   0.21355   0.75000   0.00000  Uiso   1.00
Cu918  Cu    0.83333   0.11978   0.75000   0.00000  Uiso   1.00
H919   H     0.73125   0.15122   0.95686   0.00000  Uiso   1.00
H920   H     0.78594   0.28964   0.70114   0.00000  Uiso   1.00
H921   H     0.91374   0.16005   0.85614   0.00000  Uiso   1.00
H922   H     0.94895   0.23945   0.88742   0.00000  Uiso   1.00
H923   H     0.89503   0.25502   0.88832   0.00000  Uiso   1.00
H924   H     0.91880   0.23667   0.83729   0.00000  Uiso   1.00
H925   H     0.75520   0.09650   0.59401   0.00000  Uiso   1.00
H926   H     0.70774   0.14386   0.63136   0.00000  Uiso   1.00
H927   H     0.74876   0.18011   0.65377   0.00000  Uiso   1.00
H928   H     0.73985   0.12112   0.67419   0.00000  Uiso   1.00
H929   H     0.71275   0.10530   0.86338   0.00000  Uiso   1.00
H930   H     0.93589   0.18900   0.54354   0.00000  Uiso   1.00
H931   H     0.96207   0.17274   0.64448   0.00000  Uiso   1.00
H932   H     0.99459   0.13101   0.54706   0.00000  Uiso   1.00
H933   H     0.99226   0.13707   0.92558   0.00000  Uiso   1.00
H934   H     0.70404   0.09140   0.75908   0.00000  Uiso   1.00
H935   H     0.96268   0.24218   0.74446   0.00000  Uiso   1.00
H936   H     0.96262   0.09136   0.75840   0.00000  Uiso   1.00
H937   H     0.70406   0.24220   0.74497   0.00000  Uiso   1.00
H938   H     0.78595   0.04330   0.70112   0.00000  Uiso   1.00
H939   H     0.88067   0.29030   0.79873   0.00000  Uiso   1.00
H940   H     0.88072   0.04371   0.79883   0.00000  Uiso   1.00
N941   N     0.83333   0.28402   0.75000   0.00000  Uiso   1.00
N942   N     0.83333   0.04931   0.75000   0.00000  Uiso   1.00
N943   N     0.90861   0.18228   0.88247   0.00000  Uiso   1.00
N944   N     0.76743   0.12354   0.61272   0.00000  Uiso   1.00
O945   O     0.77321   0.20625   0.75000   0.00000  Uiso   1.00
O946   O     0.73845   0.10683   0.88285   0.00000  Uiso   1.00
O947   O     0.90886   0.23108   0.63840   0.00000  Uiso   1.00
O948   O     0.93839   0.16024   0.62561   0.00000  Uiso   1.00
O949   O     0.70934   0.19348   0.56227   0.00000  Uiso   1.00
O950   O     0.68827   0.12440   0.53181   0.00000  Uiso   1.00
O951   O     0.97719   0.20493   0.96966   0.00000  Uiso   1.00
O952   O     0.96272   0.13547   0.93596   0.00000  Uiso   1.00
O953   O     0.89345   0.12709   0.75001   0.00000  Uiso   1.00
O954   O     0.89345   0.20625   0.75001   0.00000  Uiso   1.00
O955   O     0.77321   0.12709   0.75000   0.00000  Uiso   1.00
O956   O     0.83332   0.20627   0.68513   0.00000  Uiso   1.00
O957   O     0.83334   0.12707   0.81487   0.00000  Uiso   1.00
O958   O     0.83334   0.20627   0.81487   0.00000  Uiso   1.00
O959   O     0.83332   0.12707   0.68513   0.00000  Uiso   1.00
O960   O     0.74542   0.18028   0.85507   0.00000  Uiso   1.00
C961   C     0.08740   0.50002   0.75112   0.00000  Uiso   1.00
C962   C     0.04277   0.50010   0.75191   0.00000  Uiso   1.00
C963   C     0.14035   0.35803   0.72287   0.00000  Uiso   1.00
C964   C     0.19295   0.64205   0.77707   0.00000  Uiso   1.00
C965   C     0.19296   0.35828   0.77710   0.00000  Uiso   1.00
C966   C     0.14035   0.64175   0.72287   0.00000  Uiso   1.00
C967   C     0.16595   0.49994   0.66449   0.00000  Uiso   1.00
C968   C     0.16775   0.50000   0.83535   0.00000  Uiso   1.00
C969   C     0.20535   0.50679   0.90677   0.00000  Uiso   1.00
C970   C     0.13072   0.48601   0.59202   0.00000  Uiso   1.00
C971   C     0.16796   0.49973   0.88347   0.00000  Uiso   1.00
C972   C     0.24597   0.50003   0.75031   0.00000  Uiso   1.00
C973   C     0.16610   0.50026   0.61615   0.00000  Uiso   1.00
C974   C     0.13096   0.49132   0.90550   0.00000  Uiso   1.00
C975   C     0.20235   0.51335   0.59428   0.00000  Uiso   1.00
C976   C     0.13085   0.49173   0.95203   0.00000  Uiso   1.00
C977   C     0.20360   0.51051   0.54767   0.00000  Uiso   1.00
C978   C     0.16804   0.49950   0.97626   0.00000  Uiso   1.00
C979   C     0.16710   0.50077   0.52318   0.00000  Uiso   1.00
C980   C     0.20604   0.50556   0.95378   0.00000  Uiso   1.00
C981   C     0.12967   0.49196   0.54556   0.00000  Uiso   1.00
C982   C     0.09368   0.48699   0.97473   0.00000  Uiso   1.00
C983   C     0.09250   0.48825   0.52060   0.00000  Uiso   1.00
C984   C     0.24077   0.51630   0.52523   0.00000  Uiso   1.00
C985   C     0.25134   0.56423   0.87356   0.00000  Uiso   1.00
C986   C     0.07313   0.47711   0.64462   0.00000  Uiso   1.00
C987   C     0.09236   0.48298   0.87939   0.00000  Uiso   1.00
C988   C     0.23973   0.52596   0.62073   0.00000  Uiso   1.00
C989   C     0.05125   0.49228   0.54029   0.00000  Uiso   1.00
C990   C     0.28501   0.50789   0.96108   0.00000  Uiso   1.00
C991   C     0.24296   0.51115   0.97940   0.00000  Uiso   1.00
C992   C     0.02131   0.45779   0.75586   0.00000  Uiso   1.00
C993   C     0.31205   0.54245   0.74773   0.00000  Uiso   1.00
C994   C     0.31202   0.45777   0.75542   0.00000  Uiso   1.00
C995   C     0.02133   0.54246   0.74808   0.00000  Uiso   1.00
C996   C     0.29059   0.50008   0.75114   0.00000  Uiso   1.00
Cu997  Cu    0.16667   0.54689   0.75000   0.00000  Uiso   1.00
Cu998  Cu    0.16667   0.45311   0.75000   0.00000  Uiso   1.00
H999   H     0.06458   0.48455   0.95686   0.00000  Uiso   1.00
H1000  H     0.11927   0.62297   0.70114   0.00000  Uiso   1.00
H1001  H     0.24707   0.49339   0.85614   0.00000  Uiso   1.00
H1002  H     0.28229   0.57279   0.88742   0.00000  Uiso   1.00
H1003  H     0.22837   0.58835   0.88832   0.00000  Uiso   1.00
H1004  H     0.25214   0.57000   0.83729   0.00000  Uiso   1.00
H1005  H     0.08854   0.42984   0.59401   0.00000  Uiso   1.00
H1006  H     0.04108   0.47719   0.63136   0.00000  Uiso   1.00
H1007  H     0.08209   0.51345   0.65377   0.00000  Uiso   1.00
H1008  H     0.07318   0.45446   0.67419   0.00000  Uiso   1.00
H1009  H     0.04608   0.43864   0.86338   0.00000  Uiso   1.00
H1010  H     0.26923   0.52233   0.54354   0.00000  Uiso   1.00
H1011  H     0.29541   0.50607   0.64448   0.00000  Uiso   1.00
H1012  H     0.32792   0.46435   0.54706   0.00000  Uiso   1.00
H1013  H     0.32560   0.47041   0.92558   0.00000  Uiso   1.00
H1014  H     0.03738   0.42473   0.75908   0.00000  Uiso   1.00
H1015  H     0.29601   0.57552   0.74446   0.00000  Uiso   1.00
H1016  H     0.29595   0.42469   0.75840   0.00000  Uiso   1.00
H1017  H     0.03739   0.57553   0.74497   0.00000  Uiso   1.00
H1018  H     0.11929   0.37664   0.70112   0.00000  Uiso   1.00
H1019  H     0.21401   0.62363   0.79873   0.00000  Uiso   1.00
H1020  H     0.21405   0.37705   0.79883   0.00000  Uiso   1.00
N1021  N     0.16667   0.61736   0.75000   0.00000  Uiso   1.00
N1022  N     0.16667   0.38264   0.75000   0.00000  Uiso   1.00
N1023  N     0.24194   0.51561   0.88247   0.00000  Uiso   1.00
N1024  N     0.10077   0.45687   0.61272   0.00000  Uiso   1.00
O1025  O     0.10655   0.53958   0.75000   0.00000  Uiso   1.00
O1026  O     0.07178   0.44016   0.88285   0.00000  Uiso   1.00
O1027  O     0.24219   0.56441   0.63840   0.00000  Uiso   1.00
O1028  O     0.27172   0.49357   0.62561   0.00000  Uiso   1.00
O1029  O     0.04267   0.52682   0.56227   0.00000  Uiso   1.00
O1030  O     0.02161   0.45773   0.53181   0.00000  Uiso   1.00
O1031  O     0.31053   0.53827   0.96966   0.00000  Uiso   1.00
O1032  O     0.29605   0.46880   0.93596   0.00000  Uiso   1.00
O1033  O     0.22679   0.46042   0.75001   0.00000  Uiso   1.00
O1034  O     0.22679   0.53958   0.75001   0.00000  Uiso   1.00
O1035  O     0.10655   0.46042   0.75000   0.00000  Uiso   1.00
O1036  O     0.16666   0.53960   0.68513   0.00000  Uiso   1.00
O1037  O     0.16668   0.46040   0.81487   0.00000  Uiso   1.00
O1038  O     0.16668   0.53960   0.81487   0.00000  Uiso   1.00
O1039  O     0.16666   0.46040   0.68513   0.00000  Uiso   1.00
O1040  O     0.07876   0.51361   0.85507   0.00000  Uiso   1.00
C1041  C     0.42073   0.50002   0.75112   0.00000  Uiso   1.00
C1042  C     0.37610   0.50010   0.75191   0.00000  Uiso   1.00
C1043  C     0.47369   0.35803   0.72287   0.00000  Uiso   1.00
C1044  C     0.52628   0.64205   0.77707   0.00000  Uiso   1.00
C1045  C     0.52630   0.35828   0.77710   0.00000  Uiso   1.00
C1046  C     0.47368   0.64175   0.72287   0.00000  Uiso   1.00
C1047  C     0.49929   0.49994   0.66449   0.00000  Uiso   1.00
C1048  C     0.50108   0.50000   0.83535   0.00000  Uiso   1.00
C1049  C     0.53868   0.50679   0.90677   0.00000  Uiso   1.00
C1050  C     0.46406   0.48601   0.59202   0.00000  Uiso   1.00
C1051  C     0.50129   0.49973   0.88347   0.00000  Uiso   1.00
C1052  C     0.57930   0.50003   0.75031   0.00000  Uiso   1.00
C1053  C     0.49943   0.50026   0.61615   0.00000  Uiso   1.00
C1054  C     0.46429   0.49132   0.90550   0.00000  Uiso   1.00
C1055  C     0.53569   0.51335   0.59428   0.00000  Uiso   1.00
C1056  C     0.46418   0.49173   0.95203   0.00000  Uiso   1.00
C1057  C     0.53693   0.51051   0.54767   0.00000  Uiso   1.00
C1058  C     0.50138   0.49950   0.97626   0.00000  Uiso   1.00
C1059  C     0.50043   0.50077   0.52318   0.00000  Uiso   1.00
C1060  C     0.53937   0.50556   0.95378   0.00000  Uiso   1.00
C1061  C     0.46300   0.49196   0.54556   0.00000  Uiso   1.00
C1062  C     0.42701   0.48699   0.97473   0.00000  Uiso   1.00
C1063  C     0.42584   0.48825   0.52060   0.00000  Uiso   1.00
C1064  C     0.57410   0.51630   0.52523   0.00000  Uiso   1.00
C1065  C     0.58467   0.56423   0.87356   0.00000  Uiso   1.00
C1066  C     0.40647   0.47711   0.64462   0.00000  Uiso   1.00
C1067  C     0.42569   0.48298   0.87939   0.00000  Uiso   1.00
C1068  C     0.57307   0.52596   0.62073   0.00000  Uiso   1.00
C1069  C     0.38458   0.49228   0.54029   0.00000  Uiso   1.00
C1070  C     0.61834   0.50789   0.96108   0.00000  Uiso   1.00
C1071  C     0.57630   0.51115   0.97940   0.00000  Uiso   1.00
C1072  C     0.35464   0.45779   0.75586   0.00000  Uiso   1.00
C1073  C     0.64538   0.54245   0.74773   0.00000  Uiso   1.00
C1074  C     0.64535   0.45777   0.75542   0.00000  Uiso   1.00
C1075  C     0.35467   0.54246   0.74808   0.00000  Uiso   1.00
C1076  C     0.62392   0.50008   0.75114   0.00000  Uiso   1.00
Cu1077 Cu    0.50000   0.54689   0.75000   0.00000  Uiso   1.00
Cu1078 Cu    0.50000   0.45311   0.75000   0.00000  Uiso   1.00
H1079  H     0.39791   0.48455   0.95686   0.00000  Uiso   1.00
H1080  H     0.45261   0.62297   0.70114   0.00000  Uiso   1.00
H1081  H     0.58040   0.49339   0.85614   0.00000  Uiso   1.00
H1082  H     0.61562   0.57279   0.88742   0.00000  Uiso   1.00
H1083  H     0.56170   0.58835   0.88832   0.00000  Uiso   1.00
H1084  H     0.58547   0.57000   0.83729   0.00000  Uiso   1.00
H1085  H     0.42187   0.42984   0.59401   0.00000  Uiso   1.00
H1086  H     0.37441   0.47719   0.63136   0.00000  Uiso   1.00
H1087  H     0.41543   0.51345   0.65377   0.00000  Uiso   1.00
H1088  H     0.40652   0.45446   0.67419   0.00000  Uiso   1.00
H1089  H     0.37941   0.43864   0.86338   0.00000  Uiso   1.00
H1090  H     0.60256   0.52233   0.54354   0.00000  Uiso   1.00
H1091  H     0.62874   0.50607   0.64448   0.00000  Uiso   1.00
H1092  H     0.66125   0.46435   0.54706   0.00000  Uiso   1.00
H1093  H     0.65893   0.47041   0.92558   0.00000  Uiso   1.00
H1094  H     0.37071   0.42473   0.75908   0.00000  Uiso   1.00
H1095  H     0.62934   0.57552   0.74446   0.00000  Uiso   1.00
H1096  H     0.62928   0.42469   0.75840   0.00000  Uiso   1.00
H1097  H     0.37072   0.57553   0.74497   0.00000  Uiso   1.00
H1098  H     0.45262   0.37664   0.70112   0.00000  Uiso   1.00
H1099  H     0.54734   0.62363   0.79873   0.00000  Uiso   1.00
H1100  H     0.54738   0.37705   0.79883   0.00000  Uiso   1.00
N1101  N     0.50000   0.61736   0.75000   0.00000  Uiso   1.00
N1102  N     0.50000   0.38264   0.75000   0.00000  Uiso   1.00
N1103  N     0.57527   0.51561   0.88247   0.00000  Uiso   1.00
N1104  N     0.43410   0.45687   0.61272   0.00000  Uiso   1.00
O1105  O     0.43988   0.53958   0.75000   0.00000  Uiso   1.00
O1106  O     0.40512   0.44016   0.88285   0.00000  Uiso   1.00
O1107  O     0.57552   0.56441   0.63840   0.00000  Uiso   1.00
O1108  O     0.60506   0.49357   0.62561   0.00000  Uiso   1.00
O1109  O     0.37601   0.52682   0.56227   0.00000  Uiso   1.00
O1110  O     0.35494   0.45773   0.53181   0.00000  Uiso   1.00
O1111  O     0.64386   0.53827   0.96966   0.00000  Uiso   1.00
O1112  O     0.62938   0.46880   0.93596   0.00000  Uiso   1.00
O1113  O     0.56012   0.46042   0.75001   0.00000  Uiso   1.00
O1114  O     0.56012   0.53958   0.75001   0.00000  Uiso   1.00
O1115  O     0.43988   0.46042   0.75000   0.00000  Uiso   1.00
O1116  O     0.49999   0.53960   0.68513   0.00000  Uiso   1.00
O1117  O     0.50001   0.46040   0.81487   0.00000  Uiso   1.00
O1118  O     0.50001   0.53960   0.81487   0.00000  Uiso   1.00
O1119  O     0.49999   0.46040   0.68513   0.00000  Uiso   1.00
O1120  O     0.41209   0.51361   0.85507   0.00000  Uiso   1.00
C1121  C     0.75407   0.50002   0.75112   0.00000  Uiso   1.00
C1122  C     0.70944   0.50010   0.75191   0.00000  Uiso   1.00
C1123  C     0.80702   0.35803   0.72287   0.00000  Uiso   1.00
C1124  C     0.85962   0.64205   0.77707   0.00000  Uiso   1.00
C1125  C     0.85963   0.35828   0.77710   0.00000  Uiso   1.00
C1126  C     0.80702   0.64175   0.72287   0.00000  Uiso   1.00
C1127  C     0.83262   0.49994   0.66449   0.00000  Uiso   1.00
C1128  C     0.83442   0.50000   0.83535   0.00000  Uiso   1.00
C1129  C     0.87202   0.50679   0.90677   0.00000  Uiso   1.00
C1130  C     0.79739   0.48601   0.59202   0.00000  Uiso   1.00
C1131  C     0.83463   0.49973   0.88347   0.00000  Uiso   1.00
C1132  C     0.91264   0.50003   0.75031   0.00000  Uiso   1.00
C1133  C     0.83277   0.50026   0.61615   0.00000  Uiso   1.00
C1134  C     0.79763   0.49132   0.90550   0.00000  Uiso   1.00
C1135  C     0.86902   0.51335   0.59428   0.00000  Uiso   1.00
C1136  C     0.79751   0.49173   0.95203   0.00000  Uiso   1.00
C1137  C     0.87026   0.51051   0.54767   0.00000  Uiso   1.00
C1138  C     0.83471   0.49950   0.97626   0.00000  Uiso   1.00
C1139  C     0.83377   0.50077   0.52318   0.00000  Uiso   1.00
C1140  C     0.87271   0.50556   0.95378   0.00000  Uiso   1.00
C1141  C     0.79634   0.49196   0.54556   0.00000  Uiso   1.00
C1142  C     0.76034   0.48699   0.97473   0.00000  Uiso   1.00
C1143  C     0.75917   0.48825   0.52060   0.00000  Uiso   1.00
C1144  C     0.90744   0.51630   0.52523   0.00000  Uiso   1.00
C1145  C     0.91800   0.56423   0.87356   0.00000  Uiso   1.00
C1146  C     0.73980   0.47711   0.64462   0.00000  Uiso   1.00
C1147  C     0.75903   0.48298   0.87939   0.00000  Uiso   1.00
C1148  C     0.90640   0.52596   0.62073   0.00000  Uiso   1.00
C1149  C     0.71791   0.49228   0.54029   0.00000  Uiso   1.00
C1150  C     0.95168   0.50789   0.96108   0.00000  Uiso   1.00
C1151  C     0.90963   0.51115   0.97940   0.00000  Uiso   1.00
C1152  C     0.68798   0.45779   0.75586   0.00000  Uiso   1.00
C1153  C     0.97872   0.54245   0.74773   0.00000  Uiso   1.00
C1154  C     0.97869   0.45777   0.75542   0.00000  Uiso   1.00
C1155  C     0.68800   0.54246   0.74808   0.00000  Uiso   1.00
C1156  C     0.95725   0.50008   0.75114   0.00000  Uiso   1.00
Cu1157 Cu    0.83333   0.54689   0.75000   0.00000  Uiso   1.00
Cu1158 Cu    0.83333   0.45311   0.75000   0.00000  Uiso   1.00
H1159  H     0.73125   0.48455   0.95686   0.00000  Uiso   1.00
H1160  H     0.78594   0.62297   0.70114   0.00000  Uiso   1.00
H1161  H     0.91374   0.49339   0.85614   0.00000  Uiso   1.00
H1162  H     0.94895   0.57279   0.88742   0.00000  Uiso   1.00
H1163  H     0.89503   0.58835   0.88832   0.00000  Uiso   1.00
H1164  H     0.91880   0.57000   0.83729   0.00000  Uiso   1.00
H1165  H     0.75520   0.42984   0.59401   0.00000  Uiso   1.00
H1166  H     0.70774   0.47719   0.63136   0.00000  Uiso   1.00
H1167  H     0.74876   0.51345   0.65377   0.00000  Uiso   1.00
H1168  H     0.73985   0.45446   0.67419   0.00000  Uiso   1.00
H1169  H     0.71275   0.43864   0.86338   0.00000  Uiso   1.00
H1170  H     0.93589   0.52233   0.54354   0.00000  Uiso   1.00
H1171  H     0.96207   0.50607   0.64448   0.00000  Uiso   1.00
H1172  H     0.99459   0.46435   0.54706   0.00000  Uiso   1.00
H1173  H     0.99226   0.47041   0.92558   0.00000  Uiso   1.00
H1174  H     0.70404   0.42473   0.75908   0.00000  Uiso   1.00
H1175  H     0.96268   0.57552   0.74446   0.00000  Uiso   1.00
H1176  H     0.96262   0.42469   0.75840   0.00000  Uiso   1.00
H1177  H     0.70406   0.57553   0.74497   0.00000  Uiso   1.00
H1178  H     0.78595   0.37664   0.70112   0.00000  Uiso   1.00
H1179  H     0.88067   0.62363   0.79873   0.00000  Uiso   1.00
H1180  H     0.88072   0.37705   0.79883   0.00000  Uiso   1.00
N1181  N     0.83333   0.61736   0.75000   0.00000  Uiso   1.00
N1182  N     0.83333   0.38264   0.75000   0.00000  Uiso   1.00
N1183  N     0.90861   0.51561   0.88247   0.00000  Uiso   1.00
N1184  N     0.76743   0.45687   0.61272   0.00000  Uiso   1.00
O1185  O     0.77321   0.53958   0.75000   0.00000  Uiso   1.00
O1186  O     0.73845   0.44016   0.88285   0.00000  Uiso   1.00
O1187  O     0.90886   0.56441   0.63840   0.00000  Uiso   1.00
O1188  O     0.93839   0.49357   0.62561   0.00000  Uiso   1.00
O1189  O     0.70934   0.52682   0.56227   0.00000  Uiso   1.00
O1190  O     0.68827   0.45773   0.53181   0.00000  Uiso   1.00
O1191  O     0.97719   0.53827   0.96966   0.00000  Uiso   1.00
O1192  O     0.96272   0.46880   0.93596   0.00000  Uiso   1.00
O1193  O     0.89345   0.46042   0.75001   0.00000  Uiso   1.00
O1194  O     0.89345   0.53958   0.75001   0.00000  Uiso   1.00
O1195  O     0.77321   0.46042   0.75000   0.00000  Uiso   1.00
O1196  O     0.83332   0.53960   0.68513   0.00000  Uiso   1.00
O1197  O     0.83334   0.46040   0.81487   0.00000  Uiso   1.00
O1198  O     0.83334   0.53960   0.81487   0.00000  Uiso   1.00
O1199  O     0.83332   0.46040   0.68513   0.00000  Uiso   1.00
O1200  O     0.74542   0.51361   0.85507   0.00000  Uiso   1.00
C1201  C     0.08740   0.83335   0.75112   0.00000  Uiso   1.00
C1202  C     0.04277   0.83344   0.75191   0.00000  Uiso   1.00
C1203  C     0.14035   0.69136   0.72287   0.00000  Uiso   1.00
C1204  C     0.19295   0.97538   0.77707   0.00000  Uiso   1.00
C1205  C     0.19296   0.69161   0.77710   0.00000  Uiso   1.00
C1206  C     0.14035   0.97508   0.72287   0.00000  Uiso   1.00
C1207  C     0.16595   0.83327   0.66449   0.00000  Uiso   1.00
C1208  C     0.16775   0.83333   0.83535   0.00000  Uiso   1.00
C1209  C     0.20535   0.84012   0.90677   0.00000  Uiso   1.00
C1210  C     0.13072   0.81934   0.59202   0.00000  Uiso   1.00
C1211  C     0.16796   0.83306   0.88347   0.00000  Uiso   1.00
C1212  C     0.24597   0.83336   0.75031   0.00000  Uiso   1.00
C1213  C     0.16610   0.83359   0.61615   0.00000  Uiso   1.00
C1214  C     0.13096   0.82465   0.90550   0.00000  Uiso   1.00
C1215  C     0.20235   0.84668   0.59428   0.00000  Uiso   1.00
C1216  C     0.13085   0.82507   0.95203   0.00000  Uiso   1.00
C1217  C     0.20360   0.84384   0.54767   0.00000  Uiso   1.00
C1218  C     0.16804   0.83284   0.97626   0.00000  Uiso   1.00
C1219  C     0.16710   0.83410   0.52318   0.00000  Uiso   1.00
C1220  C     0.20604   0.83890   0.95378   0.00000  Uiso   1.00
C1221  C     0.12967   0.82530   0.54556   0.00000  Uiso   1.00
C1222  C     0.09368   0.82033   0.97473   0.00000  Uiso   1.00
C1223  C     0.09250   0.82158   0.52060   0.00000  Uiso   1.00
C1224  C     0.24077   0.84963   0.52523   0.00000  Uiso   1.00
C1225  C     0.25134   0.89757   0.87356   0.00000  Uiso   1.00
C1226  C     0.07313   0.81044   0.64462   0.00000  Uiso   1.00
C1227  C     0.09236   0.81632   0.87939   0.00000  Uiso   1.00
C1228  C     0.23973   0.85929   0.62073   0.00000  Uiso   1.00
C1229  C     0.05125   0.82561   0.54029   0.00000  Uiso   1.00
C1230  C     0.28501   0.84122   0.96108   0.00000  Uiso   1.00
C1231  C     0.24296   0.84448   0.97940   0.00000  Uiso   1.00
C1232  C     0.02131   0.79112   0.75586   0.00000  Uiso   1.00
C1233  C     0.31205   0.87578   0.74773   0.00000  Uiso   1.00
C1234  C     0.31202   0.79111   0.75542   0.00000  Uiso   1.00
C1235  C     0.02133   0.87579   0.74808   0.00000  Uiso   1.00
C1236  C     0.29059   0.83342   0.75114   0.00000  Uiso   1.00
Cu1237 Cu    0.16667   0.88022   0.75000   0.00000  Uiso   1.00
Cu1238 Cu    0.16667   0.78645   0.75000   0.00000  Uiso   1.00
H1239  H     0.06458   0.81789   0.95686   0.00000  Uiso   1.00
H1240  H     0.11927   0.95631   0.70114   0.00000  Uiso   1.00
H1241  H     0.24707   0.82672   0.85614   0.00000  Uiso   1.00
H1242  H     0.28229   0.90612   0.88742   0.00000  Uiso   1.00
H1243  H     0.22837   0.92168   0.88832   0.00000  Uiso   1.00
H1244  H     0.25214   0.90333   0.83729   0.00000  Uiso   1.00
H1245  H     0.08854   0.76317   0.59401   0.00000  Uiso   1.00
H1246  H     0.04108   0.81052   0.63136   0.00000  Uiso   1.00
H1247  H     0.08209   0.84678   0.65377   0.00000  Uiso   1.00
H1248  H     0.07318   0.78779   0.67419   0.00000  Uiso   1.00
H1249  H     0.04608   0.77197   0.86338   0.00000  Uiso   1.00
H1250  H     0.26923   0.85567   0.54354   0.00000  Uiso   1.00
H1251  H     0.29541   0.83940   0.64448   0.00000  Uiso   1.00
H1252  H     0.32792   0.79768   0.54706   0.00000  Uiso   1.00
H1253  H     0.32560   0.80374   0.92558   0.00000  Uiso   1.00
H1254  H     0.03738   0.75807   0.75908   0.00000  Uiso   1.00
H1255  H     0.29601   0.90885   0.74446   0.00000  Uiso   1.00
H1256  H     0.29595   0.75802   0.75840   0.00000  Uiso   1.00
H1257  H     0.03739   0.90886   0.74497   0.00000  Uiso   1.00
H1258  H     0.11929   0.70997   0.70112   0.00000  Uiso   1.00
H1259  H     0.21401   0.95697   0.79873   0.00000  Uiso   1.00
H1260  H     0.21405   0.71038   0.79883   0.00000  Uiso   1.00
N1261  N     0.16667   0.95069   0.75000   0.00000  Uiso   1.00
N1262  N     0.16667   0.71598   0.75000   0.00000  Uiso   1.00
N1263  N     0.24194   0.84894   0.88247   0.00000  Uiso   1.00
N1264  N     0.10077   0.79021   0.61272   0.00000  Uiso   1.00
O1265  O     0.10655   0.87291   0.75000   0.00000  Uiso   1.00
O1266  O     0.07178   0.77349   0.88285   0.00000  Uiso   1.00
O1267  O     0.24219   0.89775   0.63840   0.00000  Uiso   1.00
O1268  O     0.27172   0.82690   0.62561   0.00000  Uiso   1.00
O1269  O     0.04267   0.86015   0.56227   0.00000  Uiso   1.00
O1270  O     0.02161   0.79107   0.53181   0.00000  Uiso   1.00
O1271  O     0.31053   0.87160   0.96966   0.00000  Uiso   1.00
O1272  O     0.29605   0.80214   0.93596   0.00000  Uiso   1.00
O1273  O     0.22679   0.79375   0.75001   0.00000  Uiso   1.00
O1274  O     0.22679   0.87291   0.75001   0.00000  Uiso   1.00
O1275  O     0.10655   0.79375   0.75000   0.00000  Uiso   1.00
O1276  O     0.16666   0.87293   0.68513   0.00000  Uiso   1.00
O1277  O     0.16668   0.79373   0.81487   0.00000  Uiso   1.00
O1278  O     0.16668   0.87293   0.81487   0.00000  Uiso   1.00
O1279  O     0.16666   0.79373   0.68513   0.00000  Uiso   1.00
O1280  O     0.07876   0.84694   0.85507   0.00000  Uiso   1.00
C1281  C     0.42073   0.83335   0.75112   0.00000  Uiso   1.00
C1282  C     0.37610   0.83344   0.75191   0.00000  Uiso   1.00
C1283  C     0.47369   0.69136   0.72287   0.00000  Uiso   1.00
C1284  C     0.52628   0.97538   0.77707   0.00000  Uiso   1.00
C1285  C     0.52630   0.69161   0.77710   0.00000  Uiso   1.00
C1286  C     0.47368   0.97508   0.72287   0.00000  Uiso   1.00
C1287  C     0.49929   0.83327   0.66449   0.00000  Uiso   1.00
C1288  C     0.50108   0.83333   0.83535   0.00000  Uiso   1.00
C1289  C     0.53868   0.84012   0.90677   0.00000  Uiso   1.00
C1290  C     0.46406   0.81934   0.59202   0.00000  Uiso   1.00
C1291  C     0.50129   0.83306   0.88347   0.00000  Uiso   1.00
C1292  C     0.57930   0.83336   0.75031   0.00000  Uiso   1.00
C1293  C     0.49943   0.83359   0.61615   0.00000  Uiso   1.00
C1294  C     0.46429   0.82465   0.90550   0.00000  Uiso   1.00
C1295  C     0.53569   0.84668   0.59428   0.00000  Uiso   1.00
C1296  C     0.46418   0.82507   0.95203   0.00000  Uiso   1.00
C1297  C     0.53693   0.84384   0.54767   0.00000  Uiso   1.00
C1298  C     0.50138   0.83284   0.97626   0.00000  Uiso   1.00
C1299  C     0.50043   0.83410   0.52318   0.00000  Uiso   1.00
C1300  C     0.53937   0.83890   0.95378   0.00000  Uiso   1.00
C1301  C     0.46300   0.82530   0.54556   0.00000  Uiso   1.00
C1302  C     0.42701   0.82033   0.97473   0.00000  Uiso   1.00
C1303  C     0.42584   0.82158   0.52060   0.00000  Uiso   1.00
C1304  C     0.57410   0.84963   0.52523   0.00000  Uiso   1.00
C1305  C     0.58467   0.89757   0.87356   0.00000  Uiso   1.00
C1306  C     0.40647   0.81044   0.64462   0.00000  Uiso   1.00
C1307  C     0.42569   0.81632   0.87939   0.00000  Uiso   1.00
C1308  C     0.57307   0.85929   0.62073   0.00000  Uiso   1.00
C1309  C     0.38458   0.82561   0.54029   0.00000  Uiso   1.00
C1310  C     0.61834   0.84122   0.96108   0.00000  Uiso   1.00
C1311  C     0.57630   0.84448   0.97940   0.00000  Uiso   1.00
C1312  C     0.35464   0.79112   0.75586   0.00000  Uiso   1.00
C1313  C     0.64538   0.87578   0.74773   0.00000  Uiso   1.00
C1314  C     0.64535   0.79111   0.75542   0.00000  Uiso   1.00
C1315  C     0.35467   0.87579   0.74808   0.00000  Uiso   1.00
C1316  C     0.62392   0.83342   0.75114   0.00000  Uiso   1.00
Cu1317 Cu    0.50000   0.88022   0.75000   0.00000  Uiso   1.00
Cu1318 Cu    0.50000   0.78645   0.75000   0.00000  Uiso   1.00
H1319  H     0.39791   0.81789   0.95686   0.00000  Uiso   1.00
H1320  H     0.45261   0.95631   0.70114   0.00000  Uiso   1.00
H1321  H     0.58040   0.82672   0.85614   0.00000  Uiso   1.00
H1322  H     0.61562   0.90612   0.88742   0.00000  Uiso   1.00
H1323  H     0.56170   0.92168   0.88832   0.00000  Uiso   1.00
H1324  H     0.58547   0.90333   0.83729   0.00000  Uiso   1.00
H1325  H     0.42187   0.76317   0.59401   0.00000  Uiso   1.00
H1326  H     0.37441   0.81052   0.63136   0.00000  Uiso   1.00
H1327  H     0.41543   0.84678   0.65377   0.00000  Uiso   1.00
H1328  H     0.40652   0.78779   0.67419   0.00000  Uiso   1.00
H1329  H     0.37941   0.77197   0.86338   0.00000  Uiso   1.00
H1330  H     0.60256   0.85567   0.54354   0.00000  Uiso   1.00
H1331  H     0.62874   0.83940   0.64448   0.00000  Uiso   1.00
H1332  H     0.66125   0.79768   0.54706   0.00000  Uiso   1.00
H1333  H     0.65893   0.80374   0.92558   0.00000  Uiso   1.00
H1334  H     0.37071   0.75807   0.75908   0.00000  Uiso   1.00
H1335  H     0.62934   0.90885   0.74446   0.00000  Uiso   1.00
H1336  H     0.62928   0.75802   0.75840   0.00000  Uiso   1.00
H1337  H     0.37072   0.90886   0.74497   0.00000  Uiso   1.00
H1338  H     0.45262   0.70997   0.70112   0.00000  Uiso   1.00
H1339  H     0.54734   0.95697   0.79873   0.00000  Uiso   1.00
H1340  H     0.54738   0.71038   0.79883   0.00000  Uiso   1.00
N1341  N     0.50000   0.95069   0.75000   0.00000  Uiso   1.00
N1342  N     0.50000   0.71598   0.75000   0.00000  Uiso   1.00
N1343  N     0.57527   0.84894   0.88247   0.00000  Uiso   1.00
N1344  N     0.43410   0.79021   0.61272   0.00000  Uiso   1.00
O1345  O     0.43988   0.87291   0.75000   0.00000  Uiso   1.00
O1346  O     0.40512   0.77349   0.88285   0.00000  Uiso   1.00
O1347  O     0.57552   0.89775   0.63840   0.00000  Uiso   1.00
O1348  O     0.60506   0.82690   0.62561   0.00000  Uiso   1.00
O1349  O     0.37601   0.86015   0.56227   0.00000  Uiso   1.00
O1350  O     0.35494   0.79107   0.53181   0.00000  Uiso   1.00
O1351  O     0.64386   0.87160   0.96966   0.00000  Uiso   1.00
O1352  O     0.62938   0.80214   0.93596   0.00000  Uiso   1.00
O1353  O     0.56012   0.79375   0.75001   0.00000  Uiso   1.00
O1354  O     0.56012   0.87291   0.75001   0.00000  Uiso   1.00
O1355  O     0.43988   0.79375   0.75000   0.00000  Uiso   1.00
O1356  O     0.49999   0.87293   0.68513   0.00000  Uiso   1.00
O1357  O     0.50001   0.79373   0.81487   0.00000  Uiso   1.00
O1358  O     0.50001   0.87293   0.81487   0.00000  Uiso   1.00
O1359  O     0.49999   0.79373   0.68513   0.00000  Uiso   1.00
O1360  O     0.41209   0.84694   0.85507   0.00000  Uiso   1.00
C1361  C     0.75407   0.83335   0.75112   0.00000  Uiso   1.00
C1362  C     0.70944   0.83344   0.75191   0.00000  Uiso   1.00
C1363  C     0.80702   0.69136   0.72287   0.00000  Uiso   1.00
C1364  C     0.85962   0.97538   0.77707   0.00000  Uiso   1.00
C1365  C     0.85963   0.69161   0.77710   0.00000  Uiso   1.00
C1366  C     0.80702   0.97508   0.72287   0.00000  Uiso   1.00
C1367  C     0.83262   0.83327   0.66449   0.00000  Uiso   1.00
C1368  C     0.83442   0.83333   0.83535   0.00000  Uiso   1.00
C1369  C     0.87202   0.84012   0.90677   0.00000  Uiso   1.00
C1370  C     0.79739   0.81934   0.59202   0.00000  Uiso   1.00
C1371  C     0.83463   0.83306   0.88347   0.00000  Uiso   1.00
C1372  C     0.91264   0.83336   0.75031   0.00000  Uiso   1.00
C1373  C     0.83277   0.83359   0.61615   0.00000  Uiso   1.00
C1374  C     0.79763   0.82465   0.90550   0.00000  Uiso   1.00
C1375  C     0.86902   0.84668   0.59428   0.00000  Uiso   1.00
C1376  C     0.79751   0.82507   0.95203   0.00000  Uiso   1.00
C1377  C     0.87026   0.84384   0.54767   0.00000  Uiso   1.00
C1378  C     0.83471   0.83284   0.97626   0.00000  Uiso   1.00
C1379  C     0.83377   0.83410   0.52318   0.00000  Uiso   1.00
C1380  C     0.87271   0.83890   0.95378   0.00000  Uiso   1.00
C1381  C     0.79634   0.82530   0.54556   0.00000  Uiso   1.00
C1382  C     0.76034   0.82033   0.97473   0.00000  Uiso   1.00
C1383  C     0.75917   0.82158   0.52060   0.00000  Uiso   1.00
C1384  C     0.90744   0.84963   0.52523   0.00000  Uiso   1.00
C1385  C     0.91800   0.89757   0.87356   0.00000  Uiso   1.00
C1386  C     0.73980   0.81044   0.64462   0.00000  Uiso   1.00
C1387  C     0.75903   0.81632   0.87939   0.00000  Uiso   1.00
C1388  C     0.90640   0.85929   0.62073   0.00000  Uiso   1.00
C1389  C     0.71791   0.82561   0.54029   0.00000  Uiso   1.00
C1390  C     0.95168   0.84122   0.96108   0.00000  Uiso   1.00
C1391  C     0.90963   0.84448   0.97940   0.00000  Uiso   1.00
C1392  C     0.68798   0.79112   0.75586   0.00000  Uiso   1.00
C1393  C     0.97872   0.87578   0.74773   0.00000  Uiso   1.00
C1394  C     0.97869   0.79111   0.75542   0.00000  Uiso   1.00
C1395  C     0.68800   0.87579   0.74808   0.00000  Uiso   1.00
C1396  C     0.95725   0.83342   0.75114   0.00000  Uiso   1.00
Cu1397 Cu    0.83333   0.88022   0.75000   0.00000  Uiso   1.00
Cu1398 Cu    0.83333   0.78645   0.75000   0.00000  Uiso   1.00
H1399  H     0.73125   0.81789   0.95686   0.00000  Uiso   1.00
H1400  H     0.78594   0.95631   0.70114   0.00000  Uiso   1.00
H1401  H     0.91374   0.82672   0.85614   0.00000  Uiso   1.00
H1402  H     0.94895   0.90612   0.88742   0.00000  Uiso   1.00
H1403  H     0.89503   0.92168   0.88832   0.00000  Uiso   1.00
H1404  H     0.91880   0.90333   0.83729   0.00000  Uiso   1.00
H1405  H     0.75520   0.76317   0.59401   0.00000  Uiso   1.00
H1406  H     0.70774   0.81052   0.63136   0.00000  Uiso   1.00
H1407  H     0.74876   0.84678   0.65377   0.00000  Uiso   1.00
H1408  H     0.73985   0.78779   0.67419   0.00000  Uiso   1.00
H1409  H     0.71275   0.77197   0.86338   0.00000  Uiso   1.00
H1410  H     0.93589   0.85567   0.54354   0.00000  Uiso   1.00
H1411  H     0.96207   0.83940   0.64448   0.00000  Uiso   1.00
H1412  H     0.99459   0.79768   0.54706   0.00000  Uiso   1.00
H1413  H     0.99226   0.80374   0.92558   0.00000  Uiso   1.00
H1414  H     0.70404   0.75807   0.75908   0.00000  Uiso   1.00
H1415  H     0.96268   0.90885   0.74446   0.00000  Uiso   1.00
H1416  H     0.96262   0.75802   0.75840   0.00000  Uiso   1.00
H1417  H     0.70406   0.90886   0.74497   0.00000  Uiso   1.00
H1418  H     0.78595   0.70997   0.70112   0.00000  Uiso   1.00
H1419  H     0.88067   0.95697   0.79873   0.00000  Uiso   1.00
H1420  H     0.88072   0.71038   0.79883   0.00000  Uiso   1.00
N1421  N     0.83333   0.95069   0.75000   0.00000  Uiso   1.00
N1422  N     0.83333   0.71598   0.75000   0.00000  Uiso   1.00
N1423  N     0.90861   0.84894   0.88247   0.00000  Uiso   1.00
N1424  N     0.76743   0.79021   0.61272   0.00000  Uiso   1.00
O1425  O     0.77321   0.87291   0.75000   0.00000  Uiso   1.00
O1426  O     0.73845   0.77349   0.88285   0.00000  Uiso   1.00
O1427  O     0.90886   0.89775   0.63840   0.00000  Uiso   1.00
O1428  O     0.93839   0.82690   0.62561   0.00000  Uiso   1.00
O1429  O     0.70934   0.86015   0.56227   0.00000  Uiso   1.00
O1430  O     0.68827   0.79107   0.53181   0.00000  Uiso   1.00
O1431  O     0.97719   0.87160   0.96966   0.00000  Uiso   1.00
O1432  O     0.96272   0.80214   0.93596   0.00000  Uiso   1.00
O1433  O     0.89345   0.79375   0.75001   0.00000  Uiso   1.00
O1434  O     0.89345   0.87291   0.75001   0.00000  Uiso   1.00
O1435  O     0.77321   0.79375   0.75000   0.00000  Uiso   1.00
O1436  O     0.83332   0.87293   0.68513   0.00000  Uiso   1.00
O1437  O     0.83334   0.79373   0.81487   0.00000  Uiso   1.00
O1438  O     0.83334   0.87293   0.81487   0.00000  Uiso   1.00
O1439  O     0.83332   0.79373   0.68513   0.00000  Uiso   1.00
O1440  O     0.74542   0.84694   0.85507   0.00000  Uiso   1.00
loop_
_geom_bond_atom_site_label_1
_geom_bond_atom_site_label_2
_geom_bond_distance
_geom_bond_site_symmetry_2
_ccdc_geom_bond_type
C1     C2      1.448   .     S
C1     O65     1.290   .     A
C1     O75     1.292   .     A
C2     C35     1.401   .     A
C2     C32     1.400   .     A
C3     N62     1.367   .     A
C3     H58     1.082   .     S
C3     C486    1.418   1_545 S
C4     N61     1.367   .     A
C4     H59     1.077   .     S
C4     C245    1.416   .     S
C5     H60     1.082   .     S
C5     N62     1.366   .     A
C5     C484    1.416   1_545 S
C6     N61     1.367   .     A
C6     H40     1.082   .     S
C6     C243    1.418   .     S
C7     O79     1.292   .     A
C7     O76     1.292   .     A
C7     C13     1.460   .     S
C8     O78     1.291   .     A
C8     O77     1.288   .     A
C8     C11     1.453   .     S
C9     C20     1.420   .     A
C9     C11     1.407   .     A
C9     N63     1.426   .     S
C10    C21     1.413   .     A
C10    N64     1.430   .     S
C10    C13     1.410   .     A
C11    C14     1.401   .     A
C12    O74     1.291   .     A
C12    C36     1.447   .     S
C12    O73     1.291   .     A
C13    C15     1.407   .     A
C14    C27     1.489   .     S
C14    C16     1.405   .     A
C15    C17     1.410   .     A
C15    C28     1.486   .     S
C16    C22     1.402   .     A
C16    C18     1.419   .     A
C17    C24     1.401   .     A
C17    C19     1.414   .     A
C18    C20     1.426   .     A
C18    C739    1.418   .     S
C19    C21     1.420   .     A
C19    C738    1.418   1_554 S
C20    C31     1.425   .     A
C21    C23     1.416   .     A
C22    H39     1.082   .     S
C22    C743    1.387   .     S
C23    C29     1.476   .     S
C23    C742    1.387   1_554 S
C24    H50     1.083   .     S
C24    C751    1.394   1_554 S
C25    H43     1.113   .     S
C25    N63     1.449   .     S
C25    H44     1.108   .     S
C25    H42     1.109   .     S
C26    N64     1.445   .     S
C26    H48     1.104   .     S
C26    H47     1.111   .     S
C26    H46     1.109   .     S
C27    O80     1.222   .     D
C27    O66     1.398   .     S
C28    O68     1.398   .     S
C28    O67     1.222   .     D
C29    O69     1.223   .     D
C29    O70     1.397   .     S
C30    O71     1.223   .     D
C30    C31     1.482   .     S
C30    O72     1.398   .     S
C31    C744    1.394   .     S
C32    H54     1.083   .     S
C32    C194    1.382   1_455 S
C33    H55     1.083   .     S
C33    C36     1.400   .     A
C33    C115    1.382   .     S
C34    H56     1.083   .     S
C34    C36     1.401   .     A
C34    C112    1.382   .     S
C35    H57     1.083   .     S
C35    C193    1.382   1_455 S
Cu37   O74     1.961   .     S
Cu37   O65     1.961   .     S
Cu37   Cu38    2.679   .     S
Cu37   O76     1.969   .     S
Cu37   N61     2.013   .     S
Cu37   O78     1.970   .     S
Cu38   O79     1.970   .     S
Cu38   O75     1.961   .     S
Cu38   O77     1.969   .     S
Cu38   N62     2.013   .     S
Cu38   O73     1.961   .     S
H41    N63     1.032   .     S
H45    N64     1.031   .     S
H49    O66     1.014   .     S
H51    O68     1.014   .     S
H52    O150    1.013   .     S
H53    O72     1.014   .     S
O70    H212    1.013   1_455 S
C81    C82     1.448   .     S
C81    O145    1.290   .     A
C81    O155    1.292   .     A
C82    C115    1.401   .     A
C82    C112    1.400   .     A
C83    N142    1.367   .     A
C83    H138    1.082   .     S
C83    C566    1.418   1_545 S
C84    N141    1.367   .     A
C84    H139    1.077   .     S
C84    C325    1.416   .     S
C85    H140    1.082   .     S
C85    N142    1.366   .     A
C85    C564    1.416   1_545 S
C86    N141    1.367   .     A
C86    H120    1.082   .     S
C86    C323    1.418   .     S
C87    O159    1.292   .     A
C87    O156    1.292   .     A
C87    C93     1.460   .     S
C88    O158    1.291   .     A
C88    O157    1.288   .     A
C88    C91     1.453   .     S
C89    C100    1.420   .     A
C89    C91     1.407   .     A
C89    N143    1.426   .     S
C90    C101    1.413   .     A
C90    N144    1.430   .     S
C90    C93     1.410   .     A
C91    C94     1.401   .     A
C92    O154    1.291   .     A
C92    C116    1.447   .     S
C92    O153    1.291   .     A
C93    C95     1.407   .     A
C94    C107    1.489   .     S
C94    C96     1.405   .     A
C95    C97     1.410   .     A
C95    C108    1.486   .     S
C96    C102    1.402   .     A
C96    C98     1.419   .     A
C97    C104    1.401   .     A
C97    C99     1.414   .     A
C98    C100    1.426   .     A
C98    C819    1.418   .     S
C99    C101    1.420   .     A
C99    C818    1.418   1_554 S
C100   C111    1.425   .     A
C101   C103    1.416   .     A
C102   H119    1.082   .     S
C102   C823    1.387   .     S
C103   C109    1.476   .     S
C103   C822    1.387   1_554 S
C104   H130    1.083   .     S
C104   C831    1.394   1_554 S
C105   H123    1.113   .     S
C105   N143    1.449   .     S
C105   H124    1.108   .     S
C105   H122    1.109   .     S
C106   N144    1.445   .     S
C106   H128    1.104   .     S
C106   H127    1.111   .     S
C106   H126    1.109   .     S
C107   O160    1.222   .     D
C107   O146    1.398   .     S
C108   O148    1.398   .     S
C108   O147    1.222   .     D
C109   O149    1.223   .     D
C109   O150    1.397   .     S
C110   O151    1.223   .     D
C110   C111    1.482   .     S
C110   O152    1.398   .     S
C111   C824    1.394   .     S
C112   H134    1.083   .     S
C113   H135    1.083   .     S
C113   C116    1.400   .     A
C113   C195    1.382   .     S
C114   H136    1.083   .     S
C114   C116    1.401   .     A
C114   C192    1.382   .     S
C115   H137    1.083   .     S
Cu117  O154    1.961   .     S
Cu117  O145    1.961   .     S
Cu117  Cu118   2.679   .     S
Cu117  O156    1.969   .     S
Cu117  N141    2.013   .     S
Cu117  O158    1.970   .     S
Cu118  O159    1.970   .     S
Cu118  O155    1.961   .     S
Cu118  O157    1.969   .     S
Cu118  N142    2.013   .     S
Cu118  O153    1.961   .     S
H121   N143    1.032   .     S
H125   N144    1.031   .     S
H129   O146    1.014   .     S
H131   O148    1.014   .     S
H132   O230    1.013   .     S
H133   O152    1.014   .     S
C161   C162    1.448   .     S
C161   O225    1.290   .     A
C161   O235    1.292   .     A
C162   C195    1.401   .     A
C162   C192    1.400   .     A
C163   N222    1.367   .     A
C163   H218    1.082   .     S
C163   C646    1.418   1_545 S
C164   N221    1.367   .     A
C164   H219    1.077   .     S
C164   C405    1.416   .     S
C165   H220    1.082   .     S
C165   N222    1.366   .     A
C165   C644    1.416   1_545 S
C166   N221    1.367   .     A
C166   H200    1.082   .     S
C166   C403    1.418   .     S
C167   O239    1.292   .     A
C167   O236    1.292   .     A
C167   C173    1.460   .     S
C168   O238    1.291   .     A
C168   O237    1.288   .     A
C168   C171    1.453   .     S
C169   C180    1.420   .     A
C169   C171    1.407   .     A
C169   N223    1.426   .     S
C170   C181    1.413   .     A
C170   N224    1.430   .     S
C170   C173    1.410   .     A
C171   C174    1.401   .     A
C172   O234    1.291   .     A
C172   C196    1.447   .     S
C172   O233    1.291   .     A
C173   C175    1.407   .     A
C174   C187    1.489   .     S
C174   C176    1.405   .     A
C175   C177    1.410   .     A
C175   C188    1.486   .     S
C176   C182    1.402   .     A
C176   C178    1.419   .     A
C177   C184    1.401   .     A
C177   C179    1.414   .     A
C178   C180    1.426   .     A
C178   C899    1.418   .     S
C179   C181    1.420   .     A
C179   C898    1.418   1_554 S
C180   C191    1.425   .     A
C181   C183    1.416   .     A
C182   H199    1.082   .     S
C182   C903    1.387   .     S
C183   C189    1.476   .     S
C183   C902    1.387   1_554 S
C184   H210    1.083   .     S
C184   C911    1.394   1_554 S
C185   H203    1.113   .     S
C185   N223    1.449   .     S
C185   H204    1.108   .     S
C185   H202    1.109   .     S
C186   N224    1.445   .     S
C186   H208    1.104   .     S
C186   H207    1.111   .     S
C186   H206    1.109   .     S
C187   O240    1.222   .     D
C187   O226    1.398   .     S
C188   O228    1.398   .     S
C188   O227    1.222   .     D
C189   O229    1.223   .     D
C189   O230    1.397   .     S
C190   O231    1.223   .     D
C190   C191    1.482   .     S
C190   O232    1.398   .     S
C191   C904    1.394   .     S
C192   H214    1.083   .     S
C193   H215    1.083   .     S
C193   C196    1.400   .     A
C193   C35     1.382   1_655 S
C194   H216    1.083   .     S
C194   C196    1.401   .     A
C194   C32     1.382   1_655 S
C195   H217    1.083   .     S
Cu197  O234    1.961   .     S
Cu197  O225    1.961   .     S
Cu197  Cu198   2.679   .     S
Cu197  O236    1.969   .     S
Cu197  N221    2.013   .     S
Cu197  O238    1.970   .     S
Cu198  O239    1.970   .     S
Cu198  O235    1.961   .     S
Cu198  O237    1.969   .     S
Cu198  N222    2.013   .     S
Cu198  O233    1.961   .     S
H201   N223    1.032   .     S
H205   N224    1.031   .     S
H209   O226    1.014   .     S
H211   O228    1.014   .     S
H212   O70     1.013   1_655 S
H213   O232    1.014   .     S
C241   C242    1.448   .     S
C241   O305    1.290   .     A
C241   O315    1.292   .     A
C242   C275    1.401   .     A
C242   C272    1.400   .     A
C243   N302    1.367   .     A
C243   H298    1.082   .     S
C244   N301    1.367   .     A
C244   H299    1.077   .     S
C244   C485    1.416   .     S
C245   H300    1.082   .     S
C245   N302    1.366   .     A
C246   N301    1.367   .     A
C246   H280    1.082   .     S
C246   C483    1.418   .     S
C247   O319    1.292   .     A
C247   O316    1.292   .     A
C247   C253    1.460   .     S
C248   O318    1.291   .     A
C248   O317    1.288   .     A
C248   C251    1.453   .     S
C249   C260    1.420   .     A
C249   C251    1.407   .     A
C249   N303    1.426   .     S
C250   C261    1.413   .     A
C250   N304    1.430   .     S
C250   C253    1.410   .     A
C251   C254    1.401   .     A
C252   O314    1.291   .     A
C252   C276    1.447   .     S
C252   O313    1.291   .     A
C253   C255    1.407   .     A
C254   C267    1.489   .     S
C254   C256    1.405   .     A
C255   C257    1.410   .     A
C255   C268    1.486   .     S
C256   C262    1.402   .     A
C256   C258    1.419   .     A
C257   C264    1.401   .     A
C257   C259    1.414   .     A
C258   C260    1.426   .     A
C258   C979    1.418   .     S
C259   C261    1.420   .     A
C259   C978    1.418   1_554 S
C260   C271    1.425   .     A
C261   C263    1.416   .     A
C262   H279    1.082   .     S
C262   C983    1.387   .     S
C263   C269    1.476   .     S
C263   C982    1.387   1_554 S
C264   H290    1.083   .     S
C264   C991    1.394   1_554 S
C265   H283    1.113   .     S
C265   N303    1.449   .     S
C265   H284    1.108   .     S
C265   H282    1.109   .     S
C266   N304    1.445   .     S
C266   H288    1.104   .     S
C266   H287    1.111   .     S
C266   H286    1.109   .     S
C267   O320    1.222   .     D
C267   O306    1.398   .     S
C268   O308    1.398   .     S
C268   O307    1.222   .     D
C269   O309    1.223   .     D
C269   O310    1.397   .     S
C270   O311    1.223   .     D
C270   C271    1.482   .     S
C270   O312    1.398   .     S
C271   C984    1.394   .     S
C272   H294    1.083   .     S
C272   C434    1.382   1_455 S
C273   H295    1.083   .     S
C273   C276    1.400   .     A
C273   C355    1.382   .     S
C274   H296    1.083   .     S
C274   C276    1.401   .     A
C274   C352    1.382   .     S
C275   H297    1.083   .     S
C275   C433    1.382   1_455 S
Cu277  O314    1.961   .     S
Cu277  O305    1.961   .     S
Cu277  Cu278   2.679   .     S
Cu277  O316    1.969   .     S
Cu277  N301    2.013   .     S
Cu277  O318    1.970   .     S
Cu278  O319    1.970   .     S
Cu278  O315    1.961   .     S
Cu278  O317    1.969   .     S
Cu278  N302    2.013   .     S
Cu278  O313    1.961   .     S
H281   N303    1.032   .     S
H285   N304    1.031   .     S
H289   O306    1.014   .     S
H291   O308    1.014   .     S
H292   O390    1.013   .     S
H293   O312    1.014   .     S
O310   H452    1.013   1_455 S
C321   C322    1.448   .     S
C321   O385    1.290   .     A
C321   O395    1.292   .     A
C322   C355    1.401   .     A
C322   C352    1.400   .     A
C323   N382    1.367   .     A
C323   H378    1.082   .     S
C324   N381    1.367   .     A
C324   H379    1.077   .     S
C324   C565    1.416   .     S
C325   H380    1.082   .     S
C325   N382    1.366   .     A
C326   N381    1.367   .     A
C326   H360    1.082   .     S
C326   C563    1.418   .     S
C327   O399    1.292   .     A
C327   O396    1.292   .     A
C327   C333    1.460   .     S
C328   O398    1.291   .     A
C328   O397    1.288   .     A
C328   C331    1.453   .     S
C329   C340    1.420   .     A
C329   C331    1.407   .     A
C329   N383    1.426   .     S
C330   C341    1.413   .     A
C330   N384    1.430   .     S
C330   C333    1.410   .     A
C331   C334    1.401   .     A
C332   O394    1.291   .     A
C332   C356    1.447   .     S
C332   O393    1.291   .     A
C333   C335    1.407   .     A
C334   C347    1.489   .     S
C334   C336    1.405   .     A
C335   C337    1.410   .     A
C335   C348    1.486   .     S
C336   C342    1.402   .     A
C336   C338    1.419   .     A
C337   C344    1.401   .     A
C337   C339    1.414   .     A
C338   C340    1.426   .     A
C338   C1059   1.418   .     S
C339   C341    1.420   .     A
C339   C1058   1.418   1_554 S
C340   C351    1.425   .     A
C341   C343    1.416   .     A
C342   H359    1.082   .     S
C342   C1063   1.387   .     S
C343   C349    1.476   .     S
C343   C1062   1.387   1_554 S
C344   H370    1.083   .     S
C344   C1071   1.394   1_554 S
C345   H363    1.113   .     S
C345   N383    1.449   .     S
C345   H364    1.108   .     S
C345   H362    1.109   .     S
C346   N384    1.445   .     S
C346   H368    1.104   .     S
C346   H367    1.111   .     S
C346   H366    1.109   .     S
C347   O400    1.222   .     D
C347   O386    1.398   .     S
C348   O388    1.398   .     S
C348   O387    1.222   .     D
C349   O389    1.223   .     D
C349   O390    1.397   .     S
C350   O391    1.223   .     D
C350   C351    1.482   .     S
C350   O392    1.398   .     S
C351   C1064   1.394   .     S
C352   H374    1.083   .     S
C353   H375    1.083   .     S
C353   C356    1.400   .     A
C353   C435    1.382   .     S
C354   H376    1.083   .     S
C354   C356    1.401   .     A
C354   C432    1.382   .     S
C355   H377    1.083   .     S
Cu357  O394    1.961   .     S
Cu357  O385    1.961   .     S
Cu357  Cu358   2.679   .     S
Cu357  O396    1.969   .     S
Cu357  N381    2.013   .     S
Cu357  O398    1.970   .     S
Cu358  O399    1.970   .     S
Cu358  O395    1.961   .     S
Cu358  O397    1.969   .     S
Cu358  N382    2.013   .     S
Cu358  O393    1.961   .     S
H361   N383    1.032   .     S
H365   N384    1.031   .     S
H369   O386    1.014   .     S
H371   O388    1.014   .     S
H372   O470    1.013   .     S
H373   O392    1.014   .     S
C401   C402    1.448   .     S
C401   O465    1.290   .     A
C401   O475    1.292   .     A
C402   C435    1.401   .     A
C402   C432    1.400   .     A
C403   N462    1.367   .     A
C403   H458    1.082   .     S
C404   N461    1.367   .     A
C404   H459    1.077   .     S
C404   C645    1.416   .     S
C405   H460    1.082   .     S
C405   N462    1.366   .     A
C406   N461    1.367   .     A
C406   H440    1.082   .     S
C406   C643    1.418   .     S
C407   O479    1.292   .     A
C407   O476    1.292   .     A
C407   C413    1.460   .     S
C408   O478    1.291   .     A
C408   O477    1.288   .     A
C408   C411    1.453   .     S
C409   C420    1.420   .     A
C409   C411    1.407   .     A
C409   N463    1.426   .     S
C410   C421    1.413   .     A
C410   N464    1.430   .     S
C410   C413    1.410   .     A
C411   C414    1.401   .     A
C412   O474    1.291   .     A
C412   C436    1.447   .     S
C412   O473    1.291   .     A
C413   C415    1.407   .     A
C414   C427    1.489   .     S
C414   C416    1.405   .     A
C415   C417    1.410   .     A
C415   C428    1.486   .     S
C416   C422    1.402   .     A
C416   C418    1.419   .     A
C417   C424    1.401   .     A
C417   C419    1.414   .     A
C418   C420    1.426   .     A
C418   C1139   1.418   .     S
C419   C421    1.420   .     A
C419   C1138   1.418   1_554 S
C420   C431    1.425   .     A
C421   C423    1.416   .     A
C422   H439    1.082   .     S
C422   C1143   1.387   .     S
C423   C429    1.476   .     S
C423   C1142   1.387   1_554 S
C424   H450    1.083   .     S
C424   C1151   1.394   1_554 S
C425   H443    1.113   .     S
C425   N463    1.449   .     S
C425   H444    1.108   .     S
C425   H442    1.109   .     S
C426   N464    1.445   .     S
C426   H448    1.104   .     S
C426   H447    1.111   .     S
C426   H446    1.109   .     S
C427   O480    1.222   .     D
C427   O466    1.398   .     S
C428   O468    1.398   .     S
C428   O467    1.222   .     D
C429   O469    1.223   .     D
C429   O470    1.397   .     S
C430   O471    1.223   .     D
C430   C431    1.482   .     S
C430   O472    1.398   .     S
C431   C1144   1.394   .     S
C432   H454    1.083   .     S
C433   H455    1.083   .     S
C433   C436    1.400   .     A
C433   C275    1.382   1_655 S
C434   H456    1.083   .     S
C434   C436    1.401   .     A
C434   C272    1.382   1_655 S
C435   H457    1.083   .     S
Cu437  O474    1.961   .     S
Cu437  O465    1.961   .     S
Cu437  Cu438   2.679   .     S
Cu437  O476    1.969   .     S
Cu437  N461    2.013   .     S
Cu437  O478    1.970   .     S
Cu438  O479    1.970   .     S
Cu438  O475    1.961   .     S
Cu438  O477    1.969   .     S
Cu438  N462    2.013   .     S
Cu438  O473    1.961   .     S
H441   N463    1.032   .     S
H445   N464    1.031   .     S
H449   O466    1.014   .     S
H451   O468    1.014   .     S
H452   O310    1.013   1_655 S
H453   O472    1.014   .     S
C481   C482    1.448   .     S
C481   O545    1.290   .     A
C481   O555    1.292   .     A
C482   C515    1.401   .     A
C482   C512    1.400   .     A
C483   N542    1.367   .     A
C483   H538    1.082   .     S
C484   N541    1.367   .     A
C484   H539    1.077   .     S
C484   C5      1.416   1_565 S
C485   H540    1.082   .     S
C485   N542    1.366   .     A
C486   N541    1.367   .     A
C486   H520    1.082   .     S
C486   C3      1.418   1_565 S
C487   O559    1.292   .     A
C487   O556    1.292   .     A
C487   C493    1.460   .     S
C488   O558    1.291   .     A
C488   O557    1.288   .     A
C488   C491    1.453   .     S
C489   C500    1.420   .     A
C489   C491    1.407   .     A
C489   N543    1.426   .     S
C490   C501    1.413   .     A
C490   N544    1.430   .     S
C490   C493    1.410   .     A
C491   C494    1.401   .     A
C492   O554    1.291   .     A
C492   C516    1.447   .     S
C492   O553    1.291   .     A
C493   C495    1.407   .     A
C494   C507    1.489   .     S
C494   C496    1.405   .     A
C495   C497    1.410   .     A
C495   C508    1.486   .     S
C496   C502    1.402   .     A
C496   C498    1.419   .     A
C497   C504    1.401   .     A
C497   C499    1.414   .     A
C498   C500    1.426   .     A
C498   C1219   1.418   .     S
C499   C501    1.420   .     A
C499   C1218   1.418   1_554 S
C500   C511    1.425   .     A
C501   C503    1.416   .     A
C502   H519    1.082   .     S
C502   C1223   1.387   .     S
C503   C509    1.476   .     S
C503   C1222   1.387   1_554 S
C504   H530    1.083   .     S
C504   C1231   1.394   1_554 S
C505   H523    1.113   .     S
C505   N543    1.449   .     S
C505   H524    1.108   .     S
C505   H522    1.109   .     S
C506   N544    1.445   .     S
C506   H528    1.104   .     S
C506   H527    1.111   .     S
C506   H526    1.109   .     S
C507   O560    1.222   .     D
C507   O546    1.398   .     S
C508   O548    1.398   .     S
C508   O547    1.222   .     D
C509   O549    1.223   .     D
C509   O550    1.397   .     S
C510   O551    1.223   .     D
C510   C511    1.482   .     S
C510   O552    1.398   .     S
C511   C1224   1.394   .     S
C512   H534    1.083   .     S
C512   C674    1.382   1_455 S
C513   H535    1.083   .     S
C513   C516    1.400   .     A
C513   C595    1.382   .     S
C514   H536    1.083   .     S
C514   C516    1.401   .     A
C514   C592    1.382   .     S
C515   H537    1.083   .     S
C515   C673    1.382   1_455 S
Cu517  O554    1.961   .     S
Cu517  O545    1.961   .     S
Cu517  Cu518   2.679   .     S
Cu517  O556    1.969   .     S
Cu517  N541    2.013   .     S
Cu517  O558    1.970   .     S
Cu518  O559    1.970   .     S
Cu518  O555    1.961   .     S
Cu518  O557    1.969   .     S
Cu518  N542    2.013   .     S
Cu518  O553    1.961   .     S
H521   N543    1.032   .     S
H525   N544    1.031   .     S
H529   O546    1.014   .     S
H531   O548    1.014   .     S
H532   O630    1.013   .     S
H533   O552    1.014   .     S
O550   H692    1.013   1_455 S
C561   C562    1.448   .     S
C561   O625    1.290   .     A
C561   O635    1.292   .     A
C562   C595    1.401   .     A
C562   C592    1.400   .     A
C563   N622    1.367   .     A
C563   H618    1.082   .     S
C564   N621    1.367   .     A
C564   H619    1.077   .     S
C564   C85     1.416   1_565 S
C565   H620    1.082   .     S
C565   N622    1.366   .     A
C566   N621    1.367   .     A
C566   H600    1.082   .     S
C566   C83     1.418   1_565 S
C567   O639    1.292   .     A
C567   O636    1.292   .     A
C567   C573    1.460   .     S
C568   O638    1.291   .     A
C568   O637    1.288   .     A
C568   C571    1.453   .     S
C569   C580    1.420   .     A
C569   C571    1.407   .     A
C569   N623    1.426   .     S
C570   C581    1.413   .     A
C570   N624    1.430   .     S
C570   C573    1.410   .     A
C571   C574    1.401   .     A
C572   O634    1.291   .     A
C572   C596    1.447   .     S
C572   O633    1.291   .     A
C573   C575    1.407   .     A
C574   C587    1.489   .     S
C574   C576    1.405   .     A
C575   C577    1.410   .     A
C575   C588    1.486   .     S
C576   C582    1.402   .     A
C576   C578    1.419   .     A
C577   C584    1.401   .     A
C577   C579    1.414   .     A
C578   C580    1.426   .     A
C578   C1299   1.418   .     S
C579   C581    1.420   .     A
C579   C1298   1.418   1_554 S
C580   C591    1.425   .     A
C581   C583    1.416   .     A
C582   H599    1.082   .     S
C582   C1303   1.387   .     S
C583   C589    1.476   .     S
C583   C1302   1.387   1_554 S
C584   H610    1.083   .     S
C584   C1311   1.394   1_554 S
C585   H603    1.113   .     S
C585   N623    1.449   .     S
C585   H604    1.108   .     S
C585   H602    1.109   .     S
C586   N624    1.445   .     S
C586   H608    1.104   .     S
C586   H607    1.111   .     S
C586   H606    1.109   .     S
C587   O640    1.222   .     D
C587   O626    1.398   .     S
C588   O628    1.398   .     S
C588   O627    1.222   .     D
C589   O629    1.223   .     D
C589   O630    1.397   .     S
C590   O631    1.223   .     D
C590   C591    1.482   .     S
C590   O632    1.398   .     S
C591   C1304   1.394   .     S
C592   H614    1.083   .     S
C593   H615    1.083   .     S
C593   C596    1.400   .     A
C593   C675    1.382   .     S
C594   H616    1.083   .     S
C594   C596    1.401   .     A
C594   C672    1.382   .     S
C595   H617    1.083   .     S
Cu597  O634    1.961   .     S
Cu597  O625    1.961   .     S
Cu597  Cu598   2.679   .     S
Cu597  O636    1.969   .     S
Cu597  N621    2.013   .     S
Cu597  O638    1.970   .     S
Cu598  O639    1.970   .     S
Cu598  O635    1.961   .     S
Cu598  O637    1.969   .     S
Cu598  N622    2.013   .     S
Cu598  O633    1.961   .     S
H601   N623    1.032   .     S
H605   N624    1.031   .     S
H609   O626    1.014   .     S
H611   O628    1.014   .     S
H612   O710    1.013   .     S
H613   O632    1.014   .     S
C641   C642    1.448   .     S
C641   O705    1.290   .     A
C641   O715    1.292   .     A
C642   C675    1.401   .     A
C642   C672    1.400   .     A
C643   N702    1.367   .     A
C643   H698    1.082   .     S
C644   N701    1.367   .     A
C644   H699    1.077   .     S
C644   C165    1.416   1_565 S
C645   H700    1.082   .     S
C645   N702    1.366   .     A
C646   N701    1.367   .     A
C646   H680    1.082   .     S
C646   C163    1.418   1_565 S
C647   O719    1.292   .     A
C647   O716    1.292   .     A
C647   C653    1.460   .     S
C648   O718    1.291   .     A
C648   O717    1.288   .     A
C648   C651    1.453   .     S
C649   C660    1.420   .     A
C649   C651    1.407   .     A
C649   N703    1.426   .     S
C650   C661    1.413   .     A
C650   N704    1.430   .     S
C650   C653    1.410   .     A
C651   C654    1.401   .     A
C652   O714    1.291   .     A
C652   C676    1.447   .     S
C652   O713    1.291   .     A
C653   C655    1.407   .     A
C654   C667    1.489   .     S
C654   C656    1.405   .     A
C655   C657    1.410   .     A
C655   C668    1.486   .     S
C656   C662    1.402   .     A
C656   C658    1.419   .     A
C657   C664    1.401   .     A
C657   C659    1.414   .     A
C658   C660    1.426   .     A
C658   C1379   1.418   .     S
C659   C661    1.420   .     A
C659   C1378   1.418   1_554 S
C660   C671    1.425   .     A
C661   C663    1.416   .     A
C662   H679    1.082   .     S
C662   C1383   1.387   .     S
C663   C669    1.476   .     S
C663   C1382   1.387   1_554 S
C664   H690    1.083   .     S
C664   C1391   1.394   1_554 S
C665   H683    1.113   .     S
C665   N703    1.449   .     S
C665   H684    1.108   .     S
C665   H682    1.109   .     S
C666   N704    1.445   .     S
C666   H688    1.104   .     S
C666   H687    1.111   .     S
C666   H686    1.109   .     S
C667   O720    1.222   .     D
C667   O706    1.398   .     S
C668   O708    1.398   .     S
C668   O707    1.222   .     D
C669   O709    1.223   .     D
C669   O710    1.397   .     S
C670   O711    1.223   .     D
C670   C671    1.482   .     S
C670   O712    1.398   .     S
C671   C1384   1.394   .     S
C672   H694    1.083   .     S
C673   H695    1.083   .     S
C673   C676    1.400   .     A
C673   C515    1.382   1_655 S
C674   H696    1.083   .     S
C674   C676    1.401   .     A
C674   C512    1.382   1_655 S
C675   H697    1.083   .     S
Cu677  O714    1.961   .     S
Cu677  O705    1.961   .     S
Cu677  Cu678   2.679   .     S
Cu677  O716    1.969   .     S
Cu677  N701    2.013   .     S
Cu677  O718    1.970   .     S
Cu678  O719    1.970   .     S
Cu678  O715    1.961   .     S
Cu678  O717    1.969   .     S
Cu678  N702    2.013   .     S
Cu678  O713    1.961   .     S
H681   N703    1.032   .     S
H685   N704    1.031   .     S
H689   O706    1.014   .     S
H691   O708    1.014   .     S
H692   O550    1.013   1_655 S
H693   O712    1.014   .     S
C721   C722    1.448   .     S
C721   O785    1.290   .     A
C721   O795    1.292   .     A
C722   C755    1.401   .     A
C722   C752    1.400   .     A
C723   N782    1.367   .     A
C723   H778    1.082   .     S
C723   C1206   1.418   1_545 S
C724   N781    1.367   .     A
C724   H779    1.077   .     S
C724   C965    1.416   .     S
C725   H780    1.082   .     S
C725   N782    1.366   .     A
C725   C1204   1.416   1_545 S
C726   N781    1.367   .     A
C726   H760    1.082   .     S
C726   C963    1.418   .     S
C727   O799    1.292   .     A
C727   O796    1.292   .     A
C727   C733    1.460   .     S
C728   O798    1.291   .     A
C728   O797    1.288   .     A
C728   C731    1.453   .     S
C729   C740    1.420   .     A
C729   C731    1.407   .     A
C729   N783    1.426   .     S
C730   C741    1.413   .     A
C730   N784    1.430   .     S
C730   C733    1.410   .     A
C731   C734    1.401   .     A
C732   O794    1.291   .     A
C732   C756    1.447   .     S
C732   O793    1.291   .     A
C733   C735    1.407   .     A
C734   C747    1.489   .     S
C734   C736    1.405   .     A
C735   C737    1.410   .     A
C735   C748    1.486   .     S
C736   C742    1.402   .     A
C736   C738    1.419   .     A
C737   C744    1.401   .     A
C737   C739    1.414   .     A
C738   C740    1.426   .     A
C738   C19     1.418   1_556 S
C739   C741    1.420   .     A
C740   C751    1.425   .     A
C741   C743    1.416   .     A
C742   H759    1.082   .     S
C742   C23     1.387   1_556 S
C743   C749    1.476   .     S
C744   H770    1.083   .     S
C745   H763    1.113   .     S
C745   N783    1.449   .     S
C745   H764    1.108   .     S
C745   H762    1.109   .     S
C746   N784    1.445   .     S
C746   H768    1.104   .     S
C746   H767    1.111   .     S
C746   H766    1.109   .     S
C747   O800    1.222   .     D
C747   O786    1.398   .     S
C748   O788    1.398   .     S
C748   O787    1.222   .     D
C749   O789    1.223   .     D
C749   O790    1.397   .     S
C750   O791    1.223   .     D
C750   C751    1.482   .     S
C750   O792    1.398   .     S
C751   C24     1.394   1_556 S
C752   H774    1.083   .     S
C752   C914    1.382   1_455 S
C753   H775    1.083   .     S
C753   C756    1.400   .     A
C753   C835    1.382   .     S
C754   H776    1.083   .     S
C754   C756    1.401   .     A
C754   C832    1.382   .     S
C755   H777    1.083   .     S
C755   C913    1.382   1_455 S
Cu757  O794    1.961   .     S
Cu757  O785    1.961   .     S
Cu757  Cu758   2.679   .     S
Cu757  O796    1.969   .     S
Cu757  N781    2.013   .     S
Cu757  O798    1.970   .     S
Cu758  O799    1.970   .     S
Cu758  O795    1.961   .     S
Cu758  O797    1.969   .     S
Cu758  N782    2.013   .     S
Cu758  O793    1.961   .     S
H761   N783    1.032   .     S
H765   N784    1.031   .     S
H769   O786    1.014   .     S
H771   O788    1.014   .     S
H772   O870    1.013   .     S
H773   O792    1.014   .     S
O790   H932    1.013   1_455 S
C801   C802    1.448   .     S
C801   O865    1.290   .     A
C801   O875    1.292   .     A
C802   C835    1.401   .     A
C802   C832    1.400   .     A
C803   N862    1.367   .     A
C803   H858    1.082   .     S
C803   C1286   1.418   1_545 S
C804   N861    1.367   .     A
C804   H859    1.077   .     S
C804   C1045   1.416   .     S
C805   H860    1.082   .     S
C805   N862    1.366   .     A
C805   C1284   1.416   1_545 S
C806   N861    1.367   .     A
C806   H840    1.082   .     S
C806   C1043   1.418   .     S
C807   O879    1.292   .     A
C807   O876    1.292   .     A
C807   C813    1.460   .     S
C808   O878    1.291   .     A
C808   O877    1.288   .     A
C808   C811    1.453   .     S
C809   C820    1.420   .     A
C809   C811    1.407   .     A
C809   N863    1.426   .     S
C810   C821    1.413   .     A
C810   N864    1.430   .     S
C810   C813    1.410   .     A
C811   C814    1.401   .     A
C812   O874    1.291   .     A
C812   C836    1.447   .     S
C812   O873    1.291   .     A
C813   C815    1.407   .     A
C814   C827    1.489   .     S
C814   C816    1.405   .     A
C815   C817    1.410   .     A
C815   C828    1.486   .     S
C816   C822    1.402   .     A
C816   C818    1.419   .     A
C817   C824    1.401   .     A
C817   C819    1.414   .     A
C818   C820    1.426   .     A
C818   C99     1.418   1_556 S
C819   C821    1.420   .     A
C820   C831    1.425   .     A
C821   C823    1.416   .     A
C822   H839    1.082   .     S
C822   C103    1.387   1_556 S
C823   C829    1.476   .     S
C824   H850    1.083   .     S
C825   H843    1.113   .     S
C825   N863    1.449   .     S
C825   H844    1.108   .     S
C825   H842    1.109   .     S
C826   N864    1.445   .     S
C826   H848    1.104   .     S
C826   H847    1.111   .     S
C826   H846    1.109   .     S
C827   O880    1.222   .     D
C827   O866    1.398   .     S
C828   O868    1.398   .     S
C828   O867    1.222   .     D
C829   O869    1.223   .     D
C829   O870    1.397   .     S
C830   O871    1.223   .     D
C830   C831    1.482   .     S
C830   O872    1.398   .     S
C831   C104    1.394   1_556 S
C832   H854    1.083   .     S
C833   H855    1.083   .     S
C833   C836    1.400   .     A
C833   C915    1.382   .     S
C834   H856    1.083   .     S
C834   C836    1.401   .     A
C834   C912    1.382   .     S
C835   H857    1.083   .     S
Cu837  O874    1.961   .     S
Cu837  O865    1.961   .     S
Cu837  Cu838   2.679   .     S
Cu837  O876    1.969   .     S
Cu837  N861    2.013   .     S
Cu837  O878    1.970   .     S
Cu838  O879    1.970   .     S
Cu838  O875    1.961   .     S
Cu838  O877    1.969   .     S
Cu838  N862    2.013   .     S
Cu838  O873    1.961   .     S
H841   N863    1.032   .     S
H845   N864    1.031   .     S
H849   O866    1.014   .     S
H851   O868    1.014   .     S
H852   O950    1.013   .     S
H853   O872    1.014   .     S
C881   C882    1.448   .     S
C881   O945    1.290   .     A
C881   O955    1.292   .     A
C882   C915    1.401   .     A
C882   C912    1.400   .     A
C883   N942    1.367   .     A
C883   H938    1.082   .     S
C883   C1366   1.418   1_545 S
C884   N941    1.367   .     A
C884   H939    1.077   .     S
C884   C1125   1.416   .     S
C885   H940    1.082   .     S
C885   N942    1.366   .     A
C885   C1364   1.416   1_545 S
C886   N941    1.367   .     A
C886   H920    1.082   .     S
C886   C1123   1.418   .     S
C887   O959    1.292   .     A
C887   O956    1.292   .     A
C887   C893    1.460   .     S
C888   O958    1.291   .     A
C888   O957    1.288   .     A
C888   C891    1.453   .     S
C889   C900    1.420   .     A
C889   C891    1.407   .     A
C889   N943    1.426   .     S
C890   C901    1.413   .     A
C890   N944    1.430   .     S
C890   C893    1.410   .     A
C891   C894    1.401   .     A
C892   O954    1.291   .     A
C892   C916    1.447   .     S
C892   O953    1.291   .     A
C893   C895    1.407   .     A
C894   C907    1.489   .     S
C894   C896    1.405   .     A
C895   C897    1.410   .     A
C895   C908    1.486   .     S
C896   C902    1.402   .     A
C896   C898    1.419   .     A
C897   C904    1.401   .     A
C897   C899    1.414   .     A
C898   C900    1.426   .     A
C898   C179    1.418   1_556 S
C899   C901    1.420   .     A
C900   C911    1.425   .     A
C901   C903    1.416   .     A
C902   H919    1.082   .     S
C902   C183    1.387   1_556 S
C903   C909    1.476   .     S
C904   H930    1.083   .     S
C905   H923    1.113   .     S
C905   N943    1.449   .     S
C905   H924    1.108   .     S
C905   H922    1.109   .     S
C906   N944    1.445   .     S
C906   H928    1.104   .     S
C906   H927    1.111   .     S
C906   H926    1.109   .     S
C907   O960    1.222   .     D
C907   O946    1.398   .     S
C908   O948    1.398   .     S
C908   O947    1.222   .     D
C909   O949    1.223   .     D
C909   O950    1.397   .     S
C910   O951    1.223   .     D
C910   C911    1.482   .     S
C910   O952    1.398   .     S
C911   C184    1.394   1_556 S
C912   H934    1.083   .     S
C913   H935    1.083   .     S
C913   C916    1.400   .     A
C913   C755    1.382   1_655 S
C914   H936    1.083   .     S
C914   C916    1.401   .     A
C914   C752    1.382   1_655 S
C915   H937    1.083   .     S
Cu917  O954    1.961   .     S
Cu917  O945    1.961   .     S
Cu917  Cu918   2.679   .     S
Cu917  O956    1.969   .     S
Cu917  N941    2.013   .     S
Cu917  O958    1.970   .     S
Cu918  O959    1.970   .     S
Cu918  O955    1.961   .     S
Cu918  O957    1.969   .     S
Cu918  N942    2.013   .     S
Cu918  O953    1.961   .     S
H921   N943    1.032   .     S
H925   N944    1.031   .     S
H929   O946    1.014   .     S
H931   O948    1.014   .     S
H932   O790    1.013   1_655 S
H933   O952    1.014   .     S
C961   C962    1.448   .     S
C961   O1025   1.290   .     A
C961   O1035   1.292   .     A
C962   C995    1.401   .     A
C962   C992    1.400   .     A
C963   N1022   1.367   .     A
C963   H1018   1.082   .     S
C964   N1021   1.367   .     A
C964   H1019   1.077   .     S
C964   C1205   1.416   .     S
C965   H1020   1.082   .     S
C965   N1022   1.366   .     A
C966   N1021   1.367   .     A
C966   H1000   1.082   .     S
C966   C1203   1.418   .     S
C967   O1039   1.292   .     A
C967   O1036   1.292   .     A
C967   C973    1.460   .     S
C968   O1038   1.291   .     A
C968   O1037   1.288   .     A
C968   C971    1.453   .     S
C969   C980    1.420   .     A
C969   C971    1.407   .     A
C969   N1023   1.426   .     S
C970   C981    1.413   .     A
C970   N1024   1.430   .     S
C970   C973    1.410   .     A
C971   C974    1.401   .     A
C972   O1034   1.291   .     A
C972   C996    1.447   .     S
C972   O1033   1.291   .     A
C973   C975    1.407   .     A
C974   C987    1.489   .     S
C974   C976    1.405   .     A
C975   C977    1.410   .     A
C975   C988    1.486   .     S
C976   C982    1.402   .     A
C976   C978    1.419   .     A
C977   C984    1.401   .     A
C977   C979    1.414   .     A
C978   C980    1.426   .     A
C978   C259    1.418   1_556 S
C979   C981    1.420   .     A
C980   C991    1.425   .     A
C981   C983    1.416   .     A
C982   H999    1.082   .     S
C982   C263    1.387   1_556 S
C983   C989    1.476   .     S
C984   H1010   1.083   .     S
C985   H1003   1.113   .     S
C985   N1023   1.449   .     S
C985   H1004   1.108   .     S
C985   H1002   1.109   .     S
C986   N1024   1.445   .     S
C986   H1008   1.104   .     S
C986   H1007   1.111   .     S
C986   H1006   1.109   .     S
C987   O1040   1.222   .     D
C987   O1026   1.398   .     S
C988   O1028   1.398   .     S
C988   O1027   1.222   .     D
C989   O1029   1.223   .     D
C989   O1030   1.397   .     S
C990   O1031   1.223   .     D
C990   C991    1.482   .     S
C990   O1032   1.398   .     S
C991   C264    1.394   1_556 S
C992   H1014   1.083   .     S
C992   C1154   1.382   1_455 S
C993   H1015   1.083   .     S
C993   C996    1.400   .     A
C993   C1075   1.382   .     S
C994   H1016   1.083   .     S
C994   C996    1.401   .     A
C994   C1072   1.382   .     S
C995   H1017   1.083   .     S
C995   C1153   1.382   1_455 S
Cu997  O1034   1.961   .     S
Cu997  O1025   1.961   .     S
Cu997  Cu998   2.679   .     S
Cu997  O1036   1.969   .     S
Cu997  N1021   2.013   .     S
Cu997  O1038   1.970   .     S
Cu998  O1039   1.970   .     S
Cu998  O1035   1.961   .     S
Cu998  O1037   1.969   .     S
Cu998  N1022   2.013   .     S
Cu998  O1033   1.961   .     S
H1001  N1023   1.032   .     S
H1005  N1024   1.031   .     S
H1009  O1026   1.014   .     S
H1011  O1028   1.014   .     S
H1012  O1110   1.013   .     S
H1013  O1032   1.014   .     S
O1030  H1172   1.013   1_455 S
C1041  C1042   1.448   .     S
C1041  O1105   1.290   .     A
C1041  O1115   1.292   .     A
C1042  C1075   1.401   .     A
C1042  C1072   1.400   .     A
C1043  N1102   1.367   .     A
C1043  H1098   1.082   .     S
C1044  N1101   1.367   .     A
C1044  H1099   1.077   .     S
C1044  C1285   1.416   .     S
C1045  H1100   1.082   .     S
C1045  N1102   1.366   .     A
C1046  N1101   1.367   .     A
C1046  H1080   1.082   .     S
C1046  C1283   1.418   .     S
C1047  O1119   1.292   .     A
C1047  O1116   1.292   .     A
C1047  C1053   1.460   .     S
C1048  O1118   1.291   .     A
C1048  O1117   1.288   .     A
C1048  C1051   1.453   .     S
C1049  C1060   1.420   .     A
C1049  C1051   1.407   .     A
C1049  N1103   1.426   .     S
C1050  C1061   1.413   .     A
C1050  N1104   1.430   .     S
C1050  C1053   1.410   .     A
C1051  C1054   1.401   .     A
C1052  O1114   1.291   .     A
C1052  C1076   1.447   .     S
C1052  O1113   1.291   .     A
C1053  C1055   1.407   .     A
C1054  C1067   1.489   .     S
C1054  C1056   1.405   .     A
C1055  C1057   1.410   .     A
C1055  C1068   1.486   .     S
C1056  C1062   1.402   .     A
C1056  C1058   1.419   .     A
C1057  C1064   1.401   .     A
C1057  C1059   1.414   .     A
C1058  C1060   1.426   .     A
C1058  C339    1.418   1_556 S
C1059  C1061   1.420   .     A
C1060  C1071   1.425   .     A
C1061  C1063   1.416   .     A
C1062  H1079   1.082   .     S
C1062  C343    1.387   1_556 S
C1063  C1069   1.476   .     S
C1064  H1090   1.083   .     S
C1065  H1083   1.113   .     S
C1065  N1103   1.449   .     S
C1065  H1084   1.108   .     S
C1065  H1082   1.109   .     S
C1066  N1104   1.445   .     S
C1066  H1088   1.104   .     S
C1066  H1087   1.111   .     S
C1066  H1086   1.109   .     S
C1067  O1120   1.222   .     D
C1067  O1106   1.398   .     S
C1068  O1108   1.398   .     S
C1068  O1107   1.222   .     D
C1069  O1109   1.223   .     D
C1069  O1110   1.397   .     S
C1070  O1111   1.223   .     D
C1070  C1071   1.482   .     S
C1070  O1112   1.398   .     S
C1071  C344    1.394   1_556 S
C1072  H1094   1.083   .     S
C1073  H1095   1.083   .     S
C1073  C1076   1.400   .     A
C1073  C1155   1.382   .     S
C1074  H1096   1.083   .     S
C1074  C1076   1.401   .     A
C1074  C1152   1.382   .     S
C1075  H1097   1.083   .     S
Cu1077 O1114   1.961   .     S
Cu1077 O1105   1.961   .     S
Cu1077 Cu1078  2.679   .     S
Cu1077 O1116   1.969   .     S
Cu1077 N1101   2.013   .     S
Cu1077 O1118   1.970   .     S
Cu1078 O1119   1.970   .     S
Cu1078 O1115   1.961   .     S
Cu1078 O1117   1.969   .     S
Cu1078 N1102   2.013   .     S
Cu1078 O1113   1.961   .     S
H1081  N1103   1.032   .     S
H1085  N1104   1.031   .     S
H1089  O1106   1.014   .     S
H1091  O1108   1.014   .     S
H1092  O1190   1.013   .     S
H1093  O1112   1.014   .     S
C1121  C1122   1.448   .     S
C1121  O1185   1.290   .     A
C1121  O1195   1.292   .     A
C1122  C1155   1.401   .     A
C1122  C1152   1.400   .     A
C1123  N1182   1.367   .     A
C1123  H1178   1.082   .     S
C1124  N1181   1.367   .     A
C1124  H1179   1.077   .     S
C1124  C1365   1.416   .     S
C1125  H1180   1.082   .     S
C1125  N1182   1.366   .     A
C1126  N1181   1.367   .     A
C1126  H1160   1.082   .     S
C1126  C1363   1.418   .     S
C1127  O1199   1.292   .     A
C1127  O1196   1.292   .     A
C1127  C1133   1.460   .     S
C1128  O1198   1.291   .     A
C1128  O1197   1.288   .     A
C1128  C1131   1.453   .     S
C1129  C1140   1.420   .     A
C1129  C1131   1.407   .     A
C1129  N1183   1.426   .     S
C1130  C1141   1.413   .     A
C1130  N1184   1.430   .     S
C1130  C1133   1.410   .     A
C1131  C1134   1.401   .     A
C1132  O1194   1.291   .     A
C1132  C1156   1.447   .     S
C1132  O1193   1.291   .     A
C1133  C1135   1.407   .     A
C1134  C1147   1.489   .     S
C1134  C1136   1.405   .     A
C1135  C1137   1.410   .     A
C1135  C1148   1.486   .     S
C1136  C1142   1.402   .     A
C1136  C1138   1.419   .     A
C1137  C1144   1.401   .     A
C1137  C1139   1.414   .     A
C1138  C1140   1.426   .     A
C1138  C419    1.418   1_556 S
C1139  C1141   1.420   .     A
C1140  C1151   1.425   .     A
C1141  C1143   1.416   .     A
C1142  H1159   1.082   .     S
C1142  C423    1.387   1_556 S
C1143  C1149   1.476   .     S
C1144  H1170   1.083   .     S
C1145  H1163   1.113   .     S
C1145  N1183   1.449   .     S
C1145  H1164   1.108   .     S
C1145  H1162   1.109   .     S
C1146  N1184   1.445   .     S
C1146  H1168   1.104   .     S
C1146  H1167   1.111   .     S
C1146  H1166   1.109   .     S
C1147  O1200   1.222   .     D
C1147  O1186   1.398   .     S
C1148  O1188   1.398   .     S
C1148  O1187   1.222   .     D
C1149  O1189   1.223   .     D
C1149  O1190   1.397   .     S
C1150  O1191   1.223   .     D
C1150  C1151   1.482   .     S
C1150  O1192   1.398   .     S
C1151  C424    1.394   1_556 S
C1152  H1174   1.083   .     S
C1153  H1175   1.083   .     S
C1153  C1156   1.400   .     A
C1153  C995    1.382   1_655 S
C1154  H1176   1.083   .     S
C1154  C1156   1.401   .     A
C1154  C992    1.382   1_655 S
C1155  H1177   1.083   .     S
Cu1157 O1194   1.961   .     S
Cu1157 O1185   1.961   .     S
Cu1157 Cu1158  2.679   .     S
Cu1157 O1196   1.969   .     S
Cu1157 N1181   2.013   .     S
Cu1157 O1198   1.970   .     S
Cu1158 O1199   1.970   .     S
Cu1158 O1195   1.961   .     S
Cu1158 O1197   1.969   .     S
Cu1158 N1182   2.013   .     S
Cu1158 O1193   1.961   .     S
H1161  N1183   1.032   .     S
H1165  N1184   1.031   .     S
H1169  O1186   1.014   .     S
H1171  O1188   1.014   .     S
H1172  O1030   1.013   1_655 S
H1173  O1192   1.014   .     S
C1201  C1202   1.448   .     S
C1201  O1265   1.290   .     A
C1201  O1275   1.292   .     A
C1202  C1235   1.401   .     A
C1202  C1232   1.400   .     A
C1203  N1262   1.367   .     A
C1203  H1258   1.082   .     S
C1204  N1261   1.367   .     A
C1204  H1259   1.077   .     S
C1204  C725    1.416   1_565 S
C1205  H1260   1.082   .     S
C1205  N1262   1.366   .     A
C1206  N1261   1.367   .     A
C1206  H1240   1.082   .     S
C1206  C723    1.418   1_565 S
C1207  O1279   1.292   .     A
C1207  O1276   1.292   .     A
C1207  C1213   1.460   .     S
C1208  O1278   1.291   .     A
C1208  O1277   1.288   .     A
C1208  C1211   1.453   .     S
C1209  C1220   1.420   .     A
C1209  C1211   1.407   .     A
C1209  N1263   1.426   .     S
C1210  C1221   1.413   .     A
C1210  N1264   1.430   .     S
C1210  C1213   1.410   .     A
C1211  C1214   1.401   .     A
C1212  O1274   1.291   .     A
C1212  C1236   1.447   .     S
C1212  O1273   1.291   .     A
C1213  C1215   1.407   .     A
C1214  C1227   1.489   .     S
C1214  C1216   1.405   .     A
C1215  C1217   1.410   .     A
C1215  C1228   1.486   .     S
C1216  C1222   1.402   .     A
C1216  C1218   1.419   .     A
C1217  C1224   1.401   .     A
C1217  C1219   1.414   .     A
C1218  C1220   1.426   .     A
C1218  C499    1.418   1_556 S
C1219  C1221   1.420   .     A
C1220  C1231   1.425   .     A
C1221  C1223   1.416   .     A
C1222  H1239   1.082   .     S
C1222  C503    1.387   1_556 S
C1223  C1229   1.476   .     S
C1224  H1250   1.083   .     S
C1225  H1243   1.113   .     S
C1225  N1263   1.449   .     S
C1225  H1244   1.108   .     S
C1225  H1242   1.109   .     S
C1226  N1264   1.445   .     S
C1226  H1248   1.104   .     S
C1226  H1247   1.111   .     S
C1226  H1246   1.109   .     S
C1227  O1280   1.222   .     D
C1227  O1266   1.398   .     S
C1228  O1268   1.398   .     S
C1228  O1267   1.222   .     D
C1229  O1269   1.223   .     D
C1229  O1270   1.397   .     S
C1230  O1271   1.223   .     D
C1230  C1231   1.482   .     S
C1230  O1272   1.398   .     S
C1231  C504    1.394   1_556 S
C1232  H1254   1.083   .     S
C1232  C1394   1.382   1_455 S
C1233  H1255   1.083   .     S
C1233  C1236   1.400   .     A
C1233  C1315   1.382   .     S
C1234  H1256   1.083   .     S
C1234  C1236   1.401   .     A
C1234  C1312   1.382   .     S
C1235  H1257   1.083   .     S
C1235  C1393   1.382   1_455 S
Cu1237 O1274   1.961   .     S
Cu1237 O1265   1.961   .     S
Cu1237 Cu1238  2.679   .     S
Cu1237 O1276   1.969   .     S
Cu1237 N1261   2.013   .     S
Cu1237 O1278   1.970   .     S
Cu1238 O1279   1.970   .     S
Cu1238 O1275   1.961   .     S
Cu1238 O1277   1.969   .     S
Cu1238 N1262   2.013   .     S
Cu1238 O1273   1.961   .     S
H1241  N1263   1.032   .     S
H1245  N1264   1.031   .     S
H1249  O1266   1.014   .     S
H1251  O1268   1.014   .     S
H1252  O1350   1.013   .     S
H1253  O1272   1.014   .     S
O1270  H1412   1.013   1_455 S
C1281  C1282   1.448   .     S
C1281  O1345   1.290   .     A
C1281  O1355   1.292   .     A
C1282  C1315   1.401   .     A
C1282  C1312   1.400   .     A
C1283  N1342   1.367   .     A
C1283  H1338   1.082   .     S
C1284  N1341   1.367   .     A
C1284  H1339   1.077   .     S
C1284  C805    1.416   1_565 S
C1285  H1340   1.082   .     S
C1285  N1342   1.366   .     A
C1286  N1341   1.367   .     A
C1286  H1320   1.082   .     S
C1286  C803    1.418   1_565 S
C1287  O1359   1.292   .     A
C1287  O1356   1.292   .     A
C1287  C1293   1.460   .     S
C1288  O1358   1.291   .     A
C1288  O1357   1.288   .     A
C1288  C1291   1.453   .     S
C1289  C1300   1.420   .     A
C1289  C1291   1.407   .     A
C1289  N1343   1.426   .     S
C1290  C1301   1.413   .     A
C1290  N1344   1.430   .     S
C1290  C1293   1.410   .     A
C1291  C1294   1.401   .     A
C1292  O1354   1.291   .     A
C1292  C1316   1.447   .     S
C1292  O1353   1.291   .     A
C1293  C1295   1.407   .     A
C1294  C1307   1.489   .     S
C1294  C1296   1.405   .     A
C1295  C1297   1.410   .     A
C1295  C1308   1.486   .     S
C1296  C1302   1.402   .     A
C1296  C1298   1.419   .     A
C1297  C1304   1.401   .     A
C1297  C1299   1.414   .     A
C1298  C1300   1.426   .     A
C1298  C579    1.418   1_556 S
C1299  C1301   1.420   .     A
C1300  C1311   1.425   .     A
C1301  C1303   1.416   .     A
C1302  H1319   1.082   .     S
C1302  C583    1.387   1_556 S
C1303  C1309   1.476   .     S
C1304  H1330   1.083   .     S
C1305  H1323   1.113   .     S
C1305  N1343   1.449   .     S
C1305  H1324   1.108   .     S
C1305  H1322   1.109   .     S
C1306  N1344   1.445   .     S
C1306  H1328   1.104   .     S
C1306  H1327   1.111   .     S
C1306  H1326   1.109   .     S
C1307  O1360   1.222   .     D
C1307  O1346   1.398   .     S
C1308  O1348   1.398   .     S
C1308  O1347   1.222   .     D
C1309  O1349   1.223   .     D
C1309  O1350   1.397   .     S
C1310  O1351   1.223   .     D
C1310  C1311   1.482   .     S
C1310  O1352   1.398   .     S
C1311  C584    1.394   1_556 S
C1312  H1334   1.083   .     S
C1313  H1335   1.083   .     S
C1313  C1316   1.400   .     A
C1313  C1395   1.382   .     S
C1314  H1336   1.083   .     S
C1314  C1316   1.401   .     A
C1314  C1392   1.382   .     S
C1315  H1337   1.083   .     S
Cu1317 O1354   1.961   .     S
Cu1317 O1345   1.961   .     S
Cu1317 Cu1318  2.679   .     S
Cu1317 O1356   1.969   .     S
Cu1317 N1341   2.013   .     S
Cu1317 O1358   1.970   .     S
Cu1318 O1359   1.970   .     S
Cu1318 O1355   1.961   .     S
Cu1318 O1357   1.969   .     S
Cu1318 N1342   2.013   .     S
Cu1318 O1353   1.961   .     S
H1321  N1343   1.032   .     S
H1325  N1344   1.031   .     S
H1329  O1346   1.014   .     S
H1331  O1348   1.014   .     S
H1332  O1430   1.013   .     S
H1333  O1352   1.014   .     S
C1361  C1362   1.448   .     S
C1361  O1425   1.290   .     A
C1361  O1435   1.292   .     A
C1362  C1395   1.401   .     A
C1362  C1392   1.400   .     A
C1363  N1422   1.367   .     A
C1363  H1418   1.082   .     S
C1364  N1421   1.367   .     A
C1364  H1419   1.077   .     S
C1364  C885    1.416   1_565 S
C1365  H1420   1.082   .     S
C1365  N1422   1.366   .     A
C1366  N1421   1.367   .     A
C1366  H1400   1.082   .     S
C1366  C883    1.418   1_565 S
C1367  O1439   1.292   .     A
C1367  O1436   1.292   .     A
C1367  C1373   1.460   .     S
C1368  O1438   1.291   .     A
C1368  O1437   1.288   .     A
C1368  C1371   1.453   .     S
C1369  C1380   1.420   .     A
C1369  C1371   1.407   .     A
C1369  N1423   1.426   .     S
C1370  C1381   1.413   .     A
C1370  N1424   1.430   .     S
C1370  C1373   1.410   .     A
C1371  C1374   1.401   .     A
C1372  O1434   1.291   .     A
C1372  C1396   1.447   .     S
C1372  O1433   1.291   .     A
C1373  C1375   1.407   .     A
C1374  C1387   1.489   .     S
C1374  C1376   1.405   .     A
C1375  C1377   1.410   .     A
C1375  C1388   1.486   .     S
C1376  C1382   1.402   .     A
C1376  C1378   1.419   .     A
C1377  C1384   1.401   .     A
C1377  C1379   1.414   .     A
C1378  C1380   1.426   .     A
C1378  C659    1.418   1_556 S
C1379  C1381   1.420   .     A
C1380  C1391   1.425   .     A
C1381  C1383   1.416   .     A
C1382  H1399   1.082   .     S
C1382  C663    1.387   1_556 S
C1383  C1389   1.476   .     S
C1384  H1410   1.083   .     S
C1385  H1403   1.113   .     S
C1385  N1423   1.449   .     S
C1385  H1404   1.108   .     S
C1385  H1402   1.109   .     S
C1386  N1424   1.445   .     S
C1386  H1408   1.104   .     S
C1386  H1407   1.111   .     S
C1386  H1406   1.109   .     S
C1387  O1440   1.222   .     D
C1387  O1426   1.398   .     S
C1388  O1428   1.398   .     S
C1388  O1427   1.222   .     D
C1389  O1429   1.223   .     D
C1389  O1430   1.397   .     S
C1390  O1431   1.223   .     D
C1390  C1391   1.482   .     S
C1390  O1432   1.398   .     S
C1391  C664    1.394   1_556 S
C1392  H1414   1.083   .     S
C1393  H1415   1.083   .     S
C1393  C1396   1.400   .     A
C1393  C1235   1.382   1_655 S
C1394  H1416   1.083   .     S
C1394  C1396   1.401   .     A
C1394  C1232   1.382   1_655 S
C1395  H1417   1.083   .     S
Cu1397 O1434   1.961   .     S
Cu1397 O1425   1.961   .     S
Cu1397 Cu1398  2.679   .     S
Cu1397 O1436   1.969   .     S
Cu1397 N1421   2.013   .     S
Cu1397 O1438   1.970   .     S
Cu1398 O1439   1.970   .     S
Cu1398 O1435   1.961   .     S
Cu1398 O1437   1.969   .     S
Cu1398 N1422   2.013   .     S
Cu1398 O1433   1.961   .     S
H1401  N1423   1.032   .     S
H1405  N1424   1.031   .     S
H1409  O1426   1.014   .     S
H1411  O1428   1.014   .     S
H1412  O1270   1.013   1_655 S
H1413  O1432   1.014   .     S
