data_str_m2_o1_o18_pcu_sym.61
_audit_creation_date              2020-01-03
_audit_creation_method            'Materials Studio'
_symmetry_space_group_name_H-M    'P1'
_symmetry_Int_Tables_number       1
_symmetry_cell_setting            triclinic
loop_
_symmetry_equiv_pos_as_xyz
  x,y,z
_cell_length_a                    28.6712
_cell_length_b                    32.3529
_cell_length_c                    31.3478
_cell_angle_alpha                 88.5864
_cell_angle_beta                  73.5358
_cell_angle_gamma                 90.6762
loop_
_atom_site_label
_atom_site_type_symbol
_atom_site_fract_x
_atom_site_fract_y
_atom_site_fract_z
_atom_site_U_iso_or_equiv
_atom_site_adp_type
_atom_site_occupancy
O1     O     0.03958   0.10655   0.25000   0.00000  Uiso   1.00
O2     O     0.29375   0.22678   0.25000   0.00000  Uiso   1.00
O3     O     0.29372   0.10654   0.25000   0.00000  Uiso   1.00
O4     O     0.03961   0.22679   0.25000   0.00000  Uiso   1.00
C5     C     0.33320   0.08742   0.24991   0.00000  Uiso   1.00
C6     C     0.00024   0.24592   0.24980   0.00000  Uiso   1.00
O7     O     0.01852   0.16668   0.31492   0.00000  Uiso   1.00
O8     O     0.31481   0.16666   0.18508   0.00000  Uiso   1.00
O9     O     0.27267   0.16667   0.31492   0.00000  Uiso   1.00
O10    O     0.06067   0.16667   0.18508   0.00000  Uiso   1.00
C11    C     0.30561   0.16825   0.33582   0.00000  Uiso   1.00
C12    C     0.02773   0.16519   0.16413   0.00000  Uiso   1.00
Cu13   Cu    0.04689   0.16667   0.25000   0.00000  Uiso   1.00
Cu14   Cu    0.28645   0.16666   0.25000   0.00000  Uiso   1.00
C15    C     0.28910   0.17278   0.38435   0.00000  Uiso   1.00
C16    C     0.04403   0.16069   0.11552   0.00000  Uiso   1.00
C17    C     0.30624   0.18793   0.45374   0.00000  Uiso   1.00
C18    C     0.02606   0.14503   0.04652   0.00000  Uiso   1.00
C19    C     0.32263   0.17924   0.40863   0.00000  Uiso   1.00
C20    C     0.01017   0.15388   0.09162   0.00000  Uiso   1.00
C21    C     0.23884   0.17272   0.40671   0.00000  Uiso   1.00
C22    C     0.09414   0.16092   0.09282   0.00000  Uiso   1.00
C23    C     0.22340   0.17156   0.45334   0.00000  Uiso   1.00
C24    C     0.10902   0.16159   0.04596   0.00000  Uiso   1.00
C25    C     0.25612   0.18652   0.47599   0.00000  Uiso   1.00
C26    C     0.07603   0.14651   0.02375   0.00000  Uiso   1.00
C27    C     0.17509   0.16000   0.47747   0.00000  Uiso   1.00
C28    C     0.15703   0.17327   0.02137   0.00000  Uiso   1.00
C29    C     0.18666   0.19976   0.03873   0.00000  Uiso   1.00
C30    C     0.14497   0.13419   0.45985   0.00000  Uiso   1.00
C31    C     0.23715   0.20227   0.01882   0.00000  Uiso   1.00
C32    C     0.09447   0.13138   0.48055   0.00000  Uiso   1.00
H33    H     0.30485   0.15280   0.10832   0.00000  Uiso   1.00
H34    H     0.02800   0.18040   0.39219   0.00000  Uiso   1.00
H35    H     0.33291   0.19584   0.47080   0.00000  Uiso   1.00
H36    H     0.33237   0.13716   0.02984   0.00000  Uiso   1.00
C37    C     0.29812   0.02130   0.23542   0.00000  Uiso   1.00
C38    C     0.03577   0.31208   0.26352   0.00000  Uiso   1.00
H39    H     0.27102   0.03747   0.22375   0.00000  Uiso   1.00
H40    H     0.06285   0.29594   0.27523   0.00000  Uiso   1.00
C41    C     0.29826   0.31190   0.23544   0.00000  Uiso   1.00
C42    C     0.03565   0.02147   0.26346   0.00000  Uiso   1.00
H43    H     0.27094   0.29563   0.22411   0.00000  Uiso   1.00
H44    H     0.06302   0.03773   0.27473   0.00000  Uiso   1.00
C45    C     0.00045   0.29056   0.24949   0.00000  Uiso   1.00
C46    C     0.33329   0.04281   0.24967   0.00000  Uiso   1.00
C47    C     0.18416   0.13450   0.26967   0.00000  Uiso   1.00
C48    C     0.14916   0.19887   0.23046   0.00000  Uiso   1.00
C49    C     0.13489   0.13489   0.26947   0.00000  Uiso   1.00
C50    C     0.19841   0.19850   0.23068   0.00000  Uiso   1.00
H51    H     0.11060   0.10965   0.28539   0.00000  Uiso   1.00
H52    H     0.22271   0.22372   0.21473   0.00000  Uiso   1.00
N53    N     0.11736   0.16668   0.24999   0.00000  Uiso   1.00
N54    N     0.21597   0.16666   0.25001   0.00000  Uiso   1.00
N55    N     0.26714   0.22532   0.04001   0.00000  Uiso   1.00
O56    O     0.29675   0.25425   0.01789   0.00000  Uiso   1.00
O57    O     0.25919   0.22215   0.08296   0.00000  Uiso   1.00
N58    N     0.06385   0.10909   0.45934   0.00000  Uiso   1.00
O59    O     0.07127   0.11294   0.41651   0.00000  Uiso   1.00
O60    O     0.03436   0.07995   0.48117   0.00000  Uiso   1.00
O61    O     0.12837   0.15974   0.11658   0.00000  Uiso   1.00
C62    C     0.15273   0.12145   0.11165   0.00000  Uiso   1.00
H63    H     0.19117   0.12804   0.11060   0.00000  Uiso   1.00
H64    H     0.15378   0.10551   0.08025   0.00000  Uiso   1.00
C65    C     0.12985   0.09238   0.15156   0.00000  Uiso   1.00
H66    H     0.12704   0.10877   0.18283   0.00000  Uiso   1.00
H67    H     0.09268   0.08286   0.15092   0.00000  Uiso   1.00
C68    C     0.16031   0.05398   0.15121   0.00000  Uiso   1.00
H69    H     0.16639   0.03809   0.11920   0.00000  Uiso   1.00
H70    H     0.14107   0.03231   0.17879   0.00000  Uiso   1.00
H71    H     0.19609   0.06271   0.15590   0.00000  Uiso   1.00
O72    O     0.20449   0.17686   0.38341   0.00000  Uiso   1.00
C73    C     0.19857   0.21922   0.37382   0.00000  Uiso   1.00
H74    H     0.18919   0.22095   0.34178   0.00000  Uiso   1.00
H75    H     0.23249   0.23835   0.36878   0.00000  Uiso   1.00
C76    C     0.15686   0.23754   0.41006   0.00000  Uiso   1.00
H77    H     0.12426   0.21676   0.41701   0.00000  Uiso   1.00
H78    H     0.16782   0.24039   0.44114   0.00000  Uiso   1.00
C79    C     0.14368   0.28029   0.39594   0.00000  Uiso   1.00
H80    H     0.17596   0.30144   0.38793   0.00000  Uiso   1.00
H81    H     0.11477   0.29338   0.42350   0.00000  Uiso   1.00
H82    H     0.12997   0.27813   0.36627   0.00000  Uiso   1.00
O83    O     0.16591   0.22617   0.07274   0.00000  Uiso   1.00
C84    C     0.14996   0.26157   0.05390   0.00000  Uiso   1.00
H85    H     0.12559   0.25296   0.03323   0.00000  Uiso   1.00
H86    H     0.18191   0.27961   0.03281   0.00000  Uiso   1.00
C87    C     0.12137   0.28883   0.09108   0.00000  Uiso   1.00
H88    H     0.08889   0.27127   0.11173   0.00000  Uiso   1.00
H89    H     0.14461   0.29733   0.11261   0.00000  Uiso   1.00
C90    C     0.10461   0.32818   0.07238   0.00000  Uiso   1.00
H91    H     0.13642   0.01347   0.05231   0.00000  Uiso   1.00
H92    H     0.08372   0.01377   0.10022   0.00000  Uiso   1.00
H93    H     0.08076   0.32035   0.05119   0.00000  Uiso   1.00
O94    O     0.16492   0.11048   0.42315   0.00000  Uiso   1.00
C95    C     0.17231   0.06969   0.43709   0.00000  Uiso   1.00
H96    H     0.16884   0.04872   0.41058   0.00000  Uiso   1.00
H97    H     0.14442   0.05884   0.46818   0.00000  Uiso   1.00
C98    C     0.22351   0.06569   0.44267   0.00000  Uiso   1.00
H99    H     0.25084   0.07787   0.41211   0.00000  Uiso   1.00
H100   H     0.22648   0.08409   0.47127   0.00000  Uiso   1.00
C101   C     0.23479   0.02076   0.45114   0.00000  Uiso   1.00
H102   H     0.20752   0.00775   0.48120   0.00000  Uiso   1.00
H103   H     0.27139   0.01913   0.45651   0.00000  Uiso   1.00
H104   H     0.23460   0.00191   0.42207   0.00000  Uiso   1.00
N105   N     0.19967   0.09944   0.29039   0.00000  Uiso   1.00
O106   O     0.21210   0.10385   0.32677   0.00000  Uiso   1.00
O107   O     0.18858   0.06251   0.28039   0.00000  Uiso   1.00
N108   N     0.13372   0.23384   0.20961   0.00000  Uiso   1.00
O109   O     0.14516   0.27084   0.21915   0.00000  Uiso   1.00
O110   O     0.12126   0.22914   0.17332   0.00000  Uiso   1.00
O111   O     0.37291   0.10655   0.25000   0.00000  Uiso   1.00
O112   O     0.62709   0.22678   0.25000   0.00000  Uiso   1.00
O113   O     0.62706   0.10654   0.25000   0.00000  Uiso   1.00
O114   O     0.37294   0.22679   0.25000   0.00000  Uiso   1.00
C115   C     0.66653   0.08742   0.24991   0.00000  Uiso   1.00
C116   C     0.33358   0.24592   0.24980   0.00000  Uiso   1.00
O117   O     0.35186   0.16668   0.31492   0.00000  Uiso   1.00
O118   O     0.64814   0.16666   0.18508   0.00000  Uiso   1.00
O119   O     0.60600   0.16667   0.31492   0.00000  Uiso   1.00
O120   O     0.39400   0.16667   0.18508   0.00000  Uiso   1.00
C121   C     0.63894   0.16825   0.33582   0.00000  Uiso   1.00
C122   C     0.36106   0.16519   0.16413   0.00000  Uiso   1.00
Cu123  Cu    0.38022   0.16667   0.25000   0.00000  Uiso   1.00
Cu124  Cu    0.61978   0.16666   0.25000   0.00000  Uiso   1.00
C125   C     0.62243   0.17278   0.38435   0.00000  Uiso   1.00
C126   C     0.37737   0.16069   0.11552   0.00000  Uiso   1.00
C127   C     0.63957   0.18793   0.45374   0.00000  Uiso   1.00
C128   C     0.35939   0.14503   0.04652   0.00000  Uiso   1.00
C129   C     0.65596   0.17924   0.40863   0.00000  Uiso   1.00
C130   C     0.34350   0.15388   0.09162   0.00000  Uiso   1.00
C131   C     0.57217   0.17272   0.40671   0.00000  Uiso   1.00
C132   C     0.42748   0.16092   0.09282   0.00000  Uiso   1.00
C133   C     0.55674   0.17156   0.45334   0.00000  Uiso   1.00
C134   C     0.44236   0.16159   0.04596   0.00000  Uiso   1.00
C135   C     0.58945   0.18652   0.47599   0.00000  Uiso   1.00
C136   C     0.40936   0.14651   0.02375   0.00000  Uiso   1.00
C137   C     0.50842   0.16000   0.47747   0.00000  Uiso   1.00
C138   C     0.49036   0.17327   0.02137   0.00000  Uiso   1.00
C139   C     0.51999   0.19976   0.03873   0.00000  Uiso   1.00
C140   C     0.47830   0.13419   0.45985   0.00000  Uiso   1.00
C141   C     0.57048   0.20227   0.01882   0.00000  Uiso   1.00
C142   C     0.42781   0.13138   0.48055   0.00000  Uiso   1.00
H143   H     0.63818   0.15280   0.10832   0.00000  Uiso   1.00
H144   H     0.36133   0.18040   0.39219   0.00000  Uiso   1.00
H145   H     0.66624   0.19584   0.47080   0.00000  Uiso   1.00
H146   H     0.66571   0.13716   0.02984   0.00000  Uiso   1.00
C147   C     0.63145   0.02130   0.23542   0.00000  Uiso   1.00
C148   C     0.36910   0.31208   0.26352   0.00000  Uiso   1.00
H149   H     0.60436   0.03747   0.22375   0.00000  Uiso   1.00
H150   H     0.39618   0.29594   0.27523   0.00000  Uiso   1.00
C151   C     0.63160   0.31190   0.23544   0.00000  Uiso   1.00
C152   C     0.36899   0.02147   0.26346   0.00000  Uiso   1.00
H153   H     0.60428   0.29563   0.22411   0.00000  Uiso   1.00
H154   H     0.39636   0.03773   0.27473   0.00000  Uiso   1.00
C155   C     0.33378   0.29056   0.24949   0.00000  Uiso   1.00
C156   C     0.66663   0.04281   0.24967   0.00000  Uiso   1.00
C157   C     0.51750   0.13450   0.26967   0.00000  Uiso   1.00
C158   C     0.48249   0.19887   0.23046   0.00000  Uiso   1.00
C159   C     0.46823   0.13489   0.26947   0.00000  Uiso   1.00
C160   C     0.53174   0.19850   0.23068   0.00000  Uiso   1.00
H161   H     0.44394   0.10965   0.28539   0.00000  Uiso   1.00
H162   H     0.55605   0.22372   0.21473   0.00000  Uiso   1.00
N163   N     0.45069   0.16668   0.24999   0.00000  Uiso   1.00
N164   N     0.54931   0.16666   0.25001   0.00000  Uiso   1.00
N165   N     0.60047   0.22532   0.04001   0.00000  Uiso   1.00
O166   O     0.63008   0.25425   0.01789   0.00000  Uiso   1.00
O167   O     0.59253   0.22215   0.08296   0.00000  Uiso   1.00
N168   N     0.39719   0.10909   0.45934   0.00000  Uiso   1.00
O169   O     0.40460   0.11294   0.41651   0.00000  Uiso   1.00
O170   O     0.36769   0.07995   0.48117   0.00000  Uiso   1.00
O171   O     0.46170   0.15974   0.11658   0.00000  Uiso   1.00
C172   C     0.48606   0.12145   0.11165   0.00000  Uiso   1.00
H173   H     0.52450   0.12804   0.11060   0.00000  Uiso   1.00
H174   H     0.48711   0.10551   0.08025   0.00000  Uiso   1.00
C175   C     0.46318   0.09238   0.15156   0.00000  Uiso   1.00
H176   H     0.46037   0.10877   0.18283   0.00000  Uiso   1.00
H177   H     0.42601   0.08286   0.15092   0.00000  Uiso   1.00
C178   C     0.49365   0.05398   0.15121   0.00000  Uiso   1.00
H179   H     0.49972   0.03809   0.11920   0.00000  Uiso   1.00
H180   H     0.47441   0.03231   0.17879   0.00000  Uiso   1.00
H181   H     0.52943   0.06271   0.15590   0.00000  Uiso   1.00
O182   O     0.53783   0.17686   0.38341   0.00000  Uiso   1.00
C183   C     0.53190   0.21922   0.37382   0.00000  Uiso   1.00
H184   H     0.52252   0.22095   0.34178   0.00000  Uiso   1.00
H185   H     0.56582   0.23835   0.36878   0.00000  Uiso   1.00
C186   C     0.49020   0.23754   0.41006   0.00000  Uiso   1.00
H187   H     0.45759   0.21676   0.41701   0.00000  Uiso   1.00
H188   H     0.50115   0.24039   0.44114   0.00000  Uiso   1.00
C189   C     0.47702   0.28029   0.39594   0.00000  Uiso   1.00
H190   H     0.50929   0.30144   0.38793   0.00000  Uiso   1.00
H191   H     0.44810   0.29338   0.42350   0.00000  Uiso   1.00
H192   H     0.46331   0.27813   0.36627   0.00000  Uiso   1.00
O193   O     0.49924   0.22617   0.07274   0.00000  Uiso   1.00
C194   C     0.48329   0.26157   0.05390   0.00000  Uiso   1.00
H195   H     0.45892   0.25296   0.03323   0.00000  Uiso   1.00
H196   H     0.51524   0.27961   0.03281   0.00000  Uiso   1.00
C197   C     0.45470   0.28883   0.09108   0.00000  Uiso   1.00
H198   H     0.42222   0.27127   0.11173   0.00000  Uiso   1.00
H199   H     0.47794   0.29733   0.11261   0.00000  Uiso   1.00
C200   C     0.43794   0.32818   0.07238   0.00000  Uiso   1.00
H201   H     0.46976   0.01347   0.05231   0.00000  Uiso   1.00
H202   H     0.41706   0.01377   0.10022   0.00000  Uiso   1.00
H203   H     0.41409   0.32035   0.05119   0.00000  Uiso   1.00
O204   O     0.49825   0.11048   0.42315   0.00000  Uiso   1.00
C205   C     0.50564   0.06969   0.43709   0.00000  Uiso   1.00
H206   H     0.50218   0.04872   0.41058   0.00000  Uiso   1.00
H207   H     0.47775   0.05884   0.46818   0.00000  Uiso   1.00
C208   C     0.55684   0.06569   0.44267   0.00000  Uiso   1.00
H209   H     0.58417   0.07787   0.41211   0.00000  Uiso   1.00
H210   H     0.55981   0.08409   0.47127   0.00000  Uiso   1.00
C211   C     0.56813   0.02076   0.45114   0.00000  Uiso   1.00
H212   H     0.54085   0.00775   0.48120   0.00000  Uiso   1.00
H213   H     0.60472   0.01913   0.45651   0.00000  Uiso   1.00
H214   H     0.56794   0.00191   0.42207   0.00000  Uiso   1.00
N215   N     0.53300   0.09944   0.29039   0.00000  Uiso   1.00
O216   O     0.54544   0.10385   0.32677   0.00000  Uiso   1.00
O217   O     0.52192   0.06251   0.28039   0.00000  Uiso   1.00
N218   N     0.46706   0.23384   0.20961   0.00000  Uiso   1.00
O219   O     0.47849   0.27084   0.21915   0.00000  Uiso   1.00
O220   O     0.45459   0.22914   0.17332   0.00000  Uiso   1.00
O221   O     0.70625   0.10655   0.25000   0.00000  Uiso   1.00
O222   O     0.96042   0.22678   0.25000   0.00000  Uiso   1.00
O223   O     0.96039   0.10654   0.25000   0.00000  Uiso   1.00
O224   O     0.70628   0.22679   0.25000   0.00000  Uiso   1.00
C225   C     0.99987   0.08742   0.24991   0.00000  Uiso   1.00
C226   C     0.66691   0.24592   0.24980   0.00000  Uiso   1.00
O227   O     0.68519   0.16668   0.31492   0.00000  Uiso   1.00
O228   O     0.98148   0.16666   0.18508   0.00000  Uiso   1.00
O229   O     0.93933   0.16667   0.31492   0.00000  Uiso   1.00
O230   O     0.72733   0.16667   0.18508   0.00000  Uiso   1.00
C231   C     0.97227   0.16825   0.33582   0.00000  Uiso   1.00
C232   C     0.69439   0.16519   0.16413   0.00000  Uiso   1.00
Cu233  Cu    0.71355   0.16667   0.25000   0.00000  Uiso   1.00
Cu234  Cu    0.95311   0.16666   0.25000   0.00000  Uiso   1.00
C235   C     0.95576   0.17278   0.38435   0.00000  Uiso   1.00
C236   C     0.71070   0.16069   0.11552   0.00000  Uiso   1.00
C237   C     0.97290   0.18793   0.45374   0.00000  Uiso   1.00
C238   C     0.69273   0.14503   0.04652   0.00000  Uiso   1.00
C239   C     0.98929   0.17924   0.40863   0.00000  Uiso   1.00
C240   C     0.67684   0.15388   0.09162   0.00000  Uiso   1.00
C241   C     0.90550   0.17272   0.40671   0.00000  Uiso   1.00
C242   C     0.76081   0.16092   0.09282   0.00000  Uiso   1.00
C243   C     0.89007   0.17156   0.45334   0.00000  Uiso   1.00
C244   C     0.77569   0.16159   0.04596   0.00000  Uiso   1.00
C245   C     0.92278   0.18652   0.47599   0.00000  Uiso   1.00
C246   C     0.74270   0.14651   0.02375   0.00000  Uiso   1.00
C247   C     0.84176   0.16000   0.47747   0.00000  Uiso   1.00
C248   C     0.82370   0.17327   0.02137   0.00000  Uiso   1.00
C249   C     0.85333   0.19976   0.03873   0.00000  Uiso   1.00
C250   C     0.81163   0.13419   0.45985   0.00000  Uiso   1.00
C251   C     0.90382   0.20227   0.01882   0.00000  Uiso   1.00
C252   C     0.76114   0.13138   0.48055   0.00000  Uiso   1.00
H253   H     0.97152   0.15280   0.10832   0.00000  Uiso   1.00
H254   H     0.69467   0.18040   0.39219   0.00000  Uiso   1.00
H255   H     0.99958   0.19584   0.47080   0.00000  Uiso   1.00
H256   H     0.99904   0.13716   0.02984   0.00000  Uiso   1.00
C257   C     0.96478   0.02130   0.23542   0.00000  Uiso   1.00
C258   C     0.70244   0.31208   0.26352   0.00000  Uiso   1.00
H259   H     0.93769   0.03747   0.22375   0.00000  Uiso   1.00
H260   H     0.72952   0.29594   0.27523   0.00000  Uiso   1.00
C261   C     0.96493   0.31190   0.23544   0.00000  Uiso   1.00
C262   C     0.70232   0.02147   0.26346   0.00000  Uiso   1.00
H263   H     0.93761   0.29563   0.22411   0.00000  Uiso   1.00
H264   H     0.72969   0.03773   0.27473   0.00000  Uiso   1.00
C265   C     0.66711   0.29056   0.24949   0.00000  Uiso   1.00
C266   C     0.99996   0.04281   0.24967   0.00000  Uiso   1.00
C267   C     0.85083   0.13450   0.26967   0.00000  Uiso   1.00
C268   C     0.81583   0.19887   0.23046   0.00000  Uiso   1.00
C269   C     0.80156   0.13489   0.26947   0.00000  Uiso   1.00
C270   C     0.86508   0.19850   0.23068   0.00000  Uiso   1.00
H271   H     0.77727   0.10965   0.28539   0.00000  Uiso   1.00
H272   H     0.88938   0.22372   0.21473   0.00000  Uiso   1.00
N273   N     0.78403   0.16668   0.24999   0.00000  Uiso   1.00
N274   N     0.88264   0.16666   0.25001   0.00000  Uiso   1.00
N275   N     0.93380   0.22532   0.04001   0.00000  Uiso   1.00
O276   O     0.96342   0.25425   0.01789   0.00000  Uiso   1.00
O277   O     0.92586   0.22215   0.08296   0.00000  Uiso   1.00
N278   N     0.73052   0.10909   0.45934   0.00000  Uiso   1.00
O279   O     0.73793   0.11294   0.41651   0.00000  Uiso   1.00
O280   O     0.70102   0.07995   0.48117   0.00000  Uiso   1.00
O281   O     0.79504   0.15974   0.11658   0.00000  Uiso   1.00
C282   C     0.81939   0.12145   0.11165   0.00000  Uiso   1.00
H283   H     0.85784   0.12804   0.11060   0.00000  Uiso   1.00
H284   H     0.82044   0.10551   0.08025   0.00000  Uiso   1.00
C285   C     0.79651   0.09238   0.15156   0.00000  Uiso   1.00
H286   H     0.79370   0.10877   0.18283   0.00000  Uiso   1.00
H287   H     0.75935   0.08286   0.15092   0.00000  Uiso   1.00
C288   C     0.82698   0.05398   0.15121   0.00000  Uiso   1.00
H289   H     0.83305   0.03809   0.11920   0.00000  Uiso   1.00
H290   H     0.80774   0.03231   0.17879   0.00000  Uiso   1.00
H291   H     0.86276   0.06271   0.15590   0.00000  Uiso   1.00
O292   O     0.87116   0.17686   0.38341   0.00000  Uiso   1.00
C293   C     0.86524   0.21922   0.37382   0.00000  Uiso   1.00
H294   H     0.85586   0.22095   0.34178   0.00000  Uiso   1.00
H295   H     0.89915   0.23835   0.36878   0.00000  Uiso   1.00
C296   C     0.82353   0.23754   0.41006   0.00000  Uiso   1.00
H297   H     0.79092   0.21676   0.41701   0.00000  Uiso   1.00
H298   H     0.83449   0.24039   0.44114   0.00000  Uiso   1.00
C299   C     0.81035   0.28029   0.39594   0.00000  Uiso   1.00
H300   H     0.84263   0.30144   0.38793   0.00000  Uiso   1.00
H301   H     0.78144   0.29338   0.42350   0.00000  Uiso   1.00
H302   H     0.79664   0.27813   0.36627   0.00000  Uiso   1.00
O303   O     0.83257   0.22617   0.07274   0.00000  Uiso   1.00
C304   C     0.81662   0.26157   0.05390   0.00000  Uiso   1.00
H305   H     0.79226   0.25296   0.03323   0.00000  Uiso   1.00
H306   H     0.84858   0.27961   0.03281   0.00000  Uiso   1.00
C307   C     0.78803   0.28883   0.09108   0.00000  Uiso   1.00
H308   H     0.75556   0.27127   0.11173   0.00000  Uiso   1.00
H309   H     0.81127   0.29733   0.11261   0.00000  Uiso   1.00
C310   C     0.77127   0.32818   0.07238   0.00000  Uiso   1.00
H311   H     0.80309   0.01347   0.05231   0.00000  Uiso   1.00
H312   H     0.75039   0.01377   0.10022   0.00000  Uiso   1.00
H313   H     0.74743   0.32035   0.05119   0.00000  Uiso   1.00
O314   O     0.83159   0.11048   0.42315   0.00000  Uiso   1.00
C315   C     0.83898   0.06969   0.43709   0.00000  Uiso   1.00
H316   H     0.83551   0.04872   0.41058   0.00000  Uiso   1.00
H317   H     0.81108   0.05884   0.46818   0.00000  Uiso   1.00
C318   C     0.89017   0.06569   0.44267   0.00000  Uiso   1.00
H319   H     0.91750   0.07787   0.41211   0.00000  Uiso   1.00
H320   H     0.89315   0.08409   0.47127   0.00000  Uiso   1.00
C321   C     0.90146   0.02076   0.45114   0.00000  Uiso   1.00
H322   H     0.87419   0.00775   0.48120   0.00000  Uiso   1.00
H323   H     0.93805   0.01913   0.45651   0.00000  Uiso   1.00
H324   H     0.90127   0.00191   0.42207   0.00000  Uiso   1.00
N325   N     0.86634   0.09944   0.29039   0.00000  Uiso   1.00
O326   O     0.87877   0.10385   0.32677   0.00000  Uiso   1.00
O327   O     0.85525   0.06251   0.28039   0.00000  Uiso   1.00
N328   N     0.80039   0.23384   0.20961   0.00000  Uiso   1.00
O329   O     0.81183   0.27084   0.21915   0.00000  Uiso   1.00
O330   O     0.78792   0.22914   0.17332   0.00000  Uiso   1.00
O331   O     0.03958   0.43989   0.25000   0.00000  Uiso   1.00
O332   O     0.29375   0.56011   0.25000   0.00000  Uiso   1.00
O333   O     0.29372   0.43988   0.25000   0.00000  Uiso   1.00
O334   O     0.03961   0.56012   0.25000   0.00000  Uiso   1.00
C335   C     0.33320   0.42076   0.24991   0.00000  Uiso   1.00
C336   C     0.00024   0.57925   0.24980   0.00000  Uiso   1.00
O337   O     0.01852   0.50001   0.31492   0.00000  Uiso   1.00
O338   O     0.31481   0.49999   0.18508   0.00000  Uiso   1.00
O339   O     0.27267   0.50000   0.31492   0.00000  Uiso   1.00
O340   O     0.06067   0.50000   0.18508   0.00000  Uiso   1.00
C341   C     0.30561   0.50159   0.33582   0.00000  Uiso   1.00
C342   C     0.02773   0.49852   0.16413   0.00000  Uiso   1.00
Cu343  Cu    0.04689   0.50001   0.25000   0.00000  Uiso   1.00
Cu344  Cu    0.28645   0.49999   0.25000   0.00000  Uiso   1.00
C345   C     0.28910   0.50611   0.38435   0.00000  Uiso   1.00
C346   C     0.04403   0.49402   0.11552   0.00000  Uiso   1.00
C347   C     0.30624   0.52127   0.45374   0.00000  Uiso   1.00
C348   C     0.02606   0.47836   0.04652   0.00000  Uiso   1.00
C349   C     0.32263   0.51257   0.40863   0.00000  Uiso   1.00
C350   C     0.01017   0.48721   0.09162   0.00000  Uiso   1.00
C351   C     0.23884   0.50605   0.40671   0.00000  Uiso   1.00
C352   C     0.09414   0.49425   0.09282   0.00000  Uiso   1.00
C353   C     0.22340   0.50490   0.45334   0.00000  Uiso   1.00
C354   C     0.10902   0.49492   0.04596   0.00000  Uiso   1.00
C355   C     0.25612   0.51985   0.47599   0.00000  Uiso   1.00
C356   C     0.07603   0.47984   0.02375   0.00000  Uiso   1.00
C357   C     0.17509   0.49333   0.47747   0.00000  Uiso   1.00
C358   C     0.15703   0.50661   0.02137   0.00000  Uiso   1.00
C359   C     0.18666   0.53310   0.03873   0.00000  Uiso   1.00
C360   C     0.14497   0.46753   0.45985   0.00000  Uiso   1.00
C361   C     0.23715   0.53561   0.01882   0.00000  Uiso   1.00
C362   C     0.09447   0.46471   0.48055   0.00000  Uiso   1.00
H363   H     0.30485   0.48613   0.10832   0.00000  Uiso   1.00
H364   H     0.02800   0.51374   0.39219   0.00000  Uiso   1.00
H365   H     0.33291   0.52918   0.47080   0.00000  Uiso   1.00
H366   H     0.33237   0.47050   0.02984   0.00000  Uiso   1.00
C367   C     0.29812   0.35464   0.23542   0.00000  Uiso   1.00
C368   C     0.03577   0.64542   0.26352   0.00000  Uiso   1.00
H369   H     0.27102   0.37080   0.22375   0.00000  Uiso   1.00
H370   H     0.06285   0.62928   0.27523   0.00000  Uiso   1.00
C371   C     0.29826   0.64523   0.23544   0.00000  Uiso   1.00
C372   C     0.03565   0.35481   0.26346   0.00000  Uiso   1.00
H373   H     0.27094   0.62896   0.22411   0.00000  Uiso   1.00
H374   H     0.06302   0.37106   0.27473   0.00000  Uiso   1.00
C375   C     0.00045   0.62389   0.24949   0.00000  Uiso   1.00
C376   C     0.33329   0.37614   0.24967   0.00000  Uiso   1.00
C377   C     0.18416   0.46784   0.26967   0.00000  Uiso   1.00
C378   C     0.14916   0.53221   0.23046   0.00000  Uiso   1.00
C379   C     0.13489   0.46822   0.26947   0.00000  Uiso   1.00
C380   C     0.19841   0.53184   0.23068   0.00000  Uiso   1.00
H381   H     0.11060   0.44299   0.28539   0.00000  Uiso   1.00
H382   H     0.22271   0.55705   0.21473   0.00000  Uiso   1.00
N383   N     0.11736   0.50001   0.24999   0.00000  Uiso   1.00
N384   N     0.21597   0.49999   0.25001   0.00000  Uiso   1.00
N385   N     0.26714   0.55866   0.04001   0.00000  Uiso   1.00
O386   O     0.29675   0.58759   0.01789   0.00000  Uiso   1.00
O387   O     0.25919   0.55548   0.08296   0.00000  Uiso   1.00
N388   N     0.06385   0.44242   0.45934   0.00000  Uiso   1.00
O389   O     0.07127   0.44627   0.41651   0.00000  Uiso   1.00
O390   O     0.03436   0.41328   0.48117   0.00000  Uiso   1.00
O391   O     0.12837   0.49307   0.11658   0.00000  Uiso   1.00
C392   C     0.15273   0.45479   0.11165   0.00000  Uiso   1.00
H393   H     0.19117   0.46138   0.11060   0.00000  Uiso   1.00
H394   H     0.15378   0.43884   0.08025   0.00000  Uiso   1.00
C395   C     0.12985   0.42571   0.15156   0.00000  Uiso   1.00
H396   H     0.12704   0.44210   0.18283   0.00000  Uiso   1.00
H397   H     0.09268   0.41619   0.15092   0.00000  Uiso   1.00
C398   C     0.16031   0.38731   0.15121   0.00000  Uiso   1.00
H399   H     0.16639   0.37142   0.11920   0.00000  Uiso   1.00
H400   H     0.14107   0.36564   0.17879   0.00000  Uiso   1.00
H401   H     0.19609   0.39604   0.15590   0.00000  Uiso   1.00
O402   O     0.20449   0.51019   0.38341   0.00000  Uiso   1.00
C403   C     0.19857   0.55255   0.37382   0.00000  Uiso   1.00
H404   H     0.18919   0.55429   0.34178   0.00000  Uiso   1.00
H405   H     0.23249   0.57168   0.36878   0.00000  Uiso   1.00
C406   C     0.15686   0.57088   0.41006   0.00000  Uiso   1.00
H407   H     0.12426   0.55009   0.41701   0.00000  Uiso   1.00
H408   H     0.16782   0.57372   0.44114   0.00000  Uiso   1.00
C409   C     0.14368   0.61363   0.39594   0.00000  Uiso   1.00
H410   H     0.17596   0.63477   0.38793   0.00000  Uiso   1.00
H411   H     0.11477   0.62671   0.42350   0.00000  Uiso   1.00
H412   H     0.12997   0.61147   0.36627   0.00000  Uiso   1.00
O413   O     0.16591   0.55950   0.07274   0.00000  Uiso   1.00
C414   C     0.14996   0.59491   0.05390   0.00000  Uiso   1.00
H415   H     0.12559   0.58629   0.03323   0.00000  Uiso   1.00
H416   H     0.18191   0.61294   0.03281   0.00000  Uiso   1.00
C417   C     0.12137   0.62216   0.09108   0.00000  Uiso   1.00
H418   H     0.08889   0.60460   0.11173   0.00000  Uiso   1.00
H419   H     0.14461   0.63067   0.11261   0.00000  Uiso   1.00
C420   C     0.10461   0.66152   0.07238   0.00000  Uiso   1.00
H421   H     0.13642   0.34681   0.05231   0.00000  Uiso   1.00
H422   H     0.08372   0.34711   0.10022   0.00000  Uiso   1.00
H423   H     0.08076   0.65368   0.05119   0.00000  Uiso   1.00
O424   O     0.16492   0.44382   0.42315   0.00000  Uiso   1.00
C425   C     0.17231   0.40302   0.43709   0.00000  Uiso   1.00
H426   H     0.16884   0.38205   0.41058   0.00000  Uiso   1.00
H427   H     0.14442   0.39218   0.46818   0.00000  Uiso   1.00
C428   C     0.22351   0.39902   0.44267   0.00000  Uiso   1.00
H429   H     0.25084   0.41120   0.41211   0.00000  Uiso   1.00
H430   H     0.22648   0.41742   0.47127   0.00000  Uiso   1.00
C431   C     0.23479   0.35410   0.45114   0.00000  Uiso   1.00
H432   H     0.20752   0.34109   0.48120   0.00000  Uiso   1.00
H433   H     0.27139   0.35246   0.45651   0.00000  Uiso   1.00
H434   H     0.23460   0.33524   0.42207   0.00000  Uiso   1.00
N435   N     0.19967   0.43277   0.29039   0.00000  Uiso   1.00
O436   O     0.21210   0.43719   0.32677   0.00000  Uiso   1.00
O437   O     0.18858   0.39584   0.28039   0.00000  Uiso   1.00
N438   N     0.13372   0.56718   0.20961   0.00000  Uiso   1.00
O439   O     0.14516   0.60417   0.21915   0.00000  Uiso   1.00
O440   O     0.12126   0.56248   0.17332   0.00000  Uiso   1.00
O441   O     0.37291   0.43989   0.25000   0.00000  Uiso   1.00
O442   O     0.62709   0.56011   0.25000   0.00000  Uiso   1.00
O443   O     0.62706   0.43988   0.25000   0.00000  Uiso   1.00
O444   O     0.37294   0.56012   0.25000   0.00000  Uiso   1.00
C445   C     0.66653   0.42076   0.24991   0.00000  Uiso   1.00
C446   C     0.33358   0.57925   0.24980   0.00000  Uiso   1.00
O447   O     0.35186   0.50001   0.31492   0.00000  Uiso   1.00
O448   O     0.64814   0.49999   0.18508   0.00000  Uiso   1.00
O449   O     0.60600   0.50000   0.31492   0.00000  Uiso   1.00
O450   O     0.39400   0.50000   0.18508   0.00000  Uiso   1.00
C451   C     0.63894   0.50159   0.33582   0.00000  Uiso   1.00
C452   C     0.36106   0.49852   0.16413   0.00000  Uiso   1.00
Cu453  Cu    0.38022   0.50001   0.25000   0.00000  Uiso   1.00
Cu454  Cu    0.61978   0.49999   0.25000   0.00000  Uiso   1.00
C455   C     0.62243   0.50611   0.38435   0.00000  Uiso   1.00
C456   C     0.37737   0.49402   0.11552   0.00000  Uiso   1.00
C457   C     0.63957   0.52127   0.45374   0.00000  Uiso   1.00
C458   C     0.35939   0.47836   0.04652   0.00000  Uiso   1.00
C459   C     0.65596   0.51257   0.40863   0.00000  Uiso   1.00
C460   C     0.34350   0.48721   0.09162   0.00000  Uiso   1.00
C461   C     0.57217   0.50605   0.40671   0.00000  Uiso   1.00
C462   C     0.42748   0.49425   0.09282   0.00000  Uiso   1.00
C463   C     0.55674   0.50490   0.45334   0.00000  Uiso   1.00
C464   C     0.44236   0.49492   0.04596   0.00000  Uiso   1.00
C465   C     0.58945   0.51985   0.47599   0.00000  Uiso   1.00
C466   C     0.40936   0.47984   0.02375   0.00000  Uiso   1.00
C467   C     0.50842   0.49333   0.47747   0.00000  Uiso   1.00
C468   C     0.49036   0.50661   0.02137   0.00000  Uiso   1.00
C469   C     0.51999   0.53310   0.03873   0.00000  Uiso   1.00
C470   C     0.47830   0.46753   0.45985   0.00000  Uiso   1.00
C471   C     0.57048   0.53561   0.01882   0.00000  Uiso   1.00
C472   C     0.42781   0.46471   0.48055   0.00000  Uiso   1.00
H473   H     0.63818   0.48613   0.10832   0.00000  Uiso   1.00
H474   H     0.36133   0.51374   0.39219   0.00000  Uiso   1.00
H475   H     0.66624   0.52918   0.47080   0.00000  Uiso   1.00
H476   H     0.66571   0.47050   0.02984   0.00000  Uiso   1.00
C477   C     0.63145   0.35464   0.23542   0.00000  Uiso   1.00
C478   C     0.36910   0.64542   0.26352   0.00000  Uiso   1.00
H479   H     0.60436   0.37080   0.22375   0.00000  Uiso   1.00
H480   H     0.39618   0.62928   0.27523   0.00000  Uiso   1.00
C481   C     0.63160   0.64523   0.23544   0.00000  Uiso   1.00
C482   C     0.36899   0.35481   0.26346   0.00000  Uiso   1.00
H483   H     0.60428   0.62896   0.22411   0.00000  Uiso   1.00
H484   H     0.39636   0.37106   0.27473   0.00000  Uiso   1.00
C485   C     0.33378   0.62389   0.24949   0.00000  Uiso   1.00
C486   C     0.66663   0.37614   0.24967   0.00000  Uiso   1.00
C487   C     0.51750   0.46784   0.26967   0.00000  Uiso   1.00
C488   C     0.48249   0.53221   0.23046   0.00000  Uiso   1.00
C489   C     0.46823   0.46822   0.26947   0.00000  Uiso   1.00
C490   C     0.53174   0.53184   0.23068   0.00000  Uiso   1.00
H491   H     0.44394   0.44299   0.28539   0.00000  Uiso   1.00
H492   H     0.55605   0.55705   0.21473   0.00000  Uiso   1.00
N493   N     0.45069   0.50001   0.24999   0.00000  Uiso   1.00
N494   N     0.54931   0.49999   0.25001   0.00000  Uiso   1.00
N495   N     0.60047   0.55866   0.04001   0.00000  Uiso   1.00
O496   O     0.63008   0.58759   0.01789   0.00000  Uiso   1.00
O497   O     0.59253   0.55548   0.08296   0.00000  Uiso   1.00
N498   N     0.39719   0.44242   0.45934   0.00000  Uiso   1.00
O499   O     0.40460   0.44627   0.41651   0.00000  Uiso   1.00
O500   O     0.36769   0.41328   0.48117   0.00000  Uiso   1.00
O501   O     0.46170   0.49307   0.11658   0.00000  Uiso   1.00
C502   C     0.48606   0.45479   0.11165   0.00000  Uiso   1.00
H503   H     0.52450   0.46138   0.11060   0.00000  Uiso   1.00
H504   H     0.48711   0.43884   0.08025   0.00000  Uiso   1.00
C505   C     0.46318   0.42571   0.15156   0.00000  Uiso   1.00
H506   H     0.46037   0.44210   0.18283   0.00000  Uiso   1.00
H507   H     0.42601   0.41619   0.15092   0.00000  Uiso   1.00
C508   C     0.49365   0.38731   0.15121   0.00000  Uiso   1.00
H509   H     0.49972   0.37142   0.11920   0.00000  Uiso   1.00
H510   H     0.47441   0.36564   0.17879   0.00000  Uiso   1.00
H511   H     0.52943   0.39604   0.15590   0.00000  Uiso   1.00
O512   O     0.53783   0.51019   0.38341   0.00000  Uiso   1.00
C513   C     0.53190   0.55255   0.37382   0.00000  Uiso   1.00
H514   H     0.52252   0.55429   0.34178   0.00000  Uiso   1.00
H515   H     0.56582   0.57168   0.36878   0.00000  Uiso   1.00
C516   C     0.49020   0.57088   0.41006   0.00000  Uiso   1.00
H517   H     0.45759   0.55009   0.41701   0.00000  Uiso   1.00
H518   H     0.50115   0.57372   0.44114   0.00000  Uiso   1.00
C519   C     0.47702   0.61363   0.39594   0.00000  Uiso   1.00
H520   H     0.50929   0.63477   0.38793   0.00000  Uiso   1.00
H521   H     0.44810   0.62671   0.42350   0.00000  Uiso   1.00
H522   H     0.46331   0.61147   0.36627   0.00000  Uiso   1.00
O523   O     0.49924   0.55950   0.07274   0.00000  Uiso   1.00
C524   C     0.48329   0.59491   0.05390   0.00000  Uiso   1.00
H525   H     0.45892   0.58629   0.03323   0.00000  Uiso   1.00
H526   H     0.51524   0.61294   0.03281   0.00000  Uiso   1.00
C527   C     0.45470   0.62216   0.09108   0.00000  Uiso   1.00
H528   H     0.42222   0.60460   0.11173   0.00000  Uiso   1.00
H529   H     0.47794   0.63067   0.11261   0.00000  Uiso   1.00
C530   C     0.43794   0.66152   0.07238   0.00000  Uiso   1.00
H531   H     0.46976   0.34681   0.05231   0.00000  Uiso   1.00
H532   H     0.41706   0.34711   0.10022   0.00000  Uiso   1.00
H533   H     0.41409   0.65368   0.05119   0.00000  Uiso   1.00
O534   O     0.49825   0.44382   0.42315   0.00000  Uiso   1.00
C535   C     0.50564   0.40302   0.43709   0.00000  Uiso   1.00
H536   H     0.50218   0.38205   0.41058   0.00000  Uiso   1.00
H537   H     0.47775   0.39218   0.46818   0.00000  Uiso   1.00
C538   C     0.55684   0.39902   0.44267   0.00000  Uiso   1.00
H539   H     0.58417   0.41120   0.41211   0.00000  Uiso   1.00
H540   H     0.55981   0.41742   0.47127   0.00000  Uiso   1.00
C541   C     0.56813   0.35410   0.45114   0.00000  Uiso   1.00
H542   H     0.54085   0.34109   0.48120   0.00000  Uiso   1.00
H543   H     0.60472   0.35246   0.45651   0.00000  Uiso   1.00
H544   H     0.56794   0.33524   0.42207   0.00000  Uiso   1.00
N545   N     0.53300   0.43277   0.29039   0.00000  Uiso   1.00
O546   O     0.54544   0.43719   0.32677   0.00000  Uiso   1.00
O547   O     0.52192   0.39584   0.28039   0.00000  Uiso   1.00
N548   N     0.46706   0.56718   0.20961   0.00000  Uiso   1.00
O549   O     0.47849   0.60417   0.21915   0.00000  Uiso   1.00
O550   O     0.45459   0.56248   0.17332   0.00000  Uiso   1.00
O551   O     0.70625   0.43989   0.25000   0.00000  Uiso   1.00
O552   O     0.96042   0.56011   0.25000   0.00000  Uiso   1.00
O553   O     0.96039   0.43988   0.25000   0.00000  Uiso   1.00
O554   O     0.70628   0.56012   0.25000   0.00000  Uiso   1.00
C555   C     0.99987   0.42076   0.24991   0.00000  Uiso   1.00
C556   C     0.66691   0.57925   0.24980   0.00000  Uiso   1.00
O557   O     0.68519   0.50001   0.31492   0.00000  Uiso   1.00
O558   O     0.98148   0.49999   0.18508   0.00000  Uiso   1.00
O559   O     0.93933   0.50000   0.31492   0.00000  Uiso   1.00
O560   O     0.72733   0.50000   0.18508   0.00000  Uiso   1.00
C561   C     0.97227   0.50159   0.33582   0.00000  Uiso   1.00
C562   C     0.69439   0.49852   0.16413   0.00000  Uiso   1.00
Cu563  Cu    0.71355   0.50001   0.25000   0.00000  Uiso   1.00
Cu564  Cu    0.95311   0.49999   0.25000   0.00000  Uiso   1.00
C565   C     0.95576   0.50611   0.38435   0.00000  Uiso   1.00
C566   C     0.71070   0.49402   0.11552   0.00000  Uiso   1.00
C567   C     0.97290   0.52127   0.45374   0.00000  Uiso   1.00
C568   C     0.69273   0.47836   0.04652   0.00000  Uiso   1.00
C569   C     0.98929   0.51257   0.40863   0.00000  Uiso   1.00
C570   C     0.67684   0.48721   0.09162   0.00000  Uiso   1.00
C571   C     0.90550   0.50605   0.40671   0.00000  Uiso   1.00
C572   C     0.76081   0.49425   0.09282   0.00000  Uiso   1.00
C573   C     0.89007   0.50490   0.45334   0.00000  Uiso   1.00
C574   C     0.77569   0.49492   0.04596   0.00000  Uiso   1.00
C575   C     0.92278   0.51985   0.47599   0.00000  Uiso   1.00
C576   C     0.74270   0.47984   0.02375   0.00000  Uiso   1.00
C577   C     0.84176   0.49333   0.47747   0.00000  Uiso   1.00
C578   C     0.82370   0.50661   0.02137   0.00000  Uiso   1.00
C579   C     0.85333   0.53310   0.03873   0.00000  Uiso   1.00
C580   C     0.81163   0.46753   0.45985   0.00000  Uiso   1.00
C581   C     0.90382   0.53561   0.01882   0.00000  Uiso   1.00
C582   C     0.76114   0.46471   0.48055   0.00000  Uiso   1.00
H583   H     0.97152   0.48613   0.10832   0.00000  Uiso   1.00
H584   H     0.69467   0.51374   0.39219   0.00000  Uiso   1.00
H585   H     0.99958   0.52918   0.47080   0.00000  Uiso   1.00
H586   H     0.99904   0.47050   0.02984   0.00000  Uiso   1.00
C587   C     0.96478   0.35464   0.23542   0.00000  Uiso   1.00
C588   C     0.70244   0.64542   0.26352   0.00000  Uiso   1.00
H589   H     0.93769   0.37080   0.22375   0.00000  Uiso   1.00
H590   H     0.72952   0.62928   0.27523   0.00000  Uiso   1.00
C591   C     0.96493   0.64523   0.23544   0.00000  Uiso   1.00
C592   C     0.70232   0.35481   0.26346   0.00000  Uiso   1.00
H593   H     0.93761   0.62896   0.22411   0.00000  Uiso   1.00
H594   H     0.72969   0.37106   0.27473   0.00000  Uiso   1.00
C595   C     0.66711   0.62389   0.24949   0.00000  Uiso   1.00
C596   C     0.99996   0.37614   0.24967   0.00000  Uiso   1.00
C597   C     0.85083   0.46784   0.26967   0.00000  Uiso   1.00
C598   C     0.81583   0.53221   0.23046   0.00000  Uiso   1.00
C599   C     0.80156   0.46822   0.26947   0.00000  Uiso   1.00
C600   C     0.86508   0.53184   0.23068   0.00000  Uiso   1.00
H601   H     0.77727   0.44299   0.28539   0.00000  Uiso   1.00
H602   H     0.88938   0.55705   0.21473   0.00000  Uiso   1.00
N603   N     0.78403   0.50001   0.24999   0.00000  Uiso   1.00
N604   N     0.88264   0.49999   0.25001   0.00000  Uiso   1.00
N605   N     0.93380   0.55866   0.04001   0.00000  Uiso   1.00
O606   O     0.96342   0.58759   0.01789   0.00000  Uiso   1.00
O607   O     0.92586   0.55548   0.08296   0.00000  Uiso   1.00
N608   N     0.73052   0.44242   0.45934   0.00000  Uiso   1.00
O609   O     0.73793   0.44627   0.41651   0.00000  Uiso   1.00
O610   O     0.70102   0.41328   0.48117   0.00000  Uiso   1.00
O611   O     0.79504   0.49307   0.11658   0.00000  Uiso   1.00
C612   C     0.81939   0.45479   0.11165   0.00000  Uiso   1.00
H613   H     0.85784   0.46138   0.11060   0.00000  Uiso   1.00
H614   H     0.82044   0.43884   0.08025   0.00000  Uiso   1.00
C615   C     0.79651   0.42571   0.15156   0.00000  Uiso   1.00
H616   H     0.79370   0.44210   0.18283   0.00000  Uiso   1.00
H617   H     0.75935   0.41619   0.15092   0.00000  Uiso   1.00
C618   C     0.82698   0.38731   0.15121   0.00000  Uiso   1.00
H619   H     0.83305   0.37142   0.11920   0.00000  Uiso   1.00
H620   H     0.80774   0.36564   0.17879   0.00000  Uiso   1.00
H621   H     0.86276   0.39604   0.15590   0.00000  Uiso   1.00
O622   O     0.87116   0.51019   0.38341   0.00000  Uiso   1.00
C623   C     0.86524   0.55255   0.37382   0.00000  Uiso   1.00
H624   H     0.85586   0.55429   0.34178   0.00000  Uiso   1.00
H625   H     0.89915   0.57168   0.36878   0.00000  Uiso   1.00
C626   C     0.82353   0.57088   0.41006   0.00000  Uiso   1.00
H627   H     0.79092   0.55009   0.41701   0.00000  Uiso   1.00
H628   H     0.83449   0.57372   0.44114   0.00000  Uiso   1.00
C629   C     0.81035   0.61363   0.39594   0.00000  Uiso   1.00
H630   H     0.84263   0.63477   0.38793   0.00000  Uiso   1.00
H631   H     0.78144   0.62671   0.42350   0.00000  Uiso   1.00
H632   H     0.79664   0.61147   0.36627   0.00000  Uiso   1.00
O633   O     0.83257   0.55950   0.07274   0.00000  Uiso   1.00
C634   C     0.81662   0.59491   0.05390   0.00000  Uiso   1.00
H635   H     0.79226   0.58629   0.03323   0.00000  Uiso   1.00
H636   H     0.84858   0.61294   0.03281   0.00000  Uiso   1.00
C637   C     0.78803   0.62216   0.09108   0.00000  Uiso   1.00
H638   H     0.75556   0.60460   0.11173   0.00000  Uiso   1.00
H639   H     0.81127   0.63067   0.11261   0.00000  Uiso   1.00
C640   C     0.77127   0.66152   0.07238   0.00000  Uiso   1.00
H641   H     0.80309   0.34681   0.05231   0.00000  Uiso   1.00
H642   H     0.75039   0.34711   0.10022   0.00000  Uiso   1.00
H643   H     0.74743   0.65368   0.05119   0.00000  Uiso   1.00
O644   O     0.83159   0.44382   0.42315   0.00000  Uiso   1.00
C645   C     0.83898   0.40302   0.43709   0.00000  Uiso   1.00
H646   H     0.83551   0.38205   0.41058   0.00000  Uiso   1.00
H647   H     0.81108   0.39218   0.46818   0.00000  Uiso   1.00
C648   C     0.89017   0.39902   0.44267   0.00000  Uiso   1.00
H649   H     0.91750   0.41120   0.41211   0.00000  Uiso   1.00
H650   H     0.89315   0.41742   0.47127   0.00000  Uiso   1.00
C651   C     0.90146   0.35410   0.45114   0.00000  Uiso   1.00
H652   H     0.87419   0.34109   0.48120   0.00000  Uiso   1.00
H653   H     0.93805   0.35246   0.45651   0.00000  Uiso   1.00
H654   H     0.90127   0.33524   0.42207   0.00000  Uiso   1.00
N655   N     0.86634   0.43277   0.29039   0.00000  Uiso   1.00
O656   O     0.87877   0.43719   0.32677   0.00000  Uiso   1.00
O657   O     0.85525   0.39584   0.28039   0.00000  Uiso   1.00
N658   N     0.80039   0.56718   0.20961   0.00000  Uiso   1.00
O659   O     0.81183   0.60417   0.21915   0.00000  Uiso   1.00
O660   O     0.78792   0.56248   0.17332   0.00000  Uiso   1.00
O661   O     0.03958   0.77322   0.25000   0.00000  Uiso   1.00
O662   O     0.29375   0.89345   0.25000   0.00000  Uiso   1.00
O663   O     0.29372   0.77321   0.25000   0.00000  Uiso   1.00
O664   O     0.03961   0.89346   0.25000   0.00000  Uiso   1.00
C665   C     0.33320   0.75409   0.24991   0.00000  Uiso   1.00
C666   C     0.00024   0.91259   0.24980   0.00000  Uiso   1.00
O667   O     0.01852   0.83334   0.31492   0.00000  Uiso   1.00
O668   O     0.31481   0.83332   0.18508   0.00000  Uiso   1.00
O669   O     0.27267   0.83333   0.31492   0.00000  Uiso   1.00
O670   O     0.06067   0.83333   0.18508   0.00000  Uiso   1.00
C671   C     0.30561   0.83492   0.33582   0.00000  Uiso   1.00
C672   C     0.02773   0.83186   0.16413   0.00000  Uiso   1.00
Cu673  Cu    0.04689   0.83334   0.25000   0.00000  Uiso   1.00
Cu674  Cu    0.28645   0.83333   0.25000   0.00000  Uiso   1.00
C675   C     0.28910   0.83944   0.38435   0.00000  Uiso   1.00
C676   C     0.04403   0.82736   0.11552   0.00000  Uiso   1.00
C677   C     0.30624   0.85460   0.45374   0.00000  Uiso   1.00
C678   C     0.02606   0.81170   0.04652   0.00000  Uiso   1.00
C679   C     0.32263   0.84590   0.40863   0.00000  Uiso   1.00
C680   C     0.01017   0.82054   0.09162   0.00000  Uiso   1.00
C681   C     0.23884   0.83939   0.40671   0.00000  Uiso   1.00
C682   C     0.09414   0.82758   0.09282   0.00000  Uiso   1.00
C683   C     0.22340   0.83823   0.45334   0.00000  Uiso   1.00
C684   C     0.10902   0.82826   0.04596   0.00000  Uiso   1.00
C685   C     0.25612   0.85318   0.47599   0.00000  Uiso   1.00
C686   C     0.07603   0.81318   0.02375   0.00000  Uiso   1.00
C687   C     0.17509   0.82667   0.47747   0.00000  Uiso   1.00
C688   C     0.15703   0.83994   0.02137   0.00000  Uiso   1.00
C689   C     0.18666   0.86643   0.03873   0.00000  Uiso   1.00
C690   C     0.14497   0.80086   0.45985   0.00000  Uiso   1.00
C691   C     0.23715   0.86894   0.01882   0.00000  Uiso   1.00
C692   C     0.09447   0.79804   0.48055   0.00000  Uiso   1.00
H693   H     0.30485   0.81946   0.10832   0.00000  Uiso   1.00
H694   H     0.02800   0.84707   0.39219   0.00000  Uiso   1.00
H695   H     0.33291   0.86251   0.47080   0.00000  Uiso   1.00
H696   H     0.33237   0.80383   0.02984   0.00000  Uiso   1.00
C697   C     0.29812   0.68797   0.23542   0.00000  Uiso   1.00
C698   C     0.03577   0.97875   0.26352   0.00000  Uiso   1.00
H699   H     0.27102   0.70413   0.22375   0.00000  Uiso   1.00
H700   H     0.06285   0.96261   0.27523   0.00000  Uiso   1.00
C701   C     0.29826   0.97857   0.23544   0.00000  Uiso   1.00
C702   C     0.03565   0.68814   0.26346   0.00000  Uiso   1.00
H703   H     0.27094   0.96230   0.22411   0.00000  Uiso   1.00
H704   H     0.06302   0.70439   0.27473   0.00000  Uiso   1.00
C705   C     0.00045   0.95722   0.24949   0.00000  Uiso   1.00
C706   C     0.33329   0.70948   0.24967   0.00000  Uiso   1.00
C707   C     0.18416   0.80117   0.26967   0.00000  Uiso   1.00
C708   C     0.14916   0.86554   0.23046   0.00000  Uiso   1.00
C709   C     0.13489   0.80155   0.26947   0.00000  Uiso   1.00
C710   C     0.19841   0.86517   0.23068   0.00000  Uiso   1.00
H711   H     0.11060   0.77632   0.28539   0.00000  Uiso   1.00
H712   H     0.22271   0.89039   0.21473   0.00000  Uiso   1.00
N713   N     0.11736   0.83334   0.24999   0.00000  Uiso   1.00
N714   N     0.21597   0.83332   0.25001   0.00000  Uiso   1.00
N715   N     0.26714   0.89199   0.04001   0.00000  Uiso   1.00
O716   O     0.29675   0.92092   0.01789   0.00000  Uiso   1.00
O717   O     0.25919   0.88881   0.08296   0.00000  Uiso   1.00
N718   N     0.06385   0.77575   0.45934   0.00000  Uiso   1.00
O719   O     0.07127   0.77960   0.41651   0.00000  Uiso   1.00
O720   O     0.03436   0.74662   0.48117   0.00000  Uiso   1.00
O721   O     0.12837   0.82641   0.11658   0.00000  Uiso   1.00
C722   C     0.15273   0.78812   0.11165   0.00000  Uiso   1.00
H723   H     0.19117   0.79471   0.11060   0.00000  Uiso   1.00
H724   H     0.15378   0.77217   0.08025   0.00000  Uiso   1.00
C725   C     0.12985   0.75904   0.15156   0.00000  Uiso   1.00
H726   H     0.12704   0.77543   0.18283   0.00000  Uiso   1.00
H727   H     0.09268   0.74953   0.15092   0.00000  Uiso   1.00
C728   C     0.16031   0.72064   0.15121   0.00000  Uiso   1.00
H729   H     0.16639   0.70475   0.11920   0.00000  Uiso   1.00
H730   H     0.14107   0.69897   0.17879   0.00000  Uiso   1.00
H731   H     0.19609   0.72938   0.15590   0.00000  Uiso   1.00
O732   O     0.20449   0.84353   0.38341   0.00000  Uiso   1.00
C733   C     0.19857   0.88589   0.37382   0.00000  Uiso   1.00
H734   H     0.18919   0.88762   0.34178   0.00000  Uiso   1.00
H735   H     0.23249   0.90501   0.36878   0.00000  Uiso   1.00
C736   C     0.15686   0.90421   0.41006   0.00000  Uiso   1.00
H737   H     0.12426   0.88343   0.41701   0.00000  Uiso   1.00
H738   H     0.16782   0.90705   0.44114   0.00000  Uiso   1.00
C739   C     0.14368   0.94696   0.39594   0.00000  Uiso   1.00
H740   H     0.17596   0.96811   0.38793   0.00000  Uiso   1.00
H741   H     0.11477   0.96004   0.42350   0.00000  Uiso   1.00
H742   H     0.12997   0.94480   0.36627   0.00000  Uiso   1.00
O743   O     0.16591   0.89284   0.07274   0.00000  Uiso   1.00
C744   C     0.14996   0.92824   0.05390   0.00000  Uiso   1.00
H745   H     0.12559   0.91963   0.03323   0.00000  Uiso   1.00
H746   H     0.18191   0.94627   0.03281   0.00000  Uiso   1.00
C747   C     0.12137   0.95549   0.09108   0.00000  Uiso   1.00
H748   H     0.08889   0.93794   0.11173   0.00000  Uiso   1.00
H749   H     0.14461   0.96400   0.11261   0.00000  Uiso   1.00
C750   C     0.10461   0.99485   0.07238   0.00000  Uiso   1.00
H751   H     0.13642   0.68014   0.05231   0.00000  Uiso   1.00
H752   H     0.08372   0.68044   0.10022   0.00000  Uiso   1.00
H753   H     0.08076   0.98702   0.05119   0.00000  Uiso   1.00
O754   O     0.16492   0.77715   0.42315   0.00000  Uiso   1.00
C755   C     0.17231   0.73636   0.43709   0.00000  Uiso   1.00
H756   H     0.16884   0.71538   0.41058   0.00000  Uiso   1.00
H757   H     0.14442   0.72551   0.46818   0.00000  Uiso   1.00
C758   C     0.22351   0.73235   0.44267   0.00000  Uiso   1.00
H759   H     0.25084   0.74454   0.41211   0.00000  Uiso   1.00
H760   H     0.22648   0.75075   0.47127   0.00000  Uiso   1.00
C761   C     0.23479   0.68743   0.45114   0.00000  Uiso   1.00
H762   H     0.20752   0.67442   0.48120   0.00000  Uiso   1.00
H763   H     0.27139   0.68579   0.45651   0.00000  Uiso   1.00
H764   H     0.23460   0.66858   0.42207   0.00000  Uiso   1.00
N765   N     0.19967   0.76611   0.29039   0.00000  Uiso   1.00
O766   O     0.21210   0.77052   0.32677   0.00000  Uiso   1.00
O767   O     0.18858   0.72917   0.28039   0.00000  Uiso   1.00
N768   N     0.13372   0.90051   0.20961   0.00000  Uiso   1.00
O769   O     0.14516   0.93750   0.21915   0.00000  Uiso   1.00
O770   O     0.12126   0.89581   0.17332   0.00000  Uiso   1.00
O771   O     0.37291   0.77322   0.25000   0.00000  Uiso   1.00
O772   O     0.62709   0.89345   0.25000   0.00000  Uiso   1.00
O773   O     0.62706   0.77321   0.25000   0.00000  Uiso   1.00
O774   O     0.37294   0.89346   0.25000   0.00000  Uiso   1.00
C775   C     0.66653   0.75409   0.24991   0.00000  Uiso   1.00
C776   C     0.33358   0.91259   0.24980   0.00000  Uiso   1.00
O777   O     0.35186   0.83334   0.31492   0.00000  Uiso   1.00
O778   O     0.64814   0.83332   0.18508   0.00000  Uiso   1.00
O779   O     0.60600   0.83333   0.31492   0.00000  Uiso   1.00
O780   O     0.39400   0.83333   0.18508   0.00000  Uiso   1.00
C781   C     0.63894   0.83492   0.33582   0.00000  Uiso   1.00
C782   C     0.36106   0.83186   0.16413   0.00000  Uiso   1.00
Cu783  Cu    0.38022   0.83334   0.25000   0.00000  Uiso   1.00
Cu784  Cu    0.61978   0.83333   0.25000   0.00000  Uiso   1.00
C785   C     0.62243   0.83944   0.38435   0.00000  Uiso   1.00
C786   C     0.37737   0.82736   0.11552   0.00000  Uiso   1.00
C787   C     0.63957   0.85460   0.45374   0.00000  Uiso   1.00
C788   C     0.35939   0.81170   0.04652   0.00000  Uiso   1.00
C789   C     0.65596   0.84590   0.40863   0.00000  Uiso   1.00
C790   C     0.34350   0.82054   0.09162   0.00000  Uiso   1.00
C791   C     0.57217   0.83939   0.40671   0.00000  Uiso   1.00
C792   C     0.42748   0.82758   0.09282   0.00000  Uiso   1.00
C793   C     0.55674   0.83823   0.45334   0.00000  Uiso   1.00
C794   C     0.44236   0.82826   0.04596   0.00000  Uiso   1.00
C795   C     0.58945   0.85318   0.47599   0.00000  Uiso   1.00
C796   C     0.40936   0.81318   0.02375   0.00000  Uiso   1.00
C797   C     0.50842   0.82667   0.47747   0.00000  Uiso   1.00
C798   C     0.49036   0.83994   0.02137   0.00000  Uiso   1.00
C799   C     0.51999   0.86643   0.03873   0.00000  Uiso   1.00
C800   C     0.47830   0.80086   0.45985   0.00000  Uiso   1.00
C801   C     0.57048   0.86894   0.01882   0.00000  Uiso   1.00
C802   C     0.42781   0.79804   0.48055   0.00000  Uiso   1.00
H803   H     0.63818   0.81946   0.10832   0.00000  Uiso   1.00
H804   H     0.36133   0.84707   0.39219   0.00000  Uiso   1.00
H805   H     0.66624   0.86251   0.47080   0.00000  Uiso   1.00
H806   H     0.66571   0.80383   0.02984   0.00000  Uiso   1.00
C807   C     0.63145   0.68797   0.23542   0.00000  Uiso   1.00
C808   C     0.36910   0.97875   0.26352   0.00000  Uiso   1.00
H809   H     0.60436   0.70413   0.22375   0.00000  Uiso   1.00
H810   H     0.39618   0.96261   0.27523   0.00000  Uiso   1.00
C811   C     0.63160   0.97857   0.23544   0.00000  Uiso   1.00
C812   C     0.36899   0.68814   0.26346   0.00000  Uiso   1.00
H813   H     0.60428   0.96230   0.22411   0.00000  Uiso   1.00
H814   H     0.39636   0.70439   0.27473   0.00000  Uiso   1.00
C815   C     0.33378   0.95722   0.24949   0.00000  Uiso   1.00
C816   C     0.66663   0.70948   0.24967   0.00000  Uiso   1.00
C817   C     0.51750   0.80117   0.26967   0.00000  Uiso   1.00
C818   C     0.48249   0.86554   0.23046   0.00000  Uiso   1.00
C819   C     0.46823   0.80155   0.26947   0.00000  Uiso   1.00
C820   C     0.53174   0.86517   0.23068   0.00000  Uiso   1.00
H821   H     0.44394   0.77632   0.28539   0.00000  Uiso   1.00
H822   H     0.55605   0.89039   0.21473   0.00000  Uiso   1.00
N823   N     0.45069   0.83334   0.24999   0.00000  Uiso   1.00
N824   N     0.54931   0.83332   0.25001   0.00000  Uiso   1.00
N825   N     0.60047   0.89199   0.04001   0.00000  Uiso   1.00
O826   O     0.63008   0.92092   0.01789   0.00000  Uiso   1.00
O827   O     0.59253   0.88881   0.08296   0.00000  Uiso   1.00
N828   N     0.39719   0.77575   0.45934   0.00000  Uiso   1.00
O829   O     0.40460   0.77960   0.41651   0.00000  Uiso   1.00
O830   O     0.36769   0.74662   0.48117   0.00000  Uiso   1.00
O831   O     0.46170   0.82641   0.11658   0.00000  Uiso   1.00
C832   C     0.48606   0.78812   0.11165   0.00000  Uiso   1.00
H833   H     0.52450   0.79471   0.11060   0.00000  Uiso   1.00
H834   H     0.48711   0.77217   0.08025   0.00000  Uiso   1.00
C835   C     0.46318   0.75904   0.15156   0.00000  Uiso   1.00
H836   H     0.46037   0.77543   0.18283   0.00000  Uiso   1.00
H837   H     0.42601   0.74953   0.15092   0.00000  Uiso   1.00
C838   C     0.49365   0.72064   0.15121   0.00000  Uiso   1.00
H839   H     0.49972   0.70475   0.11920   0.00000  Uiso   1.00
H840   H     0.47441   0.69897   0.17879   0.00000  Uiso   1.00
H841   H     0.52943   0.72938   0.15590   0.00000  Uiso   1.00
O842   O     0.53783   0.84353   0.38341   0.00000  Uiso   1.00
C843   C     0.53190   0.88589   0.37382   0.00000  Uiso   1.00
H844   H     0.52252   0.88762   0.34178   0.00000  Uiso   1.00
H845   H     0.56582   0.90501   0.36878   0.00000  Uiso   1.00
C846   C     0.49020   0.90421   0.41006   0.00000  Uiso   1.00
H847   H     0.45759   0.88343   0.41701   0.00000  Uiso   1.00
H848   H     0.50115   0.90705   0.44114   0.00000  Uiso   1.00
C849   C     0.47702   0.94696   0.39594   0.00000  Uiso   1.00
H850   H     0.50929   0.96811   0.38793   0.00000  Uiso   1.00
H851   H     0.44810   0.96004   0.42350   0.00000  Uiso   1.00
H852   H     0.46331   0.94480   0.36627   0.00000  Uiso   1.00
O853   O     0.49924   0.89284   0.07274   0.00000  Uiso   1.00
C854   C     0.48329   0.92824   0.05390   0.00000  Uiso   1.00
H855   H     0.45892   0.91963   0.03323   0.00000  Uiso   1.00
H856   H     0.51524   0.94627   0.03281   0.00000  Uiso   1.00
C857   C     0.45470   0.95549   0.09108   0.00000  Uiso   1.00
H858   H     0.42222   0.93794   0.11173   0.00000  Uiso   1.00
H859   H     0.47794   0.96400   0.11261   0.00000  Uiso   1.00
C860   C     0.43794   0.99485   0.07238   0.00000  Uiso   1.00
H861   H     0.46976   0.68014   0.05231   0.00000  Uiso   1.00
H862   H     0.41706   0.68044   0.10022   0.00000  Uiso   1.00
H863   H     0.41409   0.98702   0.05119   0.00000  Uiso   1.00
O864   O     0.49825   0.77715   0.42315   0.00000  Uiso   1.00
C865   C     0.50564   0.73636   0.43709   0.00000  Uiso   1.00
H866   H     0.50218   0.71538   0.41058   0.00000  Uiso   1.00
H867   H     0.47775   0.72551   0.46818   0.00000  Uiso   1.00
C868   C     0.55684   0.73235   0.44267   0.00000  Uiso   1.00
H869   H     0.58417   0.74454   0.41211   0.00000  Uiso   1.00
H870   H     0.55981   0.75075   0.47127   0.00000  Uiso   1.00
C871   C     0.56813   0.68743   0.45114   0.00000  Uiso   1.00
H872   H     0.54085   0.67442   0.48120   0.00000  Uiso   1.00
H873   H     0.60472   0.68579   0.45651   0.00000  Uiso   1.00
H874   H     0.56794   0.66858   0.42207   0.00000  Uiso   1.00
N875   N     0.53300   0.76611   0.29039   0.00000  Uiso   1.00
O876   O     0.54544   0.77052   0.32677   0.00000  Uiso   1.00
O877   O     0.52192   0.72917   0.28039   0.00000  Uiso   1.00
N878   N     0.46706   0.90051   0.20961   0.00000  Uiso   1.00
O879   O     0.47849   0.93750   0.21915   0.00000  Uiso   1.00
O880   O     0.45459   0.89581   0.17332   0.00000  Uiso   1.00
O881   O     0.70625   0.77322   0.25000   0.00000  Uiso   1.00
O882   O     0.96042   0.89345   0.25000   0.00000  Uiso   1.00
O883   O     0.96039   0.77321   0.25000   0.00000  Uiso   1.00
O884   O     0.70628   0.89346   0.25000   0.00000  Uiso   1.00
C885   C     0.99987   0.75409   0.24991   0.00000  Uiso   1.00
C886   C     0.66691   0.91259   0.24980   0.00000  Uiso   1.00
O887   O     0.68519   0.83334   0.31492   0.00000  Uiso   1.00
O888   O     0.98148   0.83332   0.18508   0.00000  Uiso   1.00
O889   O     0.93933   0.83333   0.31492   0.00000  Uiso   1.00
O890   O     0.72733   0.83333   0.18508   0.00000  Uiso   1.00
C891   C     0.97227   0.83492   0.33582   0.00000  Uiso   1.00
C892   C     0.69439   0.83186   0.16413   0.00000  Uiso   1.00
Cu893  Cu    0.71355   0.83334   0.25000   0.00000  Uiso   1.00
Cu894  Cu    0.95311   0.83333   0.25000   0.00000  Uiso   1.00
C895   C     0.95576   0.83944   0.38435   0.00000  Uiso   1.00
C896   C     0.71070   0.82736   0.11552   0.00000  Uiso   1.00
C897   C     0.97290   0.85460   0.45374   0.00000  Uiso   1.00
C898   C     0.69273   0.81170   0.04652   0.00000  Uiso   1.00
C899   C     0.98929   0.84590   0.40863   0.00000  Uiso   1.00
C900   C     0.67684   0.82054   0.09162   0.00000  Uiso   1.00
C901   C     0.90550   0.83939   0.40671   0.00000  Uiso   1.00
C902   C     0.76081   0.82758   0.09282   0.00000  Uiso   1.00
C903   C     0.89007   0.83823   0.45334   0.00000  Uiso   1.00
C904   C     0.77569   0.82826   0.04596   0.00000  Uiso   1.00
C905   C     0.92278   0.85318   0.47599   0.00000  Uiso   1.00
C906   C     0.74270   0.81318   0.02375   0.00000  Uiso   1.00
C907   C     0.84176   0.82667   0.47747   0.00000  Uiso   1.00
C908   C     0.82370   0.83994   0.02137   0.00000  Uiso   1.00
C909   C     0.85333   0.86643   0.03873   0.00000  Uiso   1.00
C910   C     0.81163   0.80086   0.45985   0.00000  Uiso   1.00
C911   C     0.90382   0.86894   0.01882   0.00000  Uiso   1.00
C912   C     0.76114   0.79804   0.48055   0.00000  Uiso   1.00
H913   H     0.97152   0.81946   0.10832   0.00000  Uiso   1.00
H914   H     0.69467   0.84707   0.39219   0.00000  Uiso   1.00
H915   H     0.99958   0.86251   0.47080   0.00000  Uiso   1.00
H916   H     0.99904   0.80383   0.02984   0.00000  Uiso   1.00
C917   C     0.96478   0.68797   0.23542   0.00000  Uiso   1.00
C918   C     0.70244   0.97875   0.26352   0.00000  Uiso   1.00
H919   H     0.93769   0.70413   0.22375   0.00000  Uiso   1.00
H920   H     0.72952   0.96261   0.27523   0.00000  Uiso   1.00
C921   C     0.96493   0.97857   0.23544   0.00000  Uiso   1.00
C922   C     0.70232   0.68814   0.26346   0.00000  Uiso   1.00
H923   H     0.93761   0.96230   0.22411   0.00000  Uiso   1.00
H924   H     0.72969   0.70439   0.27473   0.00000  Uiso   1.00
C925   C     0.66711   0.95722   0.24949   0.00000  Uiso   1.00
C926   C     0.99996   0.70948   0.24967   0.00000  Uiso   1.00
C927   C     0.85083   0.80117   0.26967   0.00000  Uiso   1.00
C928   C     0.81583   0.86554   0.23046   0.00000  Uiso   1.00
C929   C     0.80156   0.80155   0.26947   0.00000  Uiso   1.00
C930   C     0.86508   0.86517   0.23068   0.00000  Uiso   1.00
H931   H     0.77727   0.77632   0.28539   0.00000  Uiso   1.00
H932   H     0.88938   0.89039   0.21473   0.00000  Uiso   1.00
N933   N     0.78403   0.83334   0.24999   0.00000  Uiso   1.00
N934   N     0.88264   0.83332   0.25001   0.00000  Uiso   1.00
N935   N     0.93380   0.89199   0.04001   0.00000  Uiso   1.00
O936   O     0.96342   0.92092   0.01789   0.00000  Uiso   1.00
O937   O     0.92586   0.88881   0.08296   0.00000  Uiso   1.00
N938   N     0.73052   0.77575   0.45934   0.00000  Uiso   1.00
O939   O     0.73793   0.77960   0.41651   0.00000  Uiso   1.00
O940   O     0.70102   0.74662   0.48117   0.00000  Uiso   1.00
O941   O     0.79504   0.82641   0.11658   0.00000  Uiso   1.00
C942   C     0.81939   0.78812   0.11165   0.00000  Uiso   1.00
H943   H     0.85784   0.79471   0.11060   0.00000  Uiso   1.00
H944   H     0.82044   0.77217   0.08025   0.00000  Uiso   1.00
C945   C     0.79651   0.75904   0.15156   0.00000  Uiso   1.00
H946   H     0.79370   0.77543   0.18283   0.00000  Uiso   1.00
H947   H     0.75935   0.74953   0.15092   0.00000  Uiso   1.00
C948   C     0.82698   0.72064   0.15121   0.00000  Uiso   1.00
H949   H     0.83305   0.70475   0.11920   0.00000  Uiso   1.00
H950   H     0.80774   0.69897   0.17879   0.00000  Uiso   1.00
H951   H     0.86276   0.72938   0.15590   0.00000  Uiso   1.00
O952   O     0.87116   0.84353   0.38341   0.00000  Uiso   1.00
C953   C     0.86524   0.88589   0.37382   0.00000  Uiso   1.00
H954   H     0.85586   0.88762   0.34178   0.00000  Uiso   1.00
H955   H     0.89915   0.90501   0.36878   0.00000  Uiso   1.00
C956   C     0.82353   0.90421   0.41006   0.00000  Uiso   1.00
H957   H     0.79092   0.88343   0.41701   0.00000  Uiso   1.00
H958   H     0.83449   0.90705   0.44114   0.00000  Uiso   1.00
C959   C     0.81035   0.94696   0.39594   0.00000  Uiso   1.00
H960   H     0.84263   0.96811   0.38793   0.00000  Uiso   1.00
H961   H     0.78144   0.96004   0.42350   0.00000  Uiso   1.00
H962   H     0.79664   0.94480   0.36627   0.00000  Uiso   1.00
O963   O     0.83257   0.89284   0.07274   0.00000  Uiso   1.00
C964   C     0.81662   0.92824   0.05390   0.00000  Uiso   1.00
H965   H     0.79226   0.91963   0.03323   0.00000  Uiso   1.00
H966   H     0.84858   0.94627   0.03281   0.00000  Uiso   1.00
C967   C     0.78803   0.95549   0.09108   0.00000  Uiso   1.00
H968   H     0.75556   0.93794   0.11173   0.00000  Uiso   1.00
H969   H     0.81127   0.96400   0.11261   0.00000  Uiso   1.00
C970   C     0.77127   0.99485   0.07238   0.00000  Uiso   1.00
H971   H     0.80309   0.68014   0.05231   0.00000  Uiso   1.00
H972   H     0.75039   0.68044   0.10022   0.00000  Uiso   1.00
H973   H     0.74743   0.98702   0.05119   0.00000  Uiso   1.00
O974   O     0.83159   0.77715   0.42315   0.00000  Uiso   1.00
C975   C     0.83898   0.73636   0.43709   0.00000  Uiso   1.00
H976   H     0.83551   0.71538   0.41058   0.00000  Uiso   1.00
H977   H     0.81108   0.72551   0.46818   0.00000  Uiso   1.00
C978   C     0.89017   0.73235   0.44267   0.00000  Uiso   1.00
H979   H     0.91750   0.74454   0.41211   0.00000  Uiso   1.00
H980   H     0.89315   0.75075   0.47127   0.00000  Uiso   1.00
C981   C     0.90146   0.68743   0.45114   0.00000  Uiso   1.00
H982   H     0.87419   0.67442   0.48120   0.00000  Uiso   1.00
H983   H     0.93805   0.68579   0.45651   0.00000  Uiso   1.00
H984   H     0.90127   0.66858   0.42207   0.00000  Uiso   1.00
N985   N     0.86634   0.76611   0.29039   0.00000  Uiso   1.00
O986   O     0.87877   0.77052   0.32677   0.00000  Uiso   1.00
O987   O     0.85525   0.72917   0.28039   0.00000  Uiso   1.00
N988   N     0.80039   0.90051   0.20961   0.00000  Uiso   1.00
O989   O     0.81183   0.93750   0.21915   0.00000  Uiso   1.00
O990   O     0.78792   0.89581   0.17332   0.00000  Uiso   1.00
O991   O     0.03958   0.10655   0.75000   0.00000  Uiso   1.00
O992   O     0.29375   0.22678   0.75000   0.00000  Uiso   1.00
O993   O     0.29372   0.10654   0.75000   0.00000  Uiso   1.00
O994   O     0.03961   0.22679   0.75000   0.00000  Uiso   1.00
C995   C     0.33320   0.08742   0.74991   0.00000  Uiso   1.00
C996   C     0.00024   0.24592   0.74980   0.00000  Uiso   1.00
O997   O     0.01852   0.16668   0.81492   0.00000  Uiso   1.00
O998   O     0.31481   0.16666   0.68508   0.00000  Uiso   1.00
O999   O     0.27267   0.16667   0.81492   0.00000  Uiso   1.00
O1000  O     0.06067   0.16667   0.68508   0.00000  Uiso   1.00
C1001  C     0.30561   0.16825   0.83582   0.00000  Uiso   1.00
C1002  C     0.02773   0.16519   0.66413   0.00000  Uiso   1.00
Cu1003 Cu    0.04689   0.16667   0.75000   0.00000  Uiso   1.00
Cu1004 Cu    0.28645   0.16666   0.75000   0.00000  Uiso   1.00
C1005  C     0.28910   0.17278   0.88435   0.00000  Uiso   1.00
C1006  C     0.04403   0.16069   0.61552   0.00000  Uiso   1.00
C1007  C     0.30624   0.18793   0.95374   0.00000  Uiso   1.00
C1008  C     0.02606   0.14503   0.54652   0.00000  Uiso   1.00
C1009  C     0.32263   0.17924   0.90863   0.00000  Uiso   1.00
C1010  C     0.01017   0.15388   0.59162   0.00000  Uiso   1.00
C1011  C     0.23884   0.17272   0.90671   0.00000  Uiso   1.00
C1012  C     0.09414   0.16092   0.59282   0.00000  Uiso   1.00
C1013  C     0.22340   0.17156   0.95334   0.00000  Uiso   1.00
C1014  C     0.10902   0.16159   0.54596   0.00000  Uiso   1.00
C1015  C     0.25612   0.18652   0.97599   0.00000  Uiso   1.00
C1016  C     0.07603   0.14651   0.52375   0.00000  Uiso   1.00
C1017  C     0.17509   0.16000   0.97747   0.00000  Uiso   1.00
C1018  C     0.15703   0.17327   0.52137   0.00000  Uiso   1.00
C1019  C     0.18666   0.19976   0.53873   0.00000  Uiso   1.00
C1020  C     0.14497   0.13419   0.95985   0.00000  Uiso   1.00
C1021  C     0.23715   0.20227   0.51882   0.00000  Uiso   1.00
C1022  C     0.09447   0.13138   0.98055   0.00000  Uiso   1.00
H1023  H     0.30485   0.15280   0.60832   0.00000  Uiso   1.00
H1024  H     0.02800   0.18040   0.89219   0.00000  Uiso   1.00
H1025  H     0.33291   0.19584   0.97080   0.00000  Uiso   1.00
H1026  H     0.33237   0.13716   0.52984   0.00000  Uiso   1.00
C1027  C     0.29812   0.02130   0.73542   0.00000  Uiso   1.00
C1028  C     0.03577   0.31208   0.76352   0.00000  Uiso   1.00
H1029  H     0.27102   0.03747   0.72375   0.00000  Uiso   1.00
H1030  H     0.06285   0.29594   0.77523   0.00000  Uiso   1.00
C1031  C     0.29826   0.31190   0.73544   0.00000  Uiso   1.00
C1032  C     0.03565   0.02147   0.76346   0.00000  Uiso   1.00
H1033  H     0.27094   0.29563   0.72411   0.00000  Uiso   1.00
H1034  H     0.06302   0.03773   0.77473   0.00000  Uiso   1.00
C1035  C     0.00045   0.29056   0.74949   0.00000  Uiso   1.00
C1036  C     0.33329   0.04281   0.74967   0.00000  Uiso   1.00
C1037  C     0.18416   0.13450   0.76967   0.00000  Uiso   1.00
C1038  C     0.14916   0.19887   0.73046   0.00000  Uiso   1.00
C1039  C     0.13489   0.13489   0.76947   0.00000  Uiso   1.00
C1040  C     0.19841   0.19850   0.73068   0.00000  Uiso   1.00
H1041  H     0.11060   0.10965   0.78539   0.00000  Uiso   1.00
H1042  H     0.22271   0.22372   0.71473   0.00000  Uiso   1.00
N1043  N     0.11736   0.16668   0.74999   0.00000  Uiso   1.00
N1044  N     0.21597   0.16666   0.75001   0.00000  Uiso   1.00
N1045  N     0.26714   0.22532   0.54001   0.00000  Uiso   1.00
O1046  O     0.29675   0.25425   0.51789   0.00000  Uiso   1.00
O1047  O     0.25919   0.22215   0.58296   0.00000  Uiso   1.00
N1048  N     0.06385   0.10909   0.95934   0.00000  Uiso   1.00
O1049  O     0.07127   0.11294   0.91651   0.00000  Uiso   1.00
O1050  O     0.03436   0.07995   0.98117   0.00000  Uiso   1.00
O1051  O     0.12837   0.15974   0.61658   0.00000  Uiso   1.00
C1052  C     0.15273   0.12145   0.61165   0.00000  Uiso   1.00
H1053  H     0.19117   0.12804   0.61060   0.00000  Uiso   1.00
H1054  H     0.15378   0.10551   0.58025   0.00000  Uiso   1.00
C1055  C     0.12985   0.09238   0.65156   0.00000  Uiso   1.00
H1056  H     0.12704   0.10877   0.68283   0.00000  Uiso   1.00
H1057  H     0.09268   0.08286   0.65092   0.00000  Uiso   1.00
C1058  C     0.16031   0.05398   0.65121   0.00000  Uiso   1.00
H1059  H     0.16639   0.03809   0.61920   0.00000  Uiso   1.00
H1060  H     0.14107   0.03231   0.67879   0.00000  Uiso   1.00
H1061  H     0.19609   0.06271   0.65590   0.00000  Uiso   1.00
O1062  O     0.20449   0.17686   0.88341   0.00000  Uiso   1.00
C1063  C     0.19857   0.21922   0.87382   0.00000  Uiso   1.00
H1064  H     0.18919   0.22095   0.84178   0.00000  Uiso   1.00
H1065  H     0.23249   0.23835   0.86878   0.00000  Uiso   1.00
C1066  C     0.15686   0.23754   0.91006   0.00000  Uiso   1.00
H1067  H     0.12426   0.21676   0.91701   0.00000  Uiso   1.00
H1068  H     0.16782   0.24039   0.94114   0.00000  Uiso   1.00
C1069  C     0.14368   0.28029   0.89594   0.00000  Uiso   1.00
H1070  H     0.17596   0.30144   0.88793   0.00000  Uiso   1.00
H1071  H     0.11477   0.29338   0.92350   0.00000  Uiso   1.00
H1072  H     0.12997   0.27813   0.86627   0.00000  Uiso   1.00
O1073  O     0.16591   0.22617   0.57274   0.00000  Uiso   1.00
C1074  C     0.14996   0.26157   0.55390   0.00000  Uiso   1.00
H1075  H     0.12559   0.25296   0.53323   0.00000  Uiso   1.00
H1076  H     0.18191   0.27961   0.53281   0.00000  Uiso   1.00
C1077  C     0.12137   0.28883   0.59108   0.00000  Uiso   1.00
H1078  H     0.08889   0.27127   0.61173   0.00000  Uiso   1.00
H1079  H     0.14461   0.29733   0.61261   0.00000  Uiso   1.00
C1080  C     0.10461   0.32818   0.57238   0.00000  Uiso   1.00
H1081  H     0.13642   0.01347   0.55231   0.00000  Uiso   1.00
H1082  H     0.08372   0.01377   0.60022   0.00000  Uiso   1.00
H1083  H     0.08076   0.32035   0.55119   0.00000  Uiso   1.00
O1084  O     0.16492   0.11048   0.92315   0.00000  Uiso   1.00
C1085  C     0.17231   0.06969   0.93709   0.00000  Uiso   1.00
H1086  H     0.16884   0.04872   0.91058   0.00000  Uiso   1.00
H1087  H     0.14442   0.05884   0.96818   0.00000  Uiso   1.00
C1088  C     0.22351   0.06569   0.94267   0.00000  Uiso   1.00
H1089  H     0.25084   0.07787   0.91211   0.00000  Uiso   1.00
H1090  H     0.22648   0.08409   0.97127   0.00000  Uiso   1.00
C1091  C     0.23479   0.02076   0.95114   0.00000  Uiso   1.00
H1092  H     0.20752   0.00775   0.98120   0.00000  Uiso   1.00
H1093  H     0.27139   0.01913   0.95651   0.00000  Uiso   1.00
H1094  H     0.23460   0.00191   0.92207   0.00000  Uiso   1.00
N1095  N     0.19967   0.09944   0.79039   0.00000  Uiso   1.00
O1096  O     0.21210   0.10385   0.82677   0.00000  Uiso   1.00
O1097  O     0.18858   0.06251   0.78039   0.00000  Uiso   1.00
N1098  N     0.13372   0.23384   0.70961   0.00000  Uiso   1.00
O1099  O     0.14516   0.27084   0.71915   0.00000  Uiso   1.00
O1100  O     0.12126   0.22914   0.67332   0.00000  Uiso   1.00
O1101  O     0.37291   0.10655   0.75000   0.00000  Uiso   1.00
O1102  O     0.62709   0.22678   0.75000   0.00000  Uiso   1.00
O1103  O     0.62706   0.10654   0.75000   0.00000  Uiso   1.00
O1104  O     0.37294   0.22679   0.75000   0.00000  Uiso   1.00
C1105  C     0.66653   0.08742   0.74991   0.00000  Uiso   1.00
C1106  C     0.33358   0.24592   0.74980   0.00000  Uiso   1.00
O1107  O     0.35186   0.16668   0.81492   0.00000  Uiso   1.00
O1108  O     0.64814   0.16666   0.68508   0.00000  Uiso   1.00
O1109  O     0.60600   0.16667   0.81492   0.00000  Uiso   1.00
O1110  O     0.39400   0.16667   0.68508   0.00000  Uiso   1.00
C1111  C     0.63894   0.16825   0.83582   0.00000  Uiso   1.00
C1112  C     0.36106   0.16519   0.66413   0.00000  Uiso   1.00
Cu1113 Cu    0.38022   0.16667   0.75000   0.00000  Uiso   1.00
Cu1114 Cu    0.61978   0.16666   0.75000   0.00000  Uiso   1.00
C1115  C     0.62243   0.17278   0.88435   0.00000  Uiso   1.00
C1116  C     0.37737   0.16069   0.61552   0.00000  Uiso   1.00
C1117  C     0.63957   0.18793   0.95374   0.00000  Uiso   1.00
C1118  C     0.35939   0.14503   0.54652   0.00000  Uiso   1.00
C1119  C     0.65596   0.17924   0.90863   0.00000  Uiso   1.00
C1120  C     0.34350   0.15388   0.59162   0.00000  Uiso   1.00
C1121  C     0.57217   0.17272   0.90671   0.00000  Uiso   1.00
C1122  C     0.42748   0.16092   0.59282   0.00000  Uiso   1.00
C1123  C     0.55674   0.17156   0.95334   0.00000  Uiso   1.00
C1124  C     0.44236   0.16159   0.54596   0.00000  Uiso   1.00
C1125  C     0.58945   0.18652   0.97599   0.00000  Uiso   1.00
C1126  C     0.40936   0.14651   0.52375   0.00000  Uiso   1.00
C1127  C     0.50842   0.16000   0.97747   0.00000  Uiso   1.00
C1128  C     0.49036   0.17327   0.52137   0.00000  Uiso   1.00
C1129  C     0.51999   0.19976   0.53873   0.00000  Uiso   1.00
C1130  C     0.47830   0.13419   0.95985   0.00000  Uiso   1.00
C1131  C     0.57048   0.20227   0.51882   0.00000  Uiso   1.00
C1132  C     0.42781   0.13138   0.98055   0.00000  Uiso   1.00
H1133  H     0.63818   0.15280   0.60832   0.00000  Uiso   1.00
H1134  H     0.36133   0.18040   0.89219   0.00000  Uiso   1.00
H1135  H     0.66624   0.19584   0.97080   0.00000  Uiso   1.00
H1136  H     0.66571   0.13716   0.52984   0.00000  Uiso   1.00
C1137  C     0.63145   0.02130   0.73542   0.00000  Uiso   1.00
C1138  C     0.36910   0.31208   0.76352   0.00000  Uiso   1.00
H1139  H     0.60436   0.03747   0.72375   0.00000  Uiso   1.00
H1140  H     0.39618   0.29594   0.77523   0.00000  Uiso   1.00
C1141  C     0.63160   0.31190   0.73544   0.00000  Uiso   1.00
C1142  C     0.36899   0.02147   0.76346   0.00000  Uiso   1.00
H1143  H     0.60428   0.29563   0.72411   0.00000  Uiso   1.00
H1144  H     0.39636   0.03773   0.77473   0.00000  Uiso   1.00
C1145  C     0.33378   0.29056   0.74949   0.00000  Uiso   1.00
C1146  C     0.66663   0.04281   0.74967   0.00000  Uiso   1.00
C1147  C     0.51750   0.13450   0.76967   0.00000  Uiso   1.00
C1148  C     0.48249   0.19887   0.73046   0.00000  Uiso   1.00
C1149  C     0.46823   0.13489   0.76947   0.00000  Uiso   1.00
C1150  C     0.53174   0.19850   0.73068   0.00000  Uiso   1.00
H1151  H     0.44394   0.10965   0.78539   0.00000  Uiso   1.00
H1152  H     0.55605   0.22372   0.71473   0.00000  Uiso   1.00
N1153  N     0.45069   0.16668   0.74999   0.00000  Uiso   1.00
N1154  N     0.54931   0.16666   0.75001   0.00000  Uiso   1.00
N1155  N     0.60047   0.22532   0.54001   0.00000  Uiso   1.00
O1156  O     0.63008   0.25425   0.51789   0.00000  Uiso   1.00
O1157  O     0.59253   0.22215   0.58296   0.00000  Uiso   1.00
N1158  N     0.39719   0.10909   0.95934   0.00000  Uiso   1.00
O1159  O     0.40460   0.11294   0.91651   0.00000  Uiso   1.00
O1160  O     0.36769   0.07995   0.98117   0.00000  Uiso   1.00
O1161  O     0.46170   0.15974   0.61658   0.00000  Uiso   1.00
C1162  C     0.48606   0.12145   0.61165   0.00000  Uiso   1.00
H1163  H     0.52450   0.12804   0.61060   0.00000  Uiso   1.00
H1164  H     0.48711   0.10551   0.58025   0.00000  Uiso   1.00
C1165  C     0.46318   0.09238   0.65156   0.00000  Uiso   1.00
H1166  H     0.46037   0.10877   0.68283   0.00000  Uiso   1.00
H1167  H     0.42601   0.08286   0.65092   0.00000  Uiso   1.00
C1168  C     0.49365   0.05398   0.65121   0.00000  Uiso   1.00
H1169  H     0.49972   0.03809   0.61920   0.00000  Uiso   1.00
H1170  H     0.47441   0.03231   0.67879   0.00000  Uiso   1.00
H1171  H     0.52943   0.06271   0.65590   0.00000  Uiso   1.00
O1172  O     0.53783   0.17686   0.88341   0.00000  Uiso   1.00
C1173  C     0.53190   0.21922   0.87382   0.00000  Uiso   1.00
H1174  H     0.52252   0.22095   0.84178   0.00000  Uiso   1.00
H1175  H     0.56582   0.23835   0.86878   0.00000  Uiso   1.00
C1176  C     0.49020   0.23754   0.91006   0.00000  Uiso   1.00
H1177  H     0.45759   0.21676   0.91701   0.00000  Uiso   1.00
H1178  H     0.50115   0.24039   0.94114   0.00000  Uiso   1.00
C1179  C     0.47702   0.28029   0.89594   0.00000  Uiso   1.00
H1180  H     0.50929   0.30144   0.88793   0.00000  Uiso   1.00
H1181  H     0.44810   0.29338   0.92350   0.00000  Uiso   1.00
H1182  H     0.46331   0.27813   0.86627   0.00000  Uiso   1.00
O1183  O     0.49924   0.22617   0.57274   0.00000  Uiso   1.00
C1184  C     0.48329   0.26157   0.55390   0.00000  Uiso   1.00
H1185  H     0.45892   0.25296   0.53323   0.00000  Uiso   1.00
H1186  H     0.51524   0.27961   0.53281   0.00000  Uiso   1.00
C1187  C     0.45470   0.28883   0.59108   0.00000  Uiso   1.00
H1188  H     0.42222   0.27127   0.61173   0.00000  Uiso   1.00
H1189  H     0.47794   0.29733   0.61261   0.00000  Uiso   1.00
C1190  C     0.43794   0.32818   0.57238   0.00000  Uiso   1.00
H1191  H     0.46976   0.01347   0.55231   0.00000  Uiso   1.00
H1192  H     0.41706   0.01377   0.60022   0.00000  Uiso   1.00
H1193  H     0.41409   0.32035   0.55119   0.00000  Uiso   1.00
O1194  O     0.49825   0.11048   0.92315   0.00000  Uiso   1.00
C1195  C     0.50564   0.06969   0.93709   0.00000  Uiso   1.00
H1196  H     0.50218   0.04872   0.91058   0.00000  Uiso   1.00
H1197  H     0.47775   0.05884   0.96818   0.00000  Uiso   1.00
C1198  C     0.55684   0.06569   0.94267   0.00000  Uiso   1.00
H1199  H     0.58417   0.07787   0.91211   0.00000  Uiso   1.00
H1200  H     0.55981   0.08409   0.97127   0.00000  Uiso   1.00
C1201  C     0.56813   0.02076   0.95114   0.00000  Uiso   1.00
H1202  H     0.54085   0.00775   0.98120   0.00000  Uiso   1.00
H1203  H     0.60472   0.01913   0.95651   0.00000  Uiso   1.00
H1204  H     0.56794   0.00191   0.92207   0.00000  Uiso   1.00
N1205  N     0.53300   0.09944   0.79039   0.00000  Uiso   1.00
O1206  O     0.54544   0.10385   0.82677   0.00000  Uiso   1.00
O1207  O     0.52192   0.06251   0.78039   0.00000  Uiso   1.00
N1208  N     0.46706   0.23384   0.70961   0.00000  Uiso   1.00
O1209  O     0.47849   0.27084   0.71915   0.00000  Uiso   1.00
O1210  O     0.45459   0.22914   0.67332   0.00000  Uiso   1.00
O1211  O     0.70625   0.10655   0.75000   0.00000  Uiso   1.00
O1212  O     0.96042   0.22678   0.75000   0.00000  Uiso   1.00
O1213  O     0.96039   0.10654   0.75000   0.00000  Uiso   1.00
O1214  O     0.70628   0.22679   0.75000   0.00000  Uiso   1.00
C1215  C     0.99987   0.08742   0.74991   0.00000  Uiso   1.00
C1216  C     0.66691   0.24592   0.74980   0.00000  Uiso   1.00
O1217  O     0.68519   0.16668   0.81492   0.00000  Uiso   1.00
O1218  O     0.98148   0.16666   0.68508   0.00000  Uiso   1.00
O1219  O     0.93933   0.16667   0.81492   0.00000  Uiso   1.00
O1220  O     0.72733   0.16667   0.68508   0.00000  Uiso   1.00
C1221  C     0.97227   0.16825   0.83582   0.00000  Uiso   1.00
C1222  C     0.69439   0.16519   0.66413   0.00000  Uiso   1.00
Cu1223 Cu    0.71355   0.16667   0.75000   0.00000  Uiso   1.00
Cu1224 Cu    0.95311   0.16666   0.75000   0.00000  Uiso   1.00
C1225  C     0.95576   0.17278   0.88435   0.00000  Uiso   1.00
C1226  C     0.71070   0.16069   0.61552   0.00000  Uiso   1.00
C1227  C     0.97290   0.18793   0.95374   0.00000  Uiso   1.00
C1228  C     0.69273   0.14503   0.54652   0.00000  Uiso   1.00
C1229  C     0.98929   0.17924   0.90863   0.00000  Uiso   1.00
C1230  C     0.67684   0.15388   0.59162   0.00000  Uiso   1.00
C1231  C     0.90550   0.17272   0.90671   0.00000  Uiso   1.00
C1232  C     0.76081   0.16092   0.59282   0.00000  Uiso   1.00
C1233  C     0.89007   0.17156   0.95334   0.00000  Uiso   1.00
C1234  C     0.77569   0.16159   0.54596   0.00000  Uiso   1.00
C1235  C     0.92278   0.18652   0.97599   0.00000  Uiso   1.00
C1236  C     0.74270   0.14651   0.52375   0.00000  Uiso   1.00
C1237  C     0.84176   0.16000   0.97747   0.00000  Uiso   1.00
C1238  C     0.82370   0.17327   0.52137   0.00000  Uiso   1.00
C1239  C     0.85333   0.19976   0.53873   0.00000  Uiso   1.00
C1240  C     0.81163   0.13419   0.95985   0.00000  Uiso   1.00
C1241  C     0.90382   0.20227   0.51882   0.00000  Uiso   1.00
C1242  C     0.76114   0.13138   0.98055   0.00000  Uiso   1.00
H1243  H     0.97152   0.15280   0.60832   0.00000  Uiso   1.00
H1244  H     0.69467   0.18040   0.89219   0.00000  Uiso   1.00
H1245  H     0.99958   0.19584   0.97080   0.00000  Uiso   1.00
H1246  H     0.99904   0.13716   0.52984   0.00000  Uiso   1.00
C1247  C     0.96478   0.02130   0.73542   0.00000  Uiso   1.00
C1248  C     0.70244   0.31208   0.76352   0.00000  Uiso   1.00
H1249  H     0.93769   0.03747   0.72375   0.00000  Uiso   1.00
H1250  H     0.72952   0.29594   0.77523   0.00000  Uiso   1.00
C1251  C     0.96493   0.31190   0.73544   0.00000  Uiso   1.00
C1252  C     0.70232   0.02147   0.76346   0.00000  Uiso   1.00
H1253  H     0.93761   0.29563   0.72411   0.00000  Uiso   1.00
H1254  H     0.72969   0.03773   0.77473   0.00000  Uiso   1.00
C1255  C     0.66711   0.29056   0.74949   0.00000  Uiso   1.00
C1256  C     0.99996   0.04281   0.74967   0.00000  Uiso   1.00
C1257  C     0.85083   0.13450   0.76967   0.00000  Uiso   1.00
C1258  C     0.81583   0.19887   0.73046   0.00000  Uiso   1.00
C1259  C     0.80156   0.13489   0.76947   0.00000  Uiso   1.00
C1260  C     0.86508   0.19850   0.73068   0.00000  Uiso   1.00
H1261  H     0.77727   0.10965   0.78539   0.00000  Uiso   1.00
H1262  H     0.88938   0.22372   0.71473   0.00000  Uiso   1.00
N1263  N     0.78403   0.16668   0.74999   0.00000  Uiso   1.00
N1264  N     0.88264   0.16666   0.75001   0.00000  Uiso   1.00
N1265  N     0.93380   0.22532   0.54001   0.00000  Uiso   1.00
O1266  O     0.96342   0.25425   0.51789   0.00000  Uiso   1.00
O1267  O     0.92586   0.22215   0.58296   0.00000  Uiso   1.00
N1268  N     0.73052   0.10909   0.95934   0.00000  Uiso   1.00
O1269  O     0.73793   0.11294   0.91651   0.00000  Uiso   1.00
O1270  O     0.70102   0.07995   0.98117   0.00000  Uiso   1.00
O1271  O     0.79504   0.15974   0.61658   0.00000  Uiso   1.00
C1272  C     0.81939   0.12145   0.61165   0.00000  Uiso   1.00
H1273  H     0.85784   0.12804   0.61060   0.00000  Uiso   1.00
H1274  H     0.82044   0.10551   0.58025   0.00000  Uiso   1.00
C1275  C     0.79651   0.09238   0.65156   0.00000  Uiso   1.00
H1276  H     0.79370   0.10877   0.68283   0.00000  Uiso   1.00
H1277  H     0.75935   0.08286   0.65092   0.00000  Uiso   1.00
C1278  C     0.82698   0.05398   0.65121   0.00000  Uiso   1.00
H1279  H     0.83305   0.03809   0.61920   0.00000  Uiso   1.00
H1280  H     0.80774   0.03231   0.67879   0.00000  Uiso   1.00
H1281  H     0.86276   0.06271   0.65590   0.00000  Uiso   1.00
O1282  O     0.87116   0.17686   0.88341   0.00000  Uiso   1.00
C1283  C     0.86524   0.21922   0.87382   0.00000  Uiso   1.00
H1284  H     0.85586   0.22095   0.84178   0.00000  Uiso   1.00
H1285  H     0.89915   0.23835   0.86878   0.00000  Uiso   1.00
C1286  C     0.82353   0.23754   0.91006   0.00000  Uiso   1.00
H1287  H     0.79092   0.21676   0.91701   0.00000  Uiso   1.00
H1288  H     0.83449   0.24039   0.94114   0.00000  Uiso   1.00
C1289  C     0.81035   0.28029   0.89594   0.00000  Uiso   1.00
H1290  H     0.84263   0.30144   0.88793   0.00000  Uiso   1.00
H1291  H     0.78144   0.29338   0.92350   0.00000  Uiso   1.00
H1292  H     0.79664   0.27813   0.86627   0.00000  Uiso   1.00
O1293  O     0.83257   0.22617   0.57274   0.00000  Uiso   1.00
C1294  C     0.81662   0.26157   0.55390   0.00000  Uiso   1.00
H1295  H     0.79226   0.25296   0.53323   0.00000  Uiso   1.00
H1296  H     0.84858   0.27961   0.53281   0.00000  Uiso   1.00
C1297  C     0.78803   0.28883   0.59108   0.00000  Uiso   1.00
H1298  H     0.75556   0.27127   0.61173   0.00000  Uiso   1.00
H1299  H     0.81127   0.29733   0.61261   0.00000  Uiso   1.00
C1300  C     0.77127   0.32818   0.57238   0.00000  Uiso   1.00
H1301  H     0.80309   0.01347   0.55231   0.00000  Uiso   1.00
H1302  H     0.75039   0.01377   0.60022   0.00000  Uiso   1.00
H1303  H     0.74743   0.32035   0.55119   0.00000  Uiso   1.00
O1304  O     0.83159   0.11048   0.92315   0.00000  Uiso   1.00
C1305  C     0.83898   0.06969   0.93709   0.00000  Uiso   1.00
H1306  H     0.83551   0.04872   0.91058   0.00000  Uiso   1.00
H1307  H     0.81108   0.05884   0.96818   0.00000  Uiso   1.00
C1308  C     0.89017   0.06569   0.94267   0.00000  Uiso   1.00
H1309  H     0.91750   0.07787   0.91211   0.00000  Uiso   1.00
H1310  H     0.89315   0.08409   0.97127   0.00000  Uiso   1.00
C1311  C     0.90146   0.02076   0.95114   0.00000  Uiso   1.00
H1312  H     0.87419   0.00775   0.98120   0.00000  Uiso   1.00
H1313  H     0.93805   0.01913   0.95651   0.00000  Uiso   1.00
H1314  H     0.90127   0.00191   0.92207   0.00000  Uiso   1.00
N1315  N     0.86634   0.09944   0.79039   0.00000  Uiso   1.00
O1316  O     0.87877   0.10385   0.82677   0.00000  Uiso   1.00
O1317  O     0.85525   0.06251   0.78039   0.00000  Uiso   1.00
N1318  N     0.80039   0.23384   0.70961   0.00000  Uiso   1.00
O1319  O     0.81183   0.27084   0.71915   0.00000  Uiso   1.00
O1320  O     0.78792   0.22914   0.67332   0.00000  Uiso   1.00
O1321  O     0.03958   0.43989   0.75000   0.00000  Uiso   1.00
O1322  O     0.29375   0.56011   0.75000   0.00000  Uiso   1.00
O1323  O     0.29372   0.43988   0.75000   0.00000  Uiso   1.00
O1324  O     0.03961   0.56012   0.75000   0.00000  Uiso   1.00
C1325  C     0.33320   0.42076   0.74991   0.00000  Uiso   1.00
C1326  C     0.00024   0.57925   0.74980   0.00000  Uiso   1.00
O1327  O     0.01852   0.50001   0.81492   0.00000  Uiso   1.00
O1328  O     0.31481   0.49999   0.68508   0.00000  Uiso   1.00
O1329  O     0.27267   0.50000   0.81492   0.00000  Uiso   1.00
O1330  O     0.06067   0.50000   0.68508   0.00000  Uiso   1.00
C1331  C     0.30561   0.50159   0.83582   0.00000  Uiso   1.00
C1332  C     0.02773   0.49852   0.66413   0.00000  Uiso   1.00
Cu1333 Cu    0.04689   0.50001   0.75000   0.00000  Uiso   1.00
Cu1334 Cu    0.28645   0.49999   0.75000   0.00000  Uiso   1.00
C1335  C     0.28910   0.50611   0.88435   0.00000  Uiso   1.00
C1336  C     0.04403   0.49402   0.61552   0.00000  Uiso   1.00
C1337  C     0.30624   0.52127   0.95374   0.00000  Uiso   1.00
C1338  C     0.02606   0.47836   0.54652   0.00000  Uiso   1.00
C1339  C     0.32263   0.51257   0.90863   0.00000  Uiso   1.00
C1340  C     0.01017   0.48721   0.59162   0.00000  Uiso   1.00
C1341  C     0.23884   0.50605   0.90671   0.00000  Uiso   1.00
C1342  C     0.09414   0.49425   0.59282   0.00000  Uiso   1.00
C1343  C     0.22340   0.50490   0.95334   0.00000  Uiso   1.00
C1344  C     0.10902   0.49492   0.54596   0.00000  Uiso   1.00
C1345  C     0.25612   0.51985   0.97599   0.00000  Uiso   1.00
C1346  C     0.07603   0.47984   0.52375   0.00000  Uiso   1.00
C1347  C     0.17509   0.49333   0.97747   0.00000  Uiso   1.00
C1348  C     0.15703   0.50661   0.52137   0.00000  Uiso   1.00
C1349  C     0.18666   0.53310   0.53873   0.00000  Uiso   1.00
C1350  C     0.14497   0.46753   0.95985   0.00000  Uiso   1.00
C1351  C     0.23715   0.53561   0.51882   0.00000  Uiso   1.00
C1352  C     0.09447   0.46471   0.98055   0.00000  Uiso   1.00
H1353  H     0.30485   0.48613   0.60832   0.00000  Uiso   1.00
H1354  H     0.02800   0.51374   0.89219   0.00000  Uiso   1.00
H1355  H     0.33291   0.52918   0.97080   0.00000  Uiso   1.00
H1356  H     0.33237   0.47050   0.52984   0.00000  Uiso   1.00
C1357  C     0.29812   0.35464   0.73542   0.00000  Uiso   1.00
C1358  C     0.03577   0.64542   0.76352   0.00000  Uiso   1.00
H1359  H     0.27102   0.37080   0.72375   0.00000  Uiso   1.00
H1360  H     0.06285   0.62928   0.77523   0.00000  Uiso   1.00
C1361  C     0.29826   0.64523   0.73544   0.00000  Uiso   1.00
C1362  C     0.03565   0.35481   0.76346   0.00000  Uiso   1.00
H1363  H     0.27094   0.62896   0.72411   0.00000  Uiso   1.00
H1364  H     0.06302   0.37106   0.77473   0.00000  Uiso   1.00
C1365  C     0.00045   0.62389   0.74949   0.00000  Uiso   1.00
C1366  C     0.33329   0.37614   0.74967   0.00000  Uiso   1.00
C1367  C     0.18416   0.46784   0.76967   0.00000  Uiso   1.00
C1368  C     0.14916   0.53221   0.73046   0.00000  Uiso   1.00
C1369  C     0.13489   0.46822   0.76947   0.00000  Uiso   1.00
C1370  C     0.19841   0.53184   0.73068   0.00000  Uiso   1.00
H1371  H     0.11060   0.44299   0.78539   0.00000  Uiso   1.00
H1372  H     0.22271   0.55705   0.71473   0.00000  Uiso   1.00
N1373  N     0.11736   0.50001   0.74999   0.00000  Uiso   1.00
N1374  N     0.21597   0.49999   0.75001   0.00000  Uiso   1.00
N1375  N     0.26714   0.55866   0.54001   0.00000  Uiso   1.00
O1376  O     0.29675   0.58759   0.51789   0.00000  Uiso   1.00
O1377  O     0.25919   0.55548   0.58296   0.00000  Uiso   1.00
N1378  N     0.06385   0.44242   0.95934   0.00000  Uiso   1.00
O1379  O     0.07127   0.44627   0.91651   0.00000  Uiso   1.00
O1380  O     0.03436   0.41328   0.98117   0.00000  Uiso   1.00
O1381  O     0.12837   0.49307   0.61658   0.00000  Uiso   1.00
C1382  C     0.15273   0.45479   0.61165   0.00000  Uiso   1.00
H1383  H     0.19117   0.46138   0.61060   0.00000  Uiso   1.00
H1384  H     0.15378   0.43884   0.58025   0.00000  Uiso   1.00
C1385  C     0.12985   0.42571   0.65156   0.00000  Uiso   1.00
H1386  H     0.12704   0.44210   0.68283   0.00000  Uiso   1.00
H1387  H     0.09268   0.41619   0.65092   0.00000  Uiso   1.00
C1388  C     0.16031   0.38731   0.65121   0.00000  Uiso   1.00
H1389  H     0.16639   0.37142   0.61920   0.00000  Uiso   1.00
H1390  H     0.14107   0.36564   0.67879   0.00000  Uiso   1.00
H1391  H     0.19609   0.39604   0.65590   0.00000  Uiso   1.00
O1392  O     0.20449   0.51019   0.88341   0.00000  Uiso   1.00
C1393  C     0.19857   0.55255   0.87382   0.00000  Uiso   1.00
H1394  H     0.18919   0.55429   0.84178   0.00000  Uiso   1.00
H1395  H     0.23249   0.57168   0.86878   0.00000  Uiso   1.00
C1396  C     0.15686   0.57088   0.91006   0.00000  Uiso   1.00
H1397  H     0.12426   0.55009   0.91701   0.00000  Uiso   1.00
H1398  H     0.16782   0.57372   0.94114   0.00000  Uiso   1.00
C1399  C     0.14368   0.61363   0.89594   0.00000  Uiso   1.00
H1400  H     0.17596   0.63477   0.88793   0.00000  Uiso   1.00
H1401  H     0.11477   0.62671   0.92350   0.00000  Uiso   1.00
H1402  H     0.12997   0.61147   0.86627   0.00000  Uiso   1.00
O1403  O     0.16591   0.55950   0.57274   0.00000  Uiso   1.00
C1404  C     0.14996   0.59491   0.55390   0.00000  Uiso   1.00
H1405  H     0.12559   0.58629   0.53323   0.00000  Uiso   1.00
H1406  H     0.18191   0.61294   0.53281   0.00000  Uiso   1.00
C1407  C     0.12137   0.62216   0.59108   0.00000  Uiso   1.00
H1408  H     0.08889   0.60460   0.61173   0.00000  Uiso   1.00
H1409  H     0.14461   0.63067   0.61261   0.00000  Uiso   1.00
C1410  C     0.10461   0.66152   0.57238   0.00000  Uiso   1.00
H1411  H     0.13642   0.34681   0.55231   0.00000  Uiso   1.00
H1412  H     0.08372   0.34711   0.60022   0.00000  Uiso   1.00
H1413  H     0.08076   0.65368   0.55119   0.00000  Uiso   1.00
O1414  O     0.16492   0.44382   0.92315   0.00000  Uiso   1.00
C1415  C     0.17231   0.40302   0.93709   0.00000  Uiso   1.00
H1416  H     0.16884   0.38205   0.91058   0.00000  Uiso   1.00
H1417  H     0.14442   0.39218   0.96818   0.00000  Uiso   1.00
C1418  C     0.22351   0.39902   0.94267   0.00000  Uiso   1.00
H1419  H     0.25084   0.41120   0.91211   0.00000  Uiso   1.00
H1420  H     0.22648   0.41742   0.97127   0.00000  Uiso   1.00
C1421  C     0.23479   0.35410   0.95114   0.00000  Uiso   1.00
H1422  H     0.20752   0.34109   0.98120   0.00000  Uiso   1.00
H1423  H     0.27139   0.35246   0.95651   0.00000  Uiso   1.00
H1424  H     0.23460   0.33524   0.92207   0.00000  Uiso   1.00
N1425  N     0.19967   0.43277   0.79039   0.00000  Uiso   1.00
O1426  O     0.21210   0.43719   0.82677   0.00000  Uiso   1.00
O1427  O     0.18858   0.39584   0.78039   0.00000  Uiso   1.00
N1428  N     0.13372   0.56718   0.70961   0.00000  Uiso   1.00
O1429  O     0.14516   0.60417   0.71915   0.00000  Uiso   1.00
O1430  O     0.12126   0.56248   0.67332   0.00000  Uiso   1.00
O1431  O     0.37291   0.43989   0.75000   0.00000  Uiso   1.00
O1432  O     0.62709   0.56011   0.75000   0.00000  Uiso   1.00
O1433  O     0.62706   0.43988   0.75000   0.00000  Uiso   1.00
O1434  O     0.37294   0.56012   0.75000   0.00000  Uiso   1.00
C1435  C     0.66653   0.42076   0.74991   0.00000  Uiso   1.00
C1436  C     0.33358   0.57925   0.74980   0.00000  Uiso   1.00
O1437  O     0.35186   0.50001   0.81492   0.00000  Uiso   1.00
O1438  O     0.64814   0.49999   0.68508   0.00000  Uiso   1.00
O1439  O     0.60600   0.50000   0.81492   0.00000  Uiso   1.00
O1440  O     0.39400   0.50000   0.68508   0.00000  Uiso   1.00
C1441  C     0.63894   0.50159   0.83582   0.00000  Uiso   1.00
C1442  C     0.36106   0.49852   0.66413   0.00000  Uiso   1.00
Cu1443 Cu    0.38022   0.50001   0.75000   0.00000  Uiso   1.00
Cu1444 Cu    0.61978   0.49999   0.75000   0.00000  Uiso   1.00
C1445  C     0.62243   0.50611   0.88435   0.00000  Uiso   1.00
C1446  C     0.37737   0.49402   0.61552   0.00000  Uiso   1.00
C1447  C     0.63957   0.52127   0.95374   0.00000  Uiso   1.00
C1448  C     0.35939   0.47836   0.54652   0.00000  Uiso   1.00
C1449  C     0.65596   0.51257   0.90863   0.00000  Uiso   1.00
C1450  C     0.34350   0.48721   0.59162   0.00000  Uiso   1.00
C1451  C     0.57217   0.50605   0.90671   0.00000  Uiso   1.00
C1452  C     0.42748   0.49425   0.59282   0.00000  Uiso   1.00
C1453  C     0.55674   0.50490   0.95334   0.00000  Uiso   1.00
C1454  C     0.44236   0.49492   0.54596   0.00000  Uiso   1.00
C1455  C     0.58945   0.51985   0.97599   0.00000  Uiso   1.00
C1456  C     0.40936   0.47984   0.52375   0.00000  Uiso   1.00
C1457  C     0.50842   0.49333   0.97747   0.00000  Uiso   1.00
C1458  C     0.49036   0.50661   0.52137   0.00000  Uiso   1.00
C1459  C     0.51999   0.53310   0.53873   0.00000  Uiso   1.00
C1460  C     0.47830   0.46753   0.95985   0.00000  Uiso   1.00
C1461  C     0.57048   0.53561   0.51882   0.00000  Uiso   1.00
C1462  C     0.42781   0.46471   0.98055   0.00000  Uiso   1.00
H1463  H     0.63818   0.48613   0.60832   0.00000  Uiso   1.00
H1464  H     0.36133   0.51374   0.89219   0.00000  Uiso   1.00
H1465  H     0.66624   0.52918   0.97080   0.00000  Uiso   1.00
H1466  H     0.66571   0.47050   0.52984   0.00000  Uiso   1.00
C1467  C     0.63145   0.35464   0.73542   0.00000  Uiso   1.00
C1468  C     0.36910   0.64542   0.76352   0.00000  Uiso   1.00
H1469  H     0.60436   0.37080   0.72375   0.00000  Uiso   1.00
H1470  H     0.39618   0.62928   0.77523   0.00000  Uiso   1.00
C1471  C     0.63160   0.64523   0.73544   0.00000  Uiso   1.00
C1472  C     0.36899   0.35481   0.76346   0.00000  Uiso   1.00
H1473  H     0.60428   0.62896   0.72411   0.00000  Uiso   1.00
H1474  H     0.39636   0.37106   0.77473   0.00000  Uiso   1.00
C1475  C     0.33378   0.62389   0.74949   0.00000  Uiso   1.00
C1476  C     0.66663   0.37614   0.74967   0.00000  Uiso   1.00
C1477  C     0.51750   0.46784   0.76967   0.00000  Uiso   1.00
C1478  C     0.48249   0.53221   0.73046   0.00000  Uiso   1.00
C1479  C     0.46823   0.46822   0.76947   0.00000  Uiso   1.00
C1480  C     0.53174   0.53184   0.73068   0.00000  Uiso   1.00
H1481  H     0.44394   0.44299   0.78539   0.00000  Uiso   1.00
H1482  H     0.55605   0.55705   0.71473   0.00000  Uiso   1.00
N1483  N     0.45069   0.50001   0.74999   0.00000  Uiso   1.00
N1484  N     0.54931   0.49999   0.75001   0.00000  Uiso   1.00
N1485  N     0.60047   0.55866   0.54001   0.00000  Uiso   1.00
O1486  O     0.63008   0.58759   0.51789   0.00000  Uiso   1.00
O1487  O     0.59253   0.55548   0.58296   0.00000  Uiso   1.00
N1488  N     0.39719   0.44242   0.95934   0.00000  Uiso   1.00
O1489  O     0.40460   0.44627   0.91651   0.00000  Uiso   1.00
O1490  O     0.36769   0.41328   0.98117   0.00000  Uiso   1.00
O1491  O     0.46170   0.49307   0.61658   0.00000  Uiso   1.00
C1492  C     0.48606   0.45479   0.61165   0.00000  Uiso   1.00
H1493  H     0.52450   0.46138   0.61060   0.00000  Uiso   1.00
H1494  H     0.48711   0.43884   0.58025   0.00000  Uiso   1.00
C1495  C     0.46318   0.42571   0.65156   0.00000  Uiso   1.00
H1496  H     0.46037   0.44210   0.68283   0.00000  Uiso   1.00
H1497  H     0.42601   0.41619   0.65092   0.00000  Uiso   1.00
C1498  C     0.49365   0.38731   0.65121   0.00000  Uiso   1.00
H1499  H     0.49972   0.37142   0.61920   0.00000  Uiso   1.00
H1500  H     0.47441   0.36564   0.67879   0.00000  Uiso   1.00
H1501  H     0.52943   0.39604   0.65590   0.00000  Uiso   1.00
O1502  O     0.53783   0.51019   0.88341   0.00000  Uiso   1.00
C1503  C     0.53190   0.55255   0.87382   0.00000  Uiso   1.00
H1504  H     0.52252   0.55429   0.84178   0.00000  Uiso   1.00
H1505  H     0.56582   0.57168   0.86878   0.00000  Uiso   1.00
C1506  C     0.49020   0.57088   0.91006   0.00000  Uiso   1.00
H1507  H     0.45759   0.55009   0.91701   0.00000  Uiso   1.00
H1508  H     0.50115   0.57372   0.94114   0.00000  Uiso   1.00
C1509  C     0.47702   0.61363   0.89594   0.00000  Uiso   1.00
H1510  H     0.50929   0.63477   0.88793   0.00000  Uiso   1.00
H1511  H     0.44810   0.62671   0.92350   0.00000  Uiso   1.00
H1512  H     0.46331   0.61147   0.86627   0.00000  Uiso   1.00
O1513  O     0.49924   0.55950   0.57274   0.00000  Uiso   1.00
C1514  C     0.48329   0.59491   0.55390   0.00000  Uiso   1.00
H1515  H     0.45892   0.58629   0.53323   0.00000  Uiso   1.00
H1516  H     0.51524   0.61294   0.53281   0.00000  Uiso   1.00
C1517  C     0.45470   0.62216   0.59108   0.00000  Uiso   1.00
H1518  H     0.42222   0.60460   0.61173   0.00000  Uiso   1.00
H1519  H     0.47794   0.63067   0.61261   0.00000  Uiso   1.00
C1520  C     0.43794   0.66152   0.57238   0.00000  Uiso   1.00
H1521  H     0.46976   0.34681   0.55231   0.00000  Uiso   1.00
H1522  H     0.41706   0.34711   0.60022   0.00000  Uiso   1.00
H1523  H     0.41409   0.65368   0.55119   0.00000  Uiso   1.00
O1524  O     0.49825   0.44382   0.92315   0.00000  Uiso   1.00
C1525  C     0.50564   0.40302   0.93709   0.00000  Uiso   1.00
H1526  H     0.50218   0.38205   0.91058   0.00000  Uiso   1.00
H1527  H     0.47775   0.39218   0.96818   0.00000  Uiso   1.00
C1528  C     0.55684   0.39902   0.94267   0.00000  Uiso   1.00
H1529  H     0.58417   0.41120   0.91211   0.00000  Uiso   1.00
H1530  H     0.55981   0.41742   0.97127   0.00000  Uiso   1.00
C1531  C     0.56813   0.35410   0.95114   0.00000  Uiso   1.00
H1532  H     0.54085   0.34109   0.98120   0.00000  Uiso   1.00
H1533  H     0.60472   0.35246   0.95651   0.00000  Uiso   1.00
H1534  H     0.56794   0.33524   0.92207   0.00000  Uiso   1.00
N1535  N     0.53300   0.43277   0.79039   0.00000  Uiso   1.00
O1536  O     0.54544   0.43719   0.82677   0.00000  Uiso   1.00
O1537  O     0.52192   0.39584   0.78039   0.00000  Uiso   1.00
N1538  N     0.46706   0.56718   0.70961   0.00000  Uiso   1.00
O1539  O     0.47849   0.60417   0.71915   0.00000  Uiso   1.00
O1540  O     0.45459   0.56248   0.67332   0.00000  Uiso   1.00
O1541  O     0.70625   0.43989   0.75000   0.00000  Uiso   1.00
O1542  O     0.96042   0.56011   0.75000   0.00000  Uiso   1.00
O1543  O     0.96039   0.43988   0.75000   0.00000  Uiso   1.00
O1544  O     0.70628   0.56012   0.75000   0.00000  Uiso   1.00
C1545  C     0.99987   0.42076   0.74991   0.00000  Uiso   1.00
C1546  C     0.66691   0.57925   0.74980   0.00000  Uiso   1.00
O1547  O     0.68519   0.50001   0.81492   0.00000  Uiso   1.00
O1548  O     0.98148   0.49999   0.68508   0.00000  Uiso   1.00
O1549  O     0.93933   0.50000   0.81492   0.00000  Uiso   1.00
O1550  O     0.72733   0.50000   0.68508   0.00000  Uiso   1.00
C1551  C     0.97227   0.50159   0.83582   0.00000  Uiso   1.00
C1552  C     0.69439   0.49852   0.66413   0.00000  Uiso   1.00
Cu1553 Cu    0.71355   0.50001   0.75000   0.00000  Uiso   1.00
Cu1554 Cu    0.95311   0.49999   0.75000   0.00000  Uiso   1.00
C1555  C     0.95576   0.50611   0.88435   0.00000  Uiso   1.00
C1556  C     0.71070   0.49402   0.61552   0.00000  Uiso   1.00
C1557  C     0.97290   0.52127   0.95374   0.00000  Uiso   1.00
C1558  C     0.69273   0.47836   0.54652   0.00000  Uiso   1.00
C1559  C     0.98929   0.51257   0.90863   0.00000  Uiso   1.00
C1560  C     0.67684   0.48721   0.59162   0.00000  Uiso   1.00
C1561  C     0.90550   0.50605   0.90671   0.00000  Uiso   1.00
C1562  C     0.76081   0.49425   0.59282   0.00000  Uiso   1.00
C1563  C     0.89007   0.50490   0.95334   0.00000  Uiso   1.00
C1564  C     0.77569   0.49492   0.54596   0.00000  Uiso   1.00
C1565  C     0.92278   0.51985   0.97599   0.00000  Uiso   1.00
C1566  C     0.74270   0.47984   0.52375   0.00000  Uiso   1.00
C1567  C     0.84176   0.49333   0.97747   0.00000  Uiso   1.00
C1568  C     0.82370   0.50661   0.52137   0.00000  Uiso   1.00
C1569  C     0.85333   0.53310   0.53873   0.00000  Uiso   1.00
C1570  C     0.81163   0.46753   0.95985   0.00000  Uiso   1.00
C1571  C     0.90382   0.53561   0.51882   0.00000  Uiso   1.00
C1572  C     0.76114   0.46471   0.98055   0.00000  Uiso   1.00
H1573  H     0.97152   0.48613   0.60832   0.00000  Uiso   1.00
H1574  H     0.69467   0.51374   0.89219   0.00000  Uiso   1.00
H1575  H     0.99958   0.52918   0.97080   0.00000  Uiso   1.00
H1576  H     0.99904   0.47050   0.52984   0.00000  Uiso   1.00
C1577  C     0.96478   0.35464   0.73542   0.00000  Uiso   1.00
C1578  C     0.70244   0.64542   0.76352   0.00000  Uiso   1.00
H1579  H     0.93769   0.37080   0.72375   0.00000  Uiso   1.00
H1580  H     0.72952   0.62928   0.77523   0.00000  Uiso   1.00
C1581  C     0.96493   0.64523   0.73544   0.00000  Uiso   1.00
C1582  C     0.70232   0.35481   0.76346   0.00000  Uiso   1.00
H1583  H     0.93761   0.62896   0.72411   0.00000  Uiso   1.00
H1584  H     0.72969   0.37106   0.77473   0.00000  Uiso   1.00
C1585  C     0.66711   0.62389   0.74949   0.00000  Uiso   1.00
C1586  C     0.99996   0.37614   0.74967   0.00000  Uiso   1.00
C1587  C     0.85083   0.46784   0.76967   0.00000  Uiso   1.00
C1588  C     0.81583   0.53221   0.73046   0.00000  Uiso   1.00
C1589  C     0.80156   0.46822   0.76947   0.00000  Uiso   1.00
C1590  C     0.86508   0.53184   0.73068   0.00000  Uiso   1.00
H1591  H     0.77727   0.44299   0.78539   0.00000  Uiso   1.00
H1592  H     0.88938   0.55705   0.71473   0.00000  Uiso   1.00
N1593  N     0.78403   0.50001   0.74999   0.00000  Uiso   1.00
N1594  N     0.88264   0.49999   0.75001   0.00000  Uiso   1.00
N1595  N     0.93380   0.55866   0.54001   0.00000  Uiso   1.00
O1596  O     0.96342   0.58759   0.51789   0.00000  Uiso   1.00
O1597  O     0.92586   0.55548   0.58296   0.00000  Uiso   1.00
N1598  N     0.73052   0.44242   0.95934   0.00000  Uiso   1.00
O1599  O     0.73793   0.44627   0.91651   0.00000  Uiso   1.00
O1600  O     0.70102   0.41328   0.98117   0.00000  Uiso   1.00
O1601  O     0.79504   0.49307   0.61658   0.00000  Uiso   1.00
C1602  C     0.81939   0.45479   0.61165   0.00000  Uiso   1.00
H1603  H     0.85784   0.46138   0.61060   0.00000  Uiso   1.00
H1604  H     0.82044   0.43884   0.58025   0.00000  Uiso   1.00
C1605  C     0.79651   0.42571   0.65156   0.00000  Uiso   1.00
H1606  H     0.79370   0.44210   0.68283   0.00000  Uiso   1.00
H1607  H     0.75935   0.41619   0.65092   0.00000  Uiso   1.00
C1608  C     0.82698   0.38731   0.65121   0.00000  Uiso   1.00
H1609  H     0.83305   0.37142   0.61920   0.00000  Uiso   1.00
H1610  H     0.80774   0.36564   0.67879   0.00000  Uiso   1.00
H1611  H     0.86276   0.39604   0.65590   0.00000  Uiso   1.00
O1612  O     0.87116   0.51019   0.88341   0.00000  Uiso   1.00
C1613  C     0.86524   0.55255   0.87382   0.00000  Uiso   1.00
H1614  H     0.85586   0.55429   0.84178   0.00000  Uiso   1.00
H1615  H     0.89915   0.57168   0.86878   0.00000  Uiso   1.00
C1616  C     0.82353   0.57088   0.91006   0.00000  Uiso   1.00
H1617  H     0.79092   0.55009   0.91701   0.00000  Uiso   1.00
H1618  H     0.83449   0.57372   0.94114   0.00000  Uiso   1.00
C1619  C     0.81035   0.61363   0.89594   0.00000  Uiso   1.00
H1620  H     0.84263   0.63477   0.88793   0.00000  Uiso   1.00
H1621  H     0.78144   0.62671   0.92350   0.00000  Uiso   1.00
H1622  H     0.79664   0.61147   0.86627   0.00000  Uiso   1.00
O1623  O     0.83257   0.55950   0.57274   0.00000  Uiso   1.00
C1624  C     0.81662   0.59491   0.55390   0.00000  Uiso   1.00
H1625  H     0.79226   0.58629   0.53323   0.00000  Uiso   1.00
H1626  H     0.84858   0.61294   0.53281   0.00000  Uiso   1.00
C1627  C     0.78803   0.62216   0.59108   0.00000  Uiso   1.00
H1628  H     0.75556   0.60460   0.61173   0.00000  Uiso   1.00
H1629  H     0.81127   0.63067   0.61261   0.00000  Uiso   1.00
C1630  C     0.77127   0.66152   0.57238   0.00000  Uiso   1.00
H1631  H     0.80309   0.34681   0.55231   0.00000  Uiso   1.00
H1632  H     0.75039   0.34711   0.60022   0.00000  Uiso   1.00
H1633  H     0.74743   0.65368   0.55119   0.00000  Uiso   1.00
O1634  O     0.83159   0.44382   0.92315   0.00000  Uiso   1.00
C1635  C     0.83898   0.40302   0.93709   0.00000  Uiso   1.00
H1636  H     0.83551   0.38205   0.91058   0.00000  Uiso   1.00
H1637  H     0.81108   0.39218   0.96818   0.00000  Uiso   1.00
C1638  C     0.89017   0.39902   0.94267   0.00000  Uiso   1.00
H1639  H     0.91750   0.41120   0.91211   0.00000  Uiso   1.00
H1640  H     0.89315   0.41742   0.97127   0.00000  Uiso   1.00
C1641  C     0.90146   0.35410   0.95114   0.00000  Uiso   1.00
H1642  H     0.87419   0.34109   0.98120   0.00000  Uiso   1.00
H1643  H     0.93805   0.35246   0.95651   0.00000  Uiso   1.00
H1644  H     0.90127   0.33524   0.92207   0.00000  Uiso   1.00
N1645  N     0.86634   0.43277   0.79039   0.00000  Uiso   1.00
O1646  O     0.87877   0.43719   0.82677   0.00000  Uiso   1.00
O1647  O     0.85525   0.39584   0.78039   0.00000  Uiso   1.00
N1648  N     0.80039   0.56718   0.70961   0.00000  Uiso   1.00
O1649  O     0.81183   0.60417   0.71915   0.00000  Uiso   1.00
O1650  O     0.78792   0.56248   0.67332   0.00000  Uiso   1.00
O1651  O     0.03958   0.77322   0.75000   0.00000  Uiso   1.00
O1652  O     0.29375   0.89345   0.75000   0.00000  Uiso   1.00
O1653  O     0.29372   0.77321   0.75000   0.00000  Uiso   1.00
O1654  O     0.03961   0.89346   0.75000   0.00000  Uiso   1.00
C1655  C     0.33320   0.75409   0.74991   0.00000  Uiso   1.00
C1656  C     0.00024   0.91259   0.74980   0.00000  Uiso   1.00
O1657  O     0.01852   0.83334   0.81492   0.00000  Uiso   1.00
O1658  O     0.31481   0.83332   0.68508   0.00000  Uiso   1.00
O1659  O     0.27267   0.83333   0.81492   0.00000  Uiso   1.00
O1660  O     0.06067   0.83333   0.68508   0.00000  Uiso   1.00
C1661  C     0.30561   0.83492   0.83582   0.00000  Uiso   1.00
C1662  C     0.02773   0.83186   0.66413   0.00000  Uiso   1.00
Cu1663 Cu    0.04689   0.83334   0.75000   0.00000  Uiso   1.00
Cu1664 Cu    0.28645   0.83333   0.75000   0.00000  Uiso   1.00
C1665  C     0.28910   0.83944   0.88435   0.00000  Uiso   1.00
C1666  C     0.04403   0.82736   0.61552   0.00000  Uiso   1.00
C1667  C     0.30624   0.85460   0.95374   0.00000  Uiso   1.00
C1668  C     0.02606   0.81170   0.54652   0.00000  Uiso   1.00
C1669  C     0.32263   0.84590   0.90863   0.00000  Uiso   1.00
C1670  C     0.01017   0.82054   0.59162   0.00000  Uiso   1.00
C1671  C     0.23884   0.83939   0.90671   0.00000  Uiso   1.00
C1672  C     0.09414   0.82758   0.59282   0.00000  Uiso   1.00
C1673  C     0.22340   0.83823   0.95334   0.00000  Uiso   1.00
C1674  C     0.10902   0.82826   0.54596   0.00000  Uiso   1.00
C1675  C     0.25612   0.85318   0.97599   0.00000  Uiso   1.00
C1676  C     0.07603   0.81318   0.52375   0.00000  Uiso   1.00
C1677  C     0.17509   0.82667   0.97747   0.00000  Uiso   1.00
C1678  C     0.15703   0.83994   0.52137   0.00000  Uiso   1.00
C1679  C     0.18666   0.86643   0.53873   0.00000  Uiso   1.00
C1680  C     0.14497   0.80086   0.95985   0.00000  Uiso   1.00
C1681  C     0.23715   0.86894   0.51882   0.00000  Uiso   1.00
C1682  C     0.09447   0.79804   0.98055   0.00000  Uiso   1.00
H1683  H     0.30485   0.81946   0.60832   0.00000  Uiso   1.00
H1684  H     0.02800   0.84707   0.89219   0.00000  Uiso   1.00
H1685  H     0.33291   0.86251   0.97080   0.00000  Uiso   1.00
H1686  H     0.33237   0.80383   0.52984   0.00000  Uiso   1.00
C1687  C     0.29812   0.68797   0.73542   0.00000  Uiso   1.00
C1688  C     0.03577   0.97875   0.76352   0.00000  Uiso   1.00
H1689  H     0.27102   0.70413   0.72375   0.00000  Uiso   1.00
H1690  H     0.06285   0.96261   0.77523   0.00000  Uiso   1.00
C1691  C     0.29826   0.97857   0.73544   0.00000  Uiso   1.00
C1692  C     0.03565   0.68814   0.76346   0.00000  Uiso   1.00
H1693  H     0.27094   0.96230   0.72411   0.00000  Uiso   1.00
H1694  H     0.06302   0.70439   0.77473   0.00000  Uiso   1.00
C1695  C     0.00045   0.95722   0.74949   0.00000  Uiso   1.00
C1696  C     0.33329   0.70948   0.74967   0.00000  Uiso   1.00
C1697  C     0.18416   0.80117   0.76967   0.00000  Uiso   1.00
C1698  C     0.14916   0.86554   0.73046   0.00000  Uiso   1.00
C1699  C     0.13489   0.80155   0.76947   0.00000  Uiso   1.00
C1700  C     0.19841   0.86517   0.73068   0.00000  Uiso   1.00
H1701  H     0.11060   0.77632   0.78539   0.00000  Uiso   1.00
H1702  H     0.22271   0.89039   0.71473   0.00000  Uiso   1.00
N1703  N     0.11736   0.83334   0.74999   0.00000  Uiso   1.00
N1704  N     0.21597   0.83332   0.75001   0.00000  Uiso   1.00
N1705  N     0.26714   0.89199   0.54001   0.00000  Uiso   1.00
O1706  O     0.29675   0.92092   0.51789   0.00000  Uiso   1.00
O1707  O     0.25919   0.88881   0.58296   0.00000  Uiso   1.00
N1708  N     0.06385   0.77575   0.95934   0.00000  Uiso   1.00
O1709  O     0.07127   0.77960   0.91651   0.00000  Uiso   1.00
O1710  O     0.03436   0.74662   0.98117   0.00000  Uiso   1.00
O1711  O     0.12837   0.82641   0.61658   0.00000  Uiso   1.00
C1712  C     0.15273   0.78812   0.61165   0.00000  Uiso   1.00
H1713  H     0.19117   0.79471   0.61060   0.00000  Uiso   1.00
H1714  H     0.15378   0.77217   0.58025   0.00000  Uiso   1.00
C1715  C     0.12985   0.75904   0.65156   0.00000  Uiso   1.00
H1716  H     0.12704   0.77543   0.68283   0.00000  Uiso   1.00
H1717  H     0.09268   0.74953   0.65092   0.00000  Uiso   1.00
C1718  C     0.16031   0.72064   0.65121   0.00000  Uiso   1.00
H1719  H     0.16639   0.70475   0.61920   0.00000  Uiso   1.00
H1720  H     0.14107   0.69897   0.67879   0.00000  Uiso   1.00
H1721  H     0.19609   0.72938   0.65590   0.00000  Uiso   1.00
O1722  O     0.20449   0.84353   0.88341   0.00000  Uiso   1.00
C1723  C     0.19857   0.88589   0.87382   0.00000  Uiso   1.00
H1724  H     0.18919   0.88762   0.84178   0.00000  Uiso   1.00
H1725  H     0.23249   0.90501   0.86878   0.00000  Uiso   1.00
C1726  C     0.15686   0.90421   0.91006   0.00000  Uiso   1.00
H1727  H     0.12426   0.88343   0.91701   0.00000  Uiso   1.00
H1728  H     0.16782   0.90705   0.94114   0.00000  Uiso   1.00
C1729  C     0.14368   0.94696   0.89594   0.00000  Uiso   1.00
H1730  H     0.17596   0.96811   0.88793   0.00000  Uiso   1.00
H1731  H     0.11477   0.96004   0.92350   0.00000  Uiso   1.00
H1732  H     0.12997   0.94480   0.86627   0.00000  Uiso   1.00
O1733  O     0.16591   0.89284   0.57274   0.00000  Uiso   1.00
C1734  C     0.14996   0.92824   0.55390   0.00000  Uiso   1.00
H1735  H     0.12559   0.91963   0.53323   0.00000  Uiso   1.00
H1736  H     0.18191   0.94627   0.53281   0.00000  Uiso   1.00
C1737  C     0.12137   0.95549   0.59108   0.00000  Uiso   1.00
H1738  H     0.08889   0.93794   0.61173   0.00000  Uiso   1.00
H1739  H     0.14461   0.96400   0.61261   0.00000  Uiso   1.00
C1740  C     0.10461   0.99485   0.57238   0.00000  Uiso   1.00
H1741  H     0.13642   0.68014   0.55231   0.00000  Uiso   1.00
H1742  H     0.08372   0.68044   0.60022   0.00000  Uiso   1.00
H1743  H     0.08076   0.98702   0.55119   0.00000  Uiso   1.00
O1744  O     0.16492   0.77715   0.92315   0.00000  Uiso   1.00
C1745  C     0.17231   0.73636   0.93709   0.00000  Uiso   1.00
H1746  H     0.16884   0.71538   0.91058   0.00000  Uiso   1.00
H1747  H     0.14442   0.72551   0.96818   0.00000  Uiso   1.00
C1748  C     0.22351   0.73235   0.94267   0.00000  Uiso   1.00
H1749  H     0.25084   0.74454   0.91211   0.00000  Uiso   1.00
H1750  H     0.22648   0.75075   0.97127   0.00000  Uiso   1.00
C1751  C     0.23479   0.68743   0.95114   0.00000  Uiso   1.00
H1752  H     0.20752   0.67442   0.98120   0.00000  Uiso   1.00
H1753  H     0.27139   0.68579   0.95651   0.00000  Uiso   1.00
H1754  H     0.23460   0.66858   0.92207   0.00000  Uiso   1.00
N1755  N     0.19967   0.76611   0.79039   0.00000  Uiso   1.00
O1756  O     0.21210   0.77052   0.82677   0.00000  Uiso   1.00
O1757  O     0.18858   0.72917   0.78039   0.00000  Uiso   1.00
N1758  N     0.13372   0.90051   0.70961   0.00000  Uiso   1.00
O1759  O     0.14516   0.93750   0.71915   0.00000  Uiso   1.00
O1760  O     0.12126   0.89581   0.67332   0.00000  Uiso   1.00
O1761  O     0.37291   0.77322   0.75000   0.00000  Uiso   1.00
O1762  O     0.62709   0.89345   0.75000   0.00000  Uiso   1.00
O1763  O     0.62706   0.77321   0.75000   0.00000  Uiso   1.00
O1764  O     0.37294   0.89346   0.75000   0.00000  Uiso   1.00
C1765  C     0.66653   0.75409   0.74991   0.00000  Uiso   1.00
C1766  C     0.33358   0.91259   0.74980   0.00000  Uiso   1.00
O1767  O     0.35186   0.83334   0.81492   0.00000  Uiso   1.00
O1768  O     0.64814   0.83332   0.68508   0.00000  Uiso   1.00
O1769  O     0.60600   0.83333   0.81492   0.00000  Uiso   1.00
O1770  O     0.39400   0.83333   0.68508   0.00000  Uiso   1.00
C1771  C     0.63894   0.83492   0.83582   0.00000  Uiso   1.00
C1772  C     0.36106   0.83186   0.66413   0.00000  Uiso   1.00
Cu1773 Cu    0.38022   0.83334   0.75000   0.00000  Uiso   1.00
Cu1774 Cu    0.61978   0.83333   0.75000   0.00000  Uiso   1.00
C1775  C     0.62243   0.83944   0.88435   0.00000  Uiso   1.00
C1776  C     0.37737   0.82736   0.61552   0.00000  Uiso   1.00
C1777  C     0.63957   0.85460   0.95374   0.00000  Uiso   1.00
C1778  C     0.35939   0.81170   0.54652   0.00000  Uiso   1.00
C1779  C     0.65596   0.84590   0.90863   0.00000  Uiso   1.00
C1780  C     0.34350   0.82054   0.59162   0.00000  Uiso   1.00
C1781  C     0.57217   0.83939   0.90671   0.00000  Uiso   1.00
C1782  C     0.42748   0.82758   0.59282   0.00000  Uiso   1.00
C1783  C     0.55674   0.83823   0.95334   0.00000  Uiso   1.00
C1784  C     0.44236   0.82826   0.54596   0.00000  Uiso   1.00
C1785  C     0.58945   0.85318   0.97599   0.00000  Uiso   1.00
C1786  C     0.40936   0.81318   0.52375   0.00000  Uiso   1.00
C1787  C     0.50842   0.82667   0.97747   0.00000  Uiso   1.00
C1788  C     0.49036   0.83994   0.52137   0.00000  Uiso   1.00
C1789  C     0.51999   0.86643   0.53873   0.00000  Uiso   1.00
C1790  C     0.47830   0.80086   0.95985   0.00000  Uiso   1.00
C1791  C     0.57048   0.86894   0.51882   0.00000  Uiso   1.00
C1792  C     0.42781   0.79804   0.98055   0.00000  Uiso   1.00
H1793  H     0.63818   0.81946   0.60832   0.00000  Uiso   1.00
H1794  H     0.36133   0.84707   0.89219   0.00000  Uiso   1.00
H1795  H     0.66624   0.86251   0.97080   0.00000  Uiso   1.00
H1796  H     0.66571   0.80383   0.52984   0.00000  Uiso   1.00
C1797  C     0.63145   0.68797   0.73542   0.00000  Uiso   1.00
C1798  C     0.36910   0.97875   0.76352   0.00000  Uiso   1.00
H1799  H     0.60436   0.70413   0.72375   0.00000  Uiso   1.00
H1800  H     0.39618   0.96261   0.77523   0.00000  Uiso   1.00
C1801  C     0.63160   0.97857   0.73544   0.00000  Uiso   1.00
C1802  C     0.36899   0.68814   0.76346   0.00000  Uiso   1.00
H1803  H     0.60428   0.96230   0.72411   0.00000  Uiso   1.00
H1804  H     0.39636   0.70439   0.77473   0.00000  Uiso   1.00
C1805  C     0.33378   0.95722   0.74949   0.00000  Uiso   1.00
C1806  C     0.66663   0.70948   0.74967   0.00000  Uiso   1.00
C1807  C     0.51750   0.80117   0.76967   0.00000  Uiso   1.00
C1808  C     0.48249   0.86554   0.73046   0.00000  Uiso   1.00
C1809  C     0.46823   0.80155   0.76947   0.00000  Uiso   1.00
C1810  C     0.53174   0.86517   0.73068   0.00000  Uiso   1.00
H1811  H     0.44394   0.77632   0.78539   0.00000  Uiso   1.00
H1812  H     0.55605   0.89039   0.71473   0.00000  Uiso   1.00
N1813  N     0.45069   0.83334   0.74999   0.00000  Uiso   1.00
N1814  N     0.54931   0.83332   0.75001   0.00000  Uiso   1.00
N1815  N     0.60047   0.89199   0.54001   0.00000  Uiso   1.00
O1816  O     0.63008   0.92092   0.51789   0.00000  Uiso   1.00
O1817  O     0.59253   0.88881   0.58296   0.00000  Uiso   1.00
N1818  N     0.39719   0.77575   0.95934   0.00000  Uiso   1.00
O1819  O     0.40460   0.77960   0.91651   0.00000  Uiso   1.00
O1820  O     0.36769   0.74662   0.98117   0.00000  Uiso   1.00
O1821  O     0.46170   0.82641   0.61658   0.00000  Uiso   1.00
C1822  C     0.48606   0.78812   0.61165   0.00000  Uiso   1.00
H1823  H     0.52450   0.79471   0.61060   0.00000  Uiso   1.00
H1824  H     0.48711   0.77217   0.58025   0.00000  Uiso   1.00
C1825  C     0.46318   0.75904   0.65156   0.00000  Uiso   1.00
H1826  H     0.46037   0.77543   0.68283   0.00000  Uiso   1.00
H1827  H     0.42601   0.74953   0.65092   0.00000  Uiso   1.00
C1828  C     0.49365   0.72064   0.65121   0.00000  Uiso   1.00
H1829  H     0.49972   0.70475   0.61920   0.00000  Uiso   1.00
H1830  H     0.47441   0.69897   0.67879   0.00000  Uiso   1.00
H1831  H     0.52943   0.72938   0.65590   0.00000  Uiso   1.00
O1832  O     0.53783   0.84353   0.88341   0.00000  Uiso   1.00
C1833  C     0.53190   0.88589   0.87382   0.00000  Uiso   1.00
H1834  H     0.52252   0.88762   0.84178   0.00000  Uiso   1.00
H1835  H     0.56582   0.90501   0.86878   0.00000  Uiso   1.00
C1836  C     0.49020   0.90421   0.91006   0.00000  Uiso   1.00
H1837  H     0.45759   0.88343   0.91701   0.00000  Uiso   1.00
H1838  H     0.50115   0.90705   0.94114   0.00000  Uiso   1.00
C1839  C     0.47702   0.94696   0.89594   0.00000  Uiso   1.00
H1840  H     0.50929   0.96811   0.88793   0.00000  Uiso   1.00
H1841  H     0.44810   0.96004   0.92350   0.00000  Uiso   1.00
H1842  H     0.46331   0.94480   0.86627   0.00000  Uiso   1.00
O1843  O     0.49924   0.89284   0.57274   0.00000  Uiso   1.00
C1844  C     0.48329   0.92824   0.55390   0.00000  Uiso   1.00
H1845  H     0.45892   0.91963   0.53323   0.00000  Uiso   1.00
H1846  H     0.51524   0.94627   0.53281   0.00000  Uiso   1.00
C1847  C     0.45470   0.95549   0.59108   0.00000  Uiso   1.00
H1848  H     0.42222   0.93794   0.61173   0.00000  Uiso   1.00
H1849  H     0.47794   0.96400   0.61261   0.00000  Uiso   1.00
C1850  C     0.43794   0.99485   0.57238   0.00000  Uiso   1.00
H1851  H     0.46976   0.68014   0.55231   0.00000  Uiso   1.00
H1852  H     0.41706   0.68044   0.60022   0.00000  Uiso   1.00
H1853  H     0.41409   0.98702   0.55119   0.00000  Uiso   1.00
O1854  O     0.49825   0.77715   0.92315   0.00000  Uiso   1.00
C1855  C     0.50564   0.73636   0.93709   0.00000  Uiso   1.00
H1856  H     0.50218   0.71538   0.91058   0.00000  Uiso   1.00
H1857  H     0.47775   0.72551   0.96818   0.00000  Uiso   1.00
C1858  C     0.55684   0.73235   0.94267   0.00000  Uiso   1.00
H1859  H     0.58417   0.74454   0.91211   0.00000  Uiso   1.00
H1860  H     0.55981   0.75075   0.97127   0.00000  Uiso   1.00
C1861  C     0.56813   0.68743   0.95114   0.00000  Uiso   1.00
H1862  H     0.54085   0.67442   0.98120   0.00000  Uiso   1.00
H1863  H     0.60472   0.68579   0.95651   0.00000  Uiso   1.00
H1864  H     0.56794   0.66858   0.92207   0.00000  Uiso   1.00
N1865  N     0.53300   0.76611   0.79039   0.00000  Uiso   1.00
O1866  O     0.54544   0.77052   0.82677   0.00000  Uiso   1.00
O1867  O     0.52192   0.72917   0.78039   0.00000  Uiso   1.00
N1868  N     0.46706   0.90051   0.70961   0.00000  Uiso   1.00
O1869  O     0.47849   0.93750   0.71915   0.00000  Uiso   1.00
O1870  O     0.45459   0.89581   0.67332   0.00000  Uiso   1.00
O1871  O     0.70625   0.77322   0.75000   0.00000  Uiso   1.00
O1872  O     0.96042   0.89345   0.75000   0.00000  Uiso   1.00
O1873  O     0.96039   0.77321   0.75000   0.00000  Uiso   1.00
O1874  O     0.70628   0.89346   0.75000   0.00000  Uiso   1.00
C1875  C     0.99987   0.75409   0.74991   0.00000  Uiso   1.00
C1876  C     0.66691   0.91259   0.74980   0.00000  Uiso   1.00
O1877  O     0.68519   0.83334   0.81492   0.00000  Uiso   1.00
O1878  O     0.98148   0.83332   0.68508   0.00000  Uiso   1.00
O1879  O     0.93933   0.83333   0.81492   0.00000  Uiso   1.00
O1880  O     0.72733   0.83333   0.68508   0.00000  Uiso   1.00
C1881  C     0.97227   0.83492   0.83582   0.00000  Uiso   1.00
C1882  C     0.69439   0.83186   0.66413   0.00000  Uiso   1.00
Cu1883 Cu    0.71355   0.83334   0.75000   0.00000  Uiso   1.00
Cu1884 Cu    0.95311   0.83333   0.75000   0.00000  Uiso   1.00
C1885  C     0.95576   0.83944   0.88435   0.00000  Uiso   1.00
C1886  C     0.71070   0.82736   0.61552   0.00000  Uiso   1.00
C1887  C     0.97290   0.85460   0.95374   0.00000  Uiso   1.00
C1888  C     0.69273   0.81170   0.54652   0.00000  Uiso   1.00
C1889  C     0.98929   0.84590   0.90863   0.00000  Uiso   1.00
C1890  C     0.67684   0.82054   0.59162   0.00000  Uiso   1.00
C1891  C     0.90550   0.83939   0.90671   0.00000  Uiso   1.00
C1892  C     0.76081   0.82758   0.59282   0.00000  Uiso   1.00
C1893  C     0.89007   0.83823   0.95334   0.00000  Uiso   1.00
C1894  C     0.77569   0.82826   0.54596   0.00000  Uiso   1.00
C1895  C     0.92278   0.85318   0.97599   0.00000  Uiso   1.00
C1896  C     0.74270   0.81318   0.52375   0.00000  Uiso   1.00
C1897  C     0.84176   0.82667   0.97747   0.00000  Uiso   1.00
C1898  C     0.82370   0.83994   0.52137   0.00000  Uiso   1.00
C1899  C     0.85333   0.86643   0.53873   0.00000  Uiso   1.00
C1900  C     0.81163   0.80086   0.95985   0.00000  Uiso   1.00
C1901  C     0.90382   0.86894   0.51882   0.00000  Uiso   1.00
C1902  C     0.76114   0.79804   0.98055   0.00000  Uiso   1.00
H1903  H     0.97152   0.81946   0.60832   0.00000  Uiso   1.00
H1904  H     0.69467   0.84707   0.89219   0.00000  Uiso   1.00
H1905  H     0.99958   0.86251   0.97080   0.00000  Uiso   1.00
H1906  H     0.99904   0.80383   0.52984   0.00000  Uiso   1.00
C1907  C     0.96478   0.68797   0.73542   0.00000  Uiso   1.00
C1908  C     0.70244   0.97875   0.76352   0.00000  Uiso   1.00
H1909  H     0.93769   0.70413   0.72375   0.00000  Uiso   1.00
H1910  H     0.72952   0.96261   0.77523   0.00000  Uiso   1.00
C1911  C     0.96493   0.97857   0.73544   0.00000  Uiso   1.00
C1912  C     0.70232   0.68814   0.76346   0.00000  Uiso   1.00
H1913  H     0.93761   0.96230   0.72411   0.00000  Uiso   1.00
H1914  H     0.72969   0.70439   0.77473   0.00000  Uiso   1.00
C1915  C     0.66711   0.95722   0.74949   0.00000  Uiso   1.00
C1916  C     0.99996   0.70948   0.74967   0.00000  Uiso   1.00
C1917  C     0.85083   0.80117   0.76967   0.00000  Uiso   1.00
C1918  C     0.81583   0.86554   0.73046   0.00000  Uiso   1.00
C1919  C     0.80156   0.80155   0.76947   0.00000  Uiso   1.00
C1920  C     0.86508   0.86517   0.73068   0.00000  Uiso   1.00
H1921  H     0.77727   0.77632   0.78539   0.00000  Uiso   1.00
H1922  H     0.88938   0.89039   0.71473   0.00000  Uiso   1.00
N1923  N     0.78403   0.83334   0.74999   0.00000  Uiso   1.00
N1924  N     0.88264   0.83332   0.75001   0.00000  Uiso   1.00
N1925  N     0.93380   0.89199   0.54001   0.00000  Uiso   1.00
O1926  O     0.96342   0.92092   0.51789   0.00000  Uiso   1.00
O1927  O     0.92586   0.88881   0.58296   0.00000  Uiso   1.00
N1928  N     0.73052   0.77575   0.95934   0.00000  Uiso   1.00
O1929  O     0.73793   0.77960   0.91651   0.00000  Uiso   1.00
O1930  O     0.70102   0.74662   0.98117   0.00000  Uiso   1.00
O1931  O     0.79504   0.82641   0.61658   0.00000  Uiso   1.00
C1932  C     0.81939   0.78812   0.61165   0.00000  Uiso   1.00
H1933  H     0.85784   0.79471   0.61060   0.00000  Uiso   1.00
H1934  H     0.82044   0.77217   0.58025   0.00000  Uiso   1.00
C1935  C     0.79651   0.75904   0.65156   0.00000  Uiso   1.00
H1936  H     0.79370   0.77543   0.68283   0.00000  Uiso   1.00
H1937  H     0.75935   0.74953   0.65092   0.00000  Uiso   1.00
C1938  C     0.82698   0.72064   0.65121   0.00000  Uiso   1.00
H1939  H     0.83305   0.70475   0.61920   0.00000  Uiso   1.00
H1940  H     0.80774   0.69897   0.67879   0.00000  Uiso   1.00
H1941  H     0.86276   0.72938   0.65590   0.00000  Uiso   1.00
O1942  O     0.87116   0.84353   0.88341   0.00000  Uiso   1.00
C1943  C     0.86524   0.88589   0.87382   0.00000  Uiso   1.00
H1944  H     0.85586   0.88762   0.84178   0.00000  Uiso   1.00
H1945  H     0.89915   0.90501   0.86878   0.00000  Uiso   1.00
C1946  C     0.82353   0.90421   0.91006   0.00000  Uiso   1.00
H1947  H     0.79092   0.88343   0.91701   0.00000  Uiso   1.00
H1948  H     0.83449   0.90705   0.94114   0.00000  Uiso   1.00
C1949  C     0.81035   0.94696   0.89594   0.00000  Uiso   1.00
H1950  H     0.84263   0.96811   0.88793   0.00000  Uiso   1.00
H1951  H     0.78144   0.96004   0.92350   0.00000  Uiso   1.00
H1952  H     0.79664   0.94480   0.86627   0.00000  Uiso   1.00
O1953  O     0.83257   0.89284   0.57274   0.00000  Uiso   1.00
C1954  C     0.81662   0.92824   0.55390   0.00000  Uiso   1.00
H1955  H     0.79226   0.91963   0.53323   0.00000  Uiso   1.00
H1956  H     0.84858   0.94627   0.53281   0.00000  Uiso   1.00
C1957  C     0.78803   0.95549   0.59108   0.00000  Uiso   1.00
H1958  H     0.75556   0.93794   0.61173   0.00000  Uiso   1.00
H1959  H     0.81127   0.96400   0.61261   0.00000  Uiso   1.00
C1960  C     0.77127   0.99485   0.57238   0.00000  Uiso   1.00
H1961  H     0.80309   0.68014   0.55231   0.00000  Uiso   1.00
H1962  H     0.75039   0.68044   0.60022   0.00000  Uiso   1.00
H1963  H     0.74743   0.98702   0.55119   0.00000  Uiso   1.00
O1964  O     0.83159   0.77715   0.92315   0.00000  Uiso   1.00
C1965  C     0.83898   0.73636   0.93709   0.00000  Uiso   1.00
H1966  H     0.83551   0.71538   0.91058   0.00000  Uiso   1.00
H1967  H     0.81108   0.72551   0.96818   0.00000  Uiso   1.00
C1968  C     0.89017   0.73235   0.94267   0.00000  Uiso   1.00
H1969  H     0.91750   0.74454   0.91211   0.00000  Uiso   1.00
H1970  H     0.89315   0.75075   0.97127   0.00000  Uiso   1.00
C1971  C     0.90146   0.68743   0.95114   0.00000  Uiso   1.00
H1972  H     0.87419   0.67442   0.98120   0.00000  Uiso   1.00
H1973  H     0.93805   0.68579   0.95651   0.00000  Uiso   1.00
H1974  H     0.90127   0.66858   0.92207   0.00000  Uiso   1.00
N1975  N     0.86634   0.76611   0.79039   0.00000  Uiso   1.00
O1976  O     0.87877   0.77052   0.82677   0.00000  Uiso   1.00
O1977  O     0.85525   0.72917   0.78039   0.00000  Uiso   1.00
N1978  N     0.80039   0.90051   0.70961   0.00000  Uiso   1.00
O1979  O     0.81183   0.93750   0.71915   0.00000  Uiso   1.00
O1980  O     0.78792   0.89581   0.67332   0.00000  Uiso   1.00
loop_
_geom_bond_atom_site_label_1
_geom_bond_atom_site_label_2
_geom_bond_distance
_geom_bond_site_symmetry_2
_ccdc_geom_bond_type
O1     Cu13    1.954   .     S
O1     C225    1.290   1_455 S
O2     Cu14    1.954   .     S
O2     C116    1.291   .     S
O3     Cu14    1.959   .     S
O3     C5      1.296   .     A
O4     Cu13    1.959   .     S
O4     C6      1.295   .     A
C5     C46     1.444   .     S
C5     O111    1.290   .     S
C6     C45     1.444   .     S
C6     O222    1.291   1_455 S
O7     Cu13    1.966   .     S
O7     C231    1.304   1_455 S
O8     Cu14    1.966   .     S
O8     C122    1.304   .     S
O9     Cu14    1.960   .     S
O9     C11     1.294   .     A
O10    C12     1.295   .     A
O10    Cu13    1.960   .     S
C11    C15     1.471   .     S
C11    O117    1.304   .     S
C12    C16     1.473   .     S
C12    O228    1.304   1_455 S
Cu13   N53     2.020   .     S
Cu13   Cu234   2.689   1_455 S
Cu14   N54     2.020   .     S
Cu14   Cu123   2.689   .     S
C15    C19     1.402   .     A
C15    C21     1.412   .     A
C16    C22     1.411   .     A
C16    C20     1.403   .     A
C17    C25     1.408   .     A
C17    C19     1.395   .     A
C17    H35     1.082   .     S
C18    C26     1.408   .     A
C18    C20     1.395   .     A
C18    H256    1.082   1_455 S
C19    H144    1.083   .     S
C20    H253    1.083   1_455 S
C21    O72     1.388   .     S
C21    C23     1.401   .     A
C22    C24     1.408   .     A
C22    O61     1.390   .     S
C23    C27     1.418   .     A
C23    C25     1.415   .     A
C24    C26     1.413   .     A
C24    C28     1.415   .     A
C25    C1021   1.409   .     S
C26    C1022   1.409   1_554 S
C27    C30     1.423   .     A
C27    C1018   1.406   .     S
C28    C29     1.421   .     A
C28    C1017   1.406   1_554 S
C29    O83     1.385   .     S
C29    C31     1.405   .     A
C30    C32     1.410   .     A
C30    O94     1.386   .     S
C31    N55     1.439   .     S
C31    C1015   1.409   1_554 S
C32    N58     1.440   .     S
C32    C1016   1.409   .     S
H33    C130    1.083   .     S
H34    C239    1.083   1_455 S
H36    C128    1.082   .     S
C37    H39     1.083   .     S
C37    C46     1.398   .     A
C37    C701    1.383   1_545 S
C38    C45     1.398   .     A
C38    H40     1.083   .     S
C38    C372    1.382   .     S
C41    H43     1.083   .     S
C41    C367    1.383   .     S
C41    C155    1.401   .     S
C42    H44     1.083   .     S
C42    C698    1.382   1_545 S
C42    C266    1.401   1_455 S
C45    C261    1.401   1_455 S
C46    C152    1.401   .     S
C47    C49     1.415   .     A
C47    N105    1.430   .     S
C47    N54     1.386   .     A
C48    C50     1.414   .     A
C48    N53     1.386   .     A
C48    N108    1.429   .     S
C49    H51     1.082   .     S
C49    N53     1.356   .     A
C50    N54     1.355   .     A
C50    H52     1.082   .     S
N55    O56     1.301   .     A
N55    O57     1.301   .     A
N58    O60     1.301   .     A
N58    O59     1.301   .     A
O61    C62     1.419   .     S
C62    H64     1.116   .     S
C62    H63     1.111   .     S
C62    C65     1.531   .     S
C65    H67     1.112   .     S
C65    C68     1.526   .     S
C65    H66     1.109   .     S
C68    H69     1.109   .     S
C68    H71     1.111   .     S
C68    H70     1.111   .     S
O72    C73     1.418   .     S
C73    H75     1.117   .     S
C73    H74     1.111   .     S
C73    C76     1.534   .     S
C76    C79     1.526   .     S
C76    H77     1.112   .     S
C76    H78     1.111   .     S
C79    H81     1.111   .     S
C79    H82     1.111   .     S
C79    H80     1.110   .     S
O83    C84     1.415   .     S
C84    C87     1.528   .     S
C84    H85     1.116   .     S
C84    H86     1.114   .     S
C87    H88     1.112   .     S
C87    C90     1.527   .     S
C87    H89     1.111   .     S
C90    H93     1.111   .     S
C90    H421    1.111   .     S
C90    H422    1.111   .     S
H91    C750    1.111   1_545 S
H92    C750    1.111   1_545 S
O94    C95     1.417   .     S
C95    H96     1.111   .     S
C95    C98     1.533   .     S
C95    H97     1.117   .     S
C98    H100    1.111   .     S
C98    C101    1.526   .     S
C98    H99     1.112   .     S
C101   H102    1.110   .     S
C101   H103    1.110   .     S
C101   H104    1.110   .     S
N105   O107    1.301   .     A
N105   O106    1.298   .     A
N108   O109    1.301   .     A
N108   O110    1.297   .     A
O111   Cu123   1.954   .     S
O112   Cu124   1.954   .     S
O112   C226    1.291   .     S
O113   Cu124   1.959   .     S
O113   C115    1.296   .     A
O114   Cu123   1.959   .     S
O114   C116    1.295   .     A
C115   C156    1.444   .     S
C115   O221    1.290   .     S
C116   C155    1.444   .     S
O117   Cu123   1.966   .     S
O118   Cu124   1.966   .     S
O118   C232    1.304   .     S
O119   Cu124   1.960   .     S
O119   C121    1.294   .     A
O120   C122    1.295   .     A
O120   Cu123   1.960   .     S
C121   C125    1.471   .     S
C121   O227    1.304   .     S
C122   C126    1.473   .     S
Cu123  N163    2.020   .     S
Cu124  N164    2.020   .     S
Cu124  Cu233   2.689   .     S
C125   C129    1.402   .     A
C125   C131    1.412   .     A
C126   C132    1.411   .     A
C126   C130    1.403   .     A
C127   C135    1.408   .     A
C127   C129    1.395   .     A
C127   H145    1.082   .     S
C128   C136    1.408   .     A
C128   C130    1.395   .     A
C129   H254    1.083   .     S
C131   O182    1.388   .     S
C131   C133    1.401   .     A
C132   C134    1.408   .     A
C132   O171    1.390   .     S
C133   C137    1.418   .     A
C133   C135    1.415   .     A
C134   C136    1.413   .     A
C134   C138    1.415   .     A
C135   C1131   1.409   .     S
C136   C1132   1.409   1_554 S
C137   C140    1.423   .     A
C137   C1128   1.406   .     S
C138   C139    1.421   .     A
C138   C1127   1.406   1_554 S
C139   O193    1.385   .     S
C139   C141    1.405   .     A
C140   C142    1.410   .     A
C140   O204    1.386   .     S
C141   N165    1.439   .     S
C141   C1125   1.409   1_554 S
C142   N168    1.440   .     S
C142   C1126   1.409   .     S
H143   C240    1.083   .     S
H146   C238    1.082   .     S
C147   H149    1.083   .     S
C147   C156    1.398   .     A
C147   C811    1.383   1_545 S
C148   C155    1.398   .     A
C148   H150    1.083   .     S
C148   C482    1.382   .     S
C151   H153    1.083   .     S
C151   C477    1.383   .     S
C151   C265    1.401   .     S
C152   H154    1.083   .     S
C152   C808    1.382   1_545 S
C156   C262    1.401   .     S
C157   C159    1.415   .     A
C157   N215    1.430   .     S
C157   N164    1.386   .     A
C158   C160    1.414   .     A
C158   N163    1.386   .     A
C158   N218    1.429   .     S
C159   H161    1.082   .     S
C159   N163    1.356   .     A
C160   N164    1.355   .     A
C160   H162    1.082   .     S
N165   O166    1.301   .     A
N165   O167    1.301   .     A
N168   O170    1.301   .     A
N168   O169    1.301   .     A
O171   C172    1.419   .     S
C172   H174    1.116   .     S
C172   H173    1.111   .     S
C172   C175    1.531   .     S
C175   H177    1.112   .     S
C175   C178    1.526   .     S
C175   H176    1.109   .     S
C178   H179    1.109   .     S
C178   H181    1.111   .     S
C178   H180    1.111   .     S
O182   C183    1.418   .     S
C183   H185    1.117   .     S
C183   H184    1.111   .     S
C183   C186    1.534   .     S
C186   C189    1.526   .     S
C186   H187    1.112   .     S
C186   H188    1.111   .     S
C189   H191    1.111   .     S
C189   H192    1.111   .     S
C189   H190    1.110   .     S
O193   C194    1.415   .     S
C194   C197    1.528   .     S
C194   H195    1.116   .     S
C194   H196    1.114   .     S
C197   H198    1.112   .     S
C197   C200    1.527   .     S
C197   H199    1.111   .     S
C200   H203    1.111   .     S
C200   H531    1.111   .     S
C200   H532    1.111   .     S
H201   C860    1.111   1_545 S
H202   C860    1.111   1_545 S
O204   C205    1.417   .     S
C205   H206    1.111   .     S
C205   C208    1.533   .     S
C205   H207    1.117   .     S
C208   H210    1.111   .     S
C208   C211    1.526   .     S
C208   H209    1.112   .     S
C211   H212    1.110   .     S
C211   H213    1.110   .     S
C211   H214    1.110   .     S
N215   O217    1.301   .     A
N215   O216    1.298   .     A
N218   O219    1.301   .     A
N218   O220    1.297   .     A
O221   Cu233   1.954   .     S
O222   Cu234   1.954   .     S
O222   C6      1.291   1_655 S
O223   Cu234   1.959   .     S
O223   C225    1.296   .     A
O224   Cu233   1.959   .     S
O224   C226    1.295   .     A
C225   C266    1.444   .     S
C225   O1      1.290   1_655 S
C226   C265    1.444   .     S
O227   Cu233   1.966   .     S
O228   Cu234   1.966   .     S
O228   C12     1.304   1_655 S
O229   Cu234   1.960   .     S
O229   C231    1.294   .     A
O230   C232    1.295   .     A
O230   Cu233   1.960   .     S
C231   C235    1.471   .     S
C231   O7      1.304   1_655 S
C232   C236    1.473   .     S
Cu233  N273    2.020   .     S
Cu234  N274    2.020   .     S
Cu234  Cu13    2.689   1_655 S
C235   C239    1.402   .     A
C235   C241    1.412   .     A
C236   C242    1.411   .     A
C236   C240    1.403   .     A
C237   C245    1.408   .     A
C237   C239    1.395   .     A
C237   H255    1.082   .     S
C238   C246    1.408   .     A
C238   C240    1.395   .     A
C239   H34     1.083   1_655 S
C241   O292    1.388   .     S
C241   C243    1.401   .     A
C242   C244    1.408   .     A
C242   O281    1.390   .     S
C243   C247    1.418   .     A
C243   C245    1.415   .     A
C244   C246    1.413   .     A
C244   C248    1.415   .     A
C245   C1241   1.409   .     S
C246   C1242   1.409   1_554 S
C247   C250    1.423   .     A
C247   C1238   1.406   .     S
C248   C249    1.421   .     A
C248   C1237   1.406   1_554 S
C249   O303    1.385   .     S
C249   C251    1.405   .     A
C250   C252    1.410   .     A
C250   O314    1.386   .     S
C251   N275    1.439   .     S
C251   C1235   1.409   1_554 S
C252   N278    1.440   .     S
C252   C1236   1.409   .     S
H253   C20     1.083   1_655 S
H256   C18     1.082   1_655 S
C257   H259    1.083   .     S
C257   C266    1.398   .     A
C257   C921    1.383   1_545 S
C258   C265    1.398   .     A
C258   H260    1.083   .     S
C258   C592    1.382   .     S
C261   H263    1.083   .     S
C261   C587    1.383   .     S
C261   C45     1.401   1_655 S
C262   H264    1.083   .     S
C262   C918    1.382   1_545 S
C266   C42     1.401   1_655 S
C267   C269    1.415   .     A
C267   N325    1.430   .     S
C267   N274    1.386   .     A
C268   C270    1.414   .     A
C268   N273    1.386   .     A
C268   N328    1.429   .     S
C269   H271    1.082   .     S
C269   N273    1.356   .     A
C270   N274    1.355   .     A
C270   H272    1.082   .     S
N275   O276    1.301   .     A
N275   O277    1.301   .     A
N278   O280    1.301   .     A
N278   O279    1.301   .     A
O281   C282    1.419   .     S
C282   H284    1.116   .     S
C282   H283    1.111   .     S
C282   C285    1.531   .     S
C285   H287    1.112   .     S
C285   C288    1.526   .     S
C285   H286    1.109   .     S
C288   H289    1.109   .     S
C288   H291    1.111   .     S
C288   H290    1.111   .     S
O292   C293    1.418   .     S
C293   H295    1.117   .     S
C293   H294    1.111   .     S
C293   C296    1.534   .     S
C296   C299    1.526   .     S
C296   H297    1.112   .     S
C296   H298    1.111   .     S
C299   H301    1.111   .     S
C299   H302    1.111   .     S
C299   H300    1.110   .     S
O303   C304    1.415   .     S
C304   C307    1.528   .     S
C304   H305    1.116   .     S
C304   H306    1.114   .     S
C307   H308    1.112   .     S
C307   C310    1.527   .     S
C307   H309    1.111   .     S
C310   H313    1.111   .     S
C310   H641    1.111   .     S
C310   H642    1.111   .     S
H311   C970    1.111   1_545 S
H312   C970    1.111   1_545 S
O314   C315    1.417   .     S
C315   H316    1.111   .     S
C315   C318    1.533   .     S
C315   H317    1.117   .     S
C318   H320    1.111   .     S
C318   C321    1.526   .     S
C318   H319    1.112   .     S
C321   H322    1.110   .     S
C321   H323    1.110   .     S
C321   H324    1.110   .     S
N325   O327    1.301   .     A
N325   O326    1.298   .     A
N328   O329    1.301   .     A
N328   O330    1.297   .     A
O331   Cu343   1.954   .     S
O331   C555    1.290   1_455 S
O332   Cu344   1.954   .     S
O332   C446    1.291   .     S
O333   Cu344   1.959   .     S
O333   C335    1.296   .     A
O334   Cu343   1.959   .     S
O334   C336    1.295   .     A
C335   C376    1.444   .     S
C335   O441    1.290   .     S
C336   C375    1.444   .     S
C336   O552    1.291   1_455 S
O337   Cu343   1.966   .     S
O337   C561    1.304   1_455 S
O338   Cu344   1.966   .     S
O338   C452    1.304   .     S
O339   Cu344   1.960   .     S
O339   C341    1.294   .     A
O340   C342    1.295   .     A
O340   Cu343   1.960   .     S
C341   C345    1.471   .     S
C341   O447    1.304   .     S
C342   C346    1.473   .     S
C342   O558    1.304   1_455 S
Cu343  N383    2.020   .     S
Cu343  Cu564   2.689   1_455 S
Cu344  N384    2.020   .     S
Cu344  Cu453   2.689   .     S
C345   C349    1.402   .     A
C345   C351    1.412   .     A
C346   C352    1.411   .     A
C346   C350    1.403   .     A
C347   C355    1.408   .     A
C347   C349    1.395   .     A
C347   H365    1.082   .     S
C348   C356    1.408   .     A
C348   C350    1.395   .     A
C348   H586    1.082   1_455 S
C349   H474    1.083   .     S
C350   H583    1.083   1_455 S
C351   O402    1.388   .     S
C351   C353    1.401   .     A
C352   C354    1.408   .     A
C352   O391    1.390   .     S
C353   C357    1.418   .     A
C353   C355    1.415   .     A
C354   C356    1.413   .     A
C354   C358    1.415   .     A
C355   C1351   1.409   .     S
C356   C1352   1.409   1_554 S
C357   C360    1.423   .     A
C357   C1348   1.406   .     S
C358   C359    1.421   .     A
C358   C1347   1.406   1_554 S
C359   O413    1.385   .     S
C359   C361    1.405   .     A
C360   C362    1.410   .     A
C360   O424    1.386   .     S
C361   N385    1.439   .     S
C361   C1345   1.409   1_554 S
C362   N388    1.440   .     S
C362   C1346   1.409   .     S
H363   C460    1.083   .     S
H364   C569    1.083   1_455 S
H366   C458    1.082   .     S
C367   H369    1.083   .     S
C367   C376    1.398   .     A
C368   C375    1.398   .     A
C368   H370    1.083   .     S
C368   C702    1.382   .     S
C371   H373    1.083   .     S
C371   C697    1.383   .     S
C371   C485    1.401   .     S
C372   H374    1.083   .     S
C372   C596    1.401   1_455 S
C375   C591    1.401   1_455 S
C376   C482    1.401   .     S
C377   C379    1.415   .     A
C377   N435    1.430   .     S
C377   N384    1.386   .     A
C378   C380    1.414   .     A
C378   N383    1.386   .     A
C378   N438    1.429   .     S
C379   H381    1.082   .     S
C379   N383    1.356   .     A
C380   N384    1.355   .     A
C380   H382    1.082   .     S
N385   O386    1.301   .     A
N385   O387    1.301   .     A
N388   O390    1.301   .     A
N388   O389    1.301   .     A
O391   C392    1.419   .     S
C392   H394    1.116   .     S
C392   H393    1.111   .     S
C392   C395    1.531   .     S
C395   H397    1.112   .     S
C395   C398    1.526   .     S
C395   H396    1.109   .     S
C398   H399    1.109   .     S
C398   H401    1.111   .     S
C398   H400    1.111   .     S
O402   C403    1.418   .     S
C403   H405    1.117   .     S
C403   H404    1.111   .     S
C403   C406    1.534   .     S
C406   C409    1.526   .     S
C406   H407    1.112   .     S
C406   H408    1.111   .     S
C409   H411    1.111   .     S
C409   H412    1.111   .     S
C409   H410    1.110   .     S
O413   C414    1.415   .     S
C414   C417    1.528   .     S
C414   H415    1.116   .     S
C414   H416    1.114   .     S
C417   H418    1.112   .     S
C417   C420    1.527   .     S
C417   H419    1.111   .     S
C420   H423    1.111   .     S
C420   H751    1.111   .     S
C420   H752    1.111   .     S
O424   C425    1.417   .     S
C425   H426    1.111   .     S
C425   C428    1.533   .     S
C425   H427    1.117   .     S
C428   H430    1.111   .     S
C428   C431    1.526   .     S
C428   H429    1.112   .     S
C431   H432    1.110   .     S
C431   H433    1.110   .     S
C431   H434    1.110   .     S
N435   O437    1.301   .     A
N435   O436    1.298   .     A
N438   O439    1.301   .     A
N438   O440    1.297   .     A
O441   Cu453   1.954   .     S
O442   Cu454   1.954   .     S
O442   C556    1.291   .     S
O443   Cu454   1.959   .     S
O443   C445    1.296   .     A
O444   Cu453   1.959   .     S
O444   C446    1.295   .     A
C445   C486    1.444   .     S
C445   O551    1.290   .     S
C446   C485    1.444   .     S
O447   Cu453   1.966   .     S
O448   Cu454   1.966   .     S
O448   C562    1.304   .     S
O449   Cu454   1.960   .     S
O449   C451    1.294   .     A
O450   C452    1.295   .     A
O450   Cu453   1.960   .     S
C451   C455    1.471   .     S
C451   O557    1.304   .     S
C452   C456    1.473   .     S
Cu453  N493    2.020   .     S
Cu454  N494    2.020   .     S
Cu454  Cu563   2.689   .     S
C455   C459    1.402   .     A
C455   C461    1.412   .     A
C456   C462    1.411   .     A
C456   C460    1.403   .     A
C457   C465    1.408   .     A
C457   C459    1.395   .     A
C457   H475    1.082   .     S
C458   C466    1.408   .     A
C458   C460    1.395   .     A
C459   H584    1.083   .     S
C461   O512    1.388   .     S
C461   C463    1.401   .     A
C462   C464    1.408   .     A
C462   O501    1.390   .     S
C463   C467    1.418   .     A
C463   C465    1.415   .     A
C464   C466    1.413   .     A
C464   C468    1.415   .     A
C465   C1461   1.409   .     S
C466   C1462   1.409   1_554 S
C467   C470    1.423   .     A
C467   C1458   1.406   .     S
C468   C469    1.421   .     A
C468   C1457   1.406   1_554 S
C469   O523    1.385   .     S
C469   C471    1.405   .     A
C470   C472    1.410   .     A
C470   O534    1.386   .     S
C471   N495    1.439   .     S
C471   C1455   1.409   1_554 S
C472   N498    1.440   .     S
C472   C1456   1.409   .     S
H473   C570    1.083   .     S
H476   C568    1.082   .     S
C477   H479    1.083   .     S
C477   C486    1.398   .     A
C478   C485    1.398   .     A
C478   H480    1.083   .     S
C478   C812    1.382   .     S
C481   H483    1.083   .     S
C481   C807    1.383   .     S
C481   C595    1.401   .     S
C482   H484    1.083   .     S
C486   C592    1.401   .     S
C487   C489    1.415   .     A
C487   N545    1.430   .     S
C487   N494    1.386   .     A
C488   C490    1.414   .     A
C488   N493    1.386   .     A
C488   N548    1.429   .     S
C489   H491    1.082   .     S
C489   N493    1.356   .     A
C490   N494    1.355   .     A
C490   H492    1.082   .     S
N495   O496    1.301   .     A
N495   O497    1.301   .     A
N498   O500    1.301   .     A
N498   O499    1.301   .     A
O501   C502    1.419   .     S
C502   H504    1.116   .     S
C502   H503    1.111   .     S
C502   C505    1.531   .     S
C505   H507    1.112   .     S
C505   C508    1.526   .     S
C505   H506    1.109   .     S
C508   H509    1.109   .     S
C508   H511    1.111   .     S
C508   H510    1.111   .     S
O512   C513    1.418   .     S
C513   H515    1.117   .     S
C513   H514    1.111   .     S
C513   C516    1.534   .     S
C516   C519    1.526   .     S
C516   H517    1.112   .     S
C516   H518    1.111   .     S
C519   H521    1.111   .     S
C519   H522    1.111   .     S
C519   H520    1.110   .     S
O523   C524    1.415   .     S
C524   C527    1.528   .     S
C524   H525    1.116   .     S
C524   H526    1.114   .     S
C527   H528    1.112   .     S
C527   C530    1.527   .     S
C527   H529    1.111   .     S
C530   H533    1.111   .     S
C530   H861    1.111   .     S
C530   H862    1.111   .     S
O534   C535    1.417   .     S
C535   H536    1.111   .     S
C535   C538    1.533   .     S
C535   H537    1.117   .     S
C538   H540    1.111   .     S
C538   C541    1.526   .     S
C538   H539    1.112   .     S
C541   H542    1.110   .     S
C541   H543    1.110   .     S
C541   H544    1.110   .     S
N545   O547    1.301   .     A
N545   O546    1.298   .     A
N548   O549    1.301   .     A
N548   O550    1.297   .     A
O551   Cu563   1.954   .     S
O552   Cu564   1.954   .     S
O552   C336    1.291   1_655 S
O553   Cu564   1.959   .     S
O553   C555    1.296   .     A
O554   Cu563   1.959   .     S
O554   C556    1.295   .     A
C555   C596    1.444   .     S
C555   O331    1.290   1_655 S
C556   C595    1.444   .     S
O557   Cu563   1.966   .     S
O558   Cu564   1.966   .     S
O558   C342    1.304   1_655 S
O559   Cu564   1.960   .     S
O559   C561    1.294   .     A
O560   C562    1.295   .     A
O560   Cu563   1.960   .     S
C561   C565    1.471   .     S
C561   O337    1.304   1_655 S
C562   C566    1.473   .     S
Cu563  N603    2.020   .     S
Cu564  N604    2.020   .     S
Cu564  Cu343   2.689   1_655 S
C565   C569    1.402   .     A
C565   C571    1.412   .     A
C566   C572    1.411   .     A
C566   C570    1.403   .     A
C567   C575    1.408   .     A
C567   C569    1.395   .     A
C567   H585    1.082   .     S
C568   C576    1.408   .     A
C568   C570    1.395   .     A
C569   H364    1.083   1_655 S
C571   O622    1.388   .     S
C571   C573    1.401   .     A
C572   C574    1.408   .     A
C572   O611    1.390   .     S
C573   C577    1.418   .     A
C573   C575    1.415   .     A
C574   C576    1.413   .     A
C574   C578    1.415   .     A
C575   C1571   1.409   .     S
C576   C1572   1.409   1_554 S
C577   C580    1.423   .     A
C577   C1568   1.406   .     S
C578   C579    1.421   .     A
C578   C1567   1.406   1_554 S
C579   O633    1.385   .     S
C579   C581    1.405   .     A
C580   C582    1.410   .     A
C580   O644    1.386   .     S
C581   N605    1.439   .     S
C581   C1565   1.409   1_554 S
C582   N608    1.440   .     S
C582   C1566   1.409   .     S
H583   C350    1.083   1_655 S
H586   C348    1.082   1_655 S
C587   H589    1.083   .     S
C587   C596    1.398   .     A
C588   C595    1.398   .     A
C588   H590    1.083   .     S
C588   C922    1.382   .     S
C591   H593    1.083   .     S
C591   C917    1.383   .     S
C591   C375    1.401   1_655 S
C592   H594    1.083   .     S
C596   C372    1.401   1_655 S
C597   C599    1.415   .     A
C597   N655    1.430   .     S
C597   N604    1.386   .     A
C598   C600    1.414   .     A
C598   N603    1.386   .     A
C598   N658    1.429   .     S
C599   H601    1.082   .     S
C599   N603    1.356   .     A
C600   N604    1.355   .     A
C600   H602    1.082   .     S
N605   O606    1.301   .     A
N605   O607    1.301   .     A
N608   O610    1.301   .     A
N608   O609    1.301   .     A
O611   C612    1.419   .     S
C612   H614    1.116   .     S
C612   H613    1.111   .     S
C612   C615    1.531   .     S
C615   H617    1.112   .     S
C615   C618    1.526   .     S
C615   H616    1.109   .     S
C618   H619    1.109   .     S
C618   H621    1.111   .     S
C618   H620    1.111   .     S
O622   C623    1.418   .     S
C623   H625    1.117   .     S
C623   H624    1.111   .     S
C623   C626    1.534   .     S
C626   C629    1.526   .     S
C626   H627    1.112   .     S
C626   H628    1.111   .     S
C629   H631    1.111   .     S
C629   H632    1.111   .     S
C629   H630    1.110   .     S
O633   C634    1.415   .     S
C634   C637    1.528   .     S
C634   H635    1.116   .     S
C634   H636    1.114   .     S
C637   H638    1.112   .     S
C637   C640    1.527   .     S
C637   H639    1.111   .     S
C640   H643    1.111   .     S
C640   H971    1.111   .     S
C640   H972    1.111   .     S
O644   C645    1.417   .     S
C645   H646    1.111   .     S
C645   C648    1.533   .     S
C645   H647    1.117   .     S
C648   H650    1.111   .     S
C648   C651    1.526   .     S
C648   H649    1.112   .     S
C651   H652    1.110   .     S
C651   H653    1.110   .     S
C651   H654    1.110   .     S
N655   O657    1.301   .     A
N655   O656    1.298   .     A
N658   O659    1.301   .     A
N658   O660    1.297   .     A
O661   Cu673   1.954   .     S
O661   C885    1.290   1_455 S
O662   Cu674   1.954   .     S
O662   C776    1.291   .     S
O663   Cu674   1.959   .     S
O663   C665    1.296   .     A
O664   Cu673   1.959   .     S
O664   C666    1.295   .     A
C665   C706    1.444   .     S
C665   O771    1.290   .     S
C666   C705    1.444   .     S
C666   O882    1.291   1_455 S
O667   Cu673   1.966   .     S
O667   C891    1.304   1_455 S
O668   Cu674   1.966   .     S
O668   C782    1.304   .     S
O669   Cu674   1.960   .     S
O669   C671    1.294   .     A
O670   C672    1.295   .     A
O670   Cu673   1.960   .     S
C671   C675    1.471   .     S
C671   O777    1.304   .     S
C672   C676    1.473   .     S
C672   O888    1.304   1_455 S
Cu673  N713    2.020   .     S
Cu673  Cu894   2.689   1_455 S
Cu674  N714    2.020   .     S
Cu674  Cu783   2.689   .     S
C675   C679    1.402   .     A
C675   C681    1.412   .     A
C676   C682    1.411   .     A
C676   C680    1.403   .     A
C677   C685    1.408   .     A
C677   C679    1.395   .     A
C677   H695    1.082   .     S
C678   C686    1.408   .     A
C678   C680    1.395   .     A
C678   H916    1.082   1_455 S
C679   H804    1.083   .     S
C680   H913    1.083   1_455 S
C681   O732    1.388   .     S
C681   C683    1.401   .     A
C682   C684    1.408   .     A
C682   O721    1.390   .     S
C683   C687    1.418   .     A
C683   C685    1.415   .     A
C684   C686    1.413   .     A
C684   C688    1.415   .     A
C685   C1681   1.409   .     S
C686   C1682   1.409   1_554 S
C687   C690    1.423   .     A
C687   C1678   1.406   .     S
C688   C689    1.421   .     A
C688   C1677   1.406   1_554 S
C689   O743    1.385   .     S
C689   C691    1.405   .     A
C690   C692    1.410   .     A
C690   O754    1.386   .     S
C691   N715    1.439   .     S
C691   C1675   1.409   1_554 S
C692   N718    1.440   .     S
C692   C1676   1.409   .     S
H693   C790    1.083   .     S
H694   C899    1.083   1_455 S
H696   C788    1.082   .     S
C697   H699    1.083   .     S
C697   C706    1.398   .     A
C698   C705    1.398   .     A
C698   H700    1.083   .     S
C698   C42     1.382   1_565 S
C701   H703    1.083   .     S
C701   C37     1.383   1_565 S
C701   C815    1.401   .     S
C702   H704    1.083   .     S
C702   C926    1.401   1_455 S
C705   C921    1.401   1_455 S
C706   C812    1.401   .     S
C707   C709    1.415   .     A
C707   N765    1.430   .     S
C707   N714    1.386   .     A
C708   C710    1.414   .     A
C708   N713    1.386   .     A
C708   N768    1.429   .     S
C709   H711    1.082   .     S
C709   N713    1.356   .     A
C710   N714    1.355   .     A
C710   H712    1.082   .     S
N715   O716    1.301   .     A
N715   O717    1.301   .     A
N718   O720    1.301   .     A
N718   O719    1.301   .     A
O721   C722    1.419   .     S
C722   H724    1.116   .     S
C722   H723    1.111   .     S
C722   C725    1.531   .     S
C725   H727    1.112   .     S
C725   C728    1.526   .     S
C725   H726    1.109   .     S
C728   H729    1.109   .     S
C728   H731    1.111   .     S
C728   H730    1.111   .     S
O732   C733    1.418   .     S
C733   H735    1.117   .     S
C733   H734    1.111   .     S
C733   C736    1.534   .     S
C736   C739    1.526   .     S
C736   H737    1.112   .     S
C736   H738    1.111   .     S
C739   H741    1.111   .     S
C739   H742    1.111   .     S
C739   H740    1.110   .     S
O743   C744    1.415   .     S
C744   C747    1.528   .     S
C744   H745    1.116   .     S
C744   H746    1.114   .     S
C747   H748    1.112   .     S
C747   C750    1.527   .     S
C747   H749    1.111   .     S
C750   H753    1.111   .     S
C750   H91     1.111   1_565 S
C750   H92     1.111   1_565 S
O754   C755    1.417   .     S
C755   H756    1.111   .     S
C755   C758    1.533   .     S
C755   H757    1.117   .     S
C758   H760    1.111   .     S
C758   C761    1.526   .     S
C758   H759    1.112   .     S
C761   H762    1.110   .     S
C761   H763    1.110   .     S
C761   H764    1.110   .     S
N765   O767    1.301   .     A
N765   O766    1.298   .     A
N768   O769    1.301   .     A
N768   O770    1.297   .     A
O771   Cu783   1.954   .     S
O772   Cu784   1.954   .     S
O772   C886    1.291   .     S
O773   Cu784   1.959   .     S
O773   C775    1.296   .     A
O774   Cu783   1.959   .     S
O774   C776    1.295   .     A
C775   C816    1.444   .     S
C775   O881    1.290   .     S
C776   C815    1.444   .     S
O777   Cu783   1.966   .     S
O778   Cu784   1.966   .     S
O778   C892    1.304   .     S
O779   Cu784   1.960   .     S
O779   C781    1.294   .     A
O780   C782    1.295   .     A
O780   Cu783   1.960   .     S
C781   C785    1.471   .     S
C781   O887    1.304   .     S
C782   C786    1.473   .     S
Cu783  N823    2.020   .     S
Cu784  N824    2.020   .     S
Cu784  Cu893   2.689   .     S
C785   C789    1.402   .     A
C785   C791    1.412   .     A
C786   C792    1.411   .     A
C786   C790    1.403   .     A
C787   C795    1.408   .     A
C787   C789    1.395   .     A
C787   H805    1.082   .     S
C788   C796    1.408   .     A
C788   C790    1.395   .     A
C789   H914    1.083   .     S
C791   O842    1.388   .     S
C791   C793    1.401   .     A
C792   C794    1.408   .     A
C792   O831    1.390   .     S
C793   C797    1.418   .     A
C793   C795    1.415   .     A
C794   C796    1.413   .     A
C794   C798    1.415   .     A
C795   C1791   1.409   .     S
C796   C1792   1.409   1_554 S
C797   C800    1.423   .     A
C797   C1788   1.406   .     S
C798   C799    1.421   .     A
C798   C1787   1.406   1_554 S
C799   O853    1.385   .     S
C799   C801    1.405   .     A
C800   C802    1.410   .     A
C800   O864    1.386   .     S
C801   N825    1.439   .     S
C801   C1785   1.409   1_554 S
C802   N828    1.440   .     S
C802   C1786   1.409   .     S
H803   C900    1.083   .     S
H806   C898    1.082   .     S
C807   H809    1.083   .     S
C807   C816    1.398   .     A
C808   C815    1.398   .     A
C808   H810    1.083   .     S
C808   C152    1.382   1_565 S
C811   H813    1.083   .     S
C811   C147    1.383   1_565 S
C811   C925    1.401   .     S
C812   H814    1.083   .     S
C816   C922    1.401   .     S
C817   C819    1.415   .     A
C817   N875    1.430   .     S
C817   N824    1.386   .     A
C818   C820    1.414   .     A
C818   N823    1.386   .     A
C818   N878    1.429   .     S
C819   H821    1.082   .     S
C819   N823    1.356   .     A
C820   N824    1.355   .     A
C820   H822    1.082   .     S
N825   O826    1.301   .     A
N825   O827    1.301   .     A
N828   O830    1.301   .     A
N828   O829    1.301   .     A
O831   C832    1.419   .     S
C832   H834    1.116   .     S
C832   H833    1.111   .     S
C832   C835    1.531   .     S
C835   H837    1.112   .     S
C835   C838    1.526   .     S
C835   H836    1.109   .     S
C838   H839    1.109   .     S
C838   H841    1.111   .     S
C838   H840    1.111   .     S
O842   C843    1.418   .     S
C843   H845    1.117   .     S
C843   H844    1.111   .     S
C843   C846    1.534   .     S
C846   C849    1.526   .     S
C846   H847    1.112   .     S
C846   H848    1.111   .     S
C849   H851    1.111   .     S
C849   H852    1.111   .     S
C849   H850    1.110   .     S
O853   C854    1.415   .     S
C854   C857    1.528   .     S
C854   H855    1.116   .     S
C854   H856    1.114   .     S
C857   H858    1.112   .     S
C857   C860    1.527   .     S
C857   H859    1.111   .     S
C860   H863    1.111   .     S
C860   H201    1.111   1_565 S
C860   H202    1.111   1_565 S
O864   C865    1.417   .     S
C865   H866    1.111   .     S
C865   C868    1.533   .     S
C865   H867    1.117   .     S
C868   H870    1.111   .     S
C868   C871    1.526   .     S
C868   H869    1.112   .     S
C871   H872    1.110   .     S
C871   H873    1.110   .     S
C871   H874    1.110   .     S
N875   O877    1.301   .     A
N875   O876    1.298   .     A
N878   O879    1.301   .     A
N878   O880    1.297   .     A
O881   Cu893   1.954   .     S
O882   Cu894   1.954   .     S
O882   C666    1.291   1_655 S
O883   Cu894   1.959   .     S
O883   C885    1.296   .     A
O884   Cu893   1.959   .     S
O884   C886    1.295   .     A
C885   C926    1.444   .     S
C885   O661    1.290   1_655 S
C886   C925    1.444   .     S
O887   Cu893   1.966   .     S
O888   Cu894   1.966   .     S
O888   C672    1.304   1_655 S
O889   Cu894   1.960   .     S
O889   C891    1.294   .     A
O890   C892    1.295   .     A
O890   Cu893   1.960   .     S
C891   C895    1.471   .     S
C891   O667    1.304   1_655 S
C892   C896    1.473   .     S
Cu893  N933    2.020   .     S
Cu894  N934    2.020   .     S
Cu894  Cu673   2.689   1_655 S
C895   C899    1.402   .     A
C895   C901    1.412   .     A
C896   C902    1.411   .     A
C896   C900    1.403   .     A
C897   C905    1.408   .     A
C897   C899    1.395   .     A
C897   H915    1.082   .     S
C898   C906    1.408   .     A
C898   C900    1.395   .     A
C899   H694    1.083   1_655 S
C901   O952    1.388   .     S
C901   C903    1.401   .     A
C902   C904    1.408   .     A
C902   O941    1.390   .     S
C903   C907    1.418   .     A
C903   C905    1.415   .     A
C904   C906    1.413   .     A
C904   C908    1.415   .     A
C905   C1901   1.409   .     S
C906   C1902   1.409   1_554 S
C907   C910    1.423   .     A
C907   C1898   1.406   .     S
C908   C909    1.421   .     A
C908   C1897   1.406   1_554 S
C909   O963    1.385   .     S
C909   C911    1.405   .     A
C910   C912    1.410   .     A
C910   O974    1.386   .     S
C911   N935    1.439   .     S
C911   C1895   1.409   1_554 S
C912   N938    1.440   .     S
C912   C1896   1.409   .     S
H913   C680    1.083   1_655 S
H916   C678    1.082   1_655 S
C917   H919    1.083   .     S
C917   C926    1.398   .     A
C918   C925    1.398   .     A
C918   H920    1.083   .     S
C918   C262    1.382   1_565 S
C921   H923    1.083   .     S
C921   C257    1.383   1_565 S
C921   C705    1.401   1_655 S
C922   H924    1.083   .     S
C926   C702    1.401   1_655 S
C927   C929    1.415   .     A
C927   N985    1.430   .     S
C927   N934    1.386   .     A
C928   C930    1.414   .     A
C928   N933    1.386   .     A
C928   N988    1.429   .     S
C929   H931    1.082   .     S
C929   N933    1.356   .     A
C930   N934    1.355   .     A
C930   H932    1.082   .     S
N935   O936    1.301   .     A
N935   O937    1.301   .     A
N938   O940    1.301   .     A
N938   O939    1.301   .     A
O941   C942    1.419   .     S
C942   H944    1.116   .     S
C942   H943    1.111   .     S
C942   C945    1.531   .     S
C945   H947    1.112   .     S
C945   C948    1.526   .     S
C945   H946    1.109   .     S
C948   H949    1.109   .     S
C948   H951    1.111   .     S
C948   H950    1.111   .     S
O952   C953    1.418   .     S
C953   H955    1.117   .     S
C953   H954    1.111   .     S
C953   C956    1.534   .     S
C956   C959    1.526   .     S
C956   H957    1.112   .     S
C956   H958    1.111   .     S
C959   H961    1.111   .     S
C959   H962    1.111   .     S
C959   H960    1.110   .     S
O963   C964    1.415   .     S
C964   C967    1.528   .     S
C964   H965    1.116   .     S
C964   H966    1.114   .     S
C967   H968    1.112   .     S
C967   C970    1.527   .     S
C967   H969    1.111   .     S
C970   H973    1.111   .     S
C970   H311    1.111   1_565 S
C970   H312    1.111   1_565 S
O974   C975    1.417   .     S
C975   H976    1.111   .     S
C975   C978    1.533   .     S
C975   H977    1.117   .     S
C978   H980    1.111   .     S
C978   C981    1.526   .     S
C978   H979    1.112   .     S
C981   H982    1.110   .     S
C981   H983    1.110   .     S
C981   H984    1.110   .     S
N985   O987    1.301   .     A
N985   O986    1.298   .     A
N988   O989    1.301   .     A
N988   O990    1.297   .     A
O991   Cu1003  1.954   .     S
O991   C1215   1.290   1_455 S
O992   Cu1004  1.954   .     S
O992   C1106   1.291   .     S
O993   Cu1004  1.959   .     S
O993   C995    1.296   .     A
O994   Cu1003  1.959   .     S
O994   C996    1.295   .     A
C995   C1036   1.444   .     S
C995   O1101   1.290   .     S
C996   C1035   1.444   .     S
C996   O1212   1.291   1_455 S
O997   Cu1003  1.966   .     S
O997   C1221   1.304   1_455 S
O998   Cu1004  1.966   .     S
O998   C1112   1.304   .     S
O999   Cu1004  1.960   .     S
O999   C1001   1.294   .     A
O1000  C1002   1.295   .     A
O1000  Cu1003  1.960   .     S
C1001  C1005   1.471   .     S
C1001  O1107   1.304   .     S
C1002  C1006   1.473   .     S
C1002  O1218   1.304   1_455 S
Cu1003 N1043   2.020   .     S
Cu1003 Cu1224  2.689   1_455 S
Cu1004 N1044   2.020   .     S
Cu1004 Cu1113  2.689   .     S
C1005  C1009   1.402   .     A
C1005  C1011   1.412   .     A
C1006  C1012   1.411   .     A
C1006  C1010   1.403   .     A
C1007  C1015   1.408   .     A
C1007  C1009   1.395   .     A
C1007  H1025   1.082   .     S
C1008  C1016   1.408   .     A
C1008  C1010   1.395   .     A
C1008  H1246   1.082   1_455 S
C1009  H1134   1.083   .     S
C1010  H1243   1.083   1_455 S
C1011  O1062   1.388   .     S
C1011  C1013   1.401   .     A
C1012  C1014   1.408   .     A
C1012  O1051   1.390   .     S
C1013  C1017   1.418   .     A
C1013  C1015   1.415   .     A
C1014  C1016   1.413   .     A
C1014  C1018   1.415   .     A
C1015  C31     1.409   1_556 S
C1017  C1020   1.423   .     A
C1017  C28     1.406   1_556 S
C1018  C1019   1.421   .     A
C1019  O1073   1.385   .     S
C1019  C1021   1.405   .     A
C1020  C1022   1.410   .     A
C1020  O1084   1.386   .     S
C1021  N1045   1.439   .     S
C1022  N1048   1.440   .     S
C1022  C26     1.409   1_556 S
H1023  C1120   1.083   .     S
H1024  C1229   1.083   1_455 S
H1026  C1118   1.082   .     S
C1027  H1029   1.083   .     S
C1027  C1036   1.398   .     A
C1027  C1691   1.383   1_545 S
C1028  C1035   1.398   .     A
C1028  H1030   1.083   .     S
C1028  C1362   1.382   .     S
C1031  H1033   1.083   .     S
C1031  C1357   1.383   .     S
C1031  C1145   1.401   .     S
C1032  H1034   1.083   .     S
C1032  C1688   1.382   1_545 S
C1032  C1256   1.401   1_455 S
C1035  C1251   1.401   1_455 S
C1036  C1142   1.401   .     S
C1037  C1039   1.415   .     A
C1037  N1095   1.430   .     S
C1037  N1044   1.386   .     A
C1038  C1040   1.414   .     A
C1038  N1043   1.386   .     A
C1038  N1098   1.429   .     S
C1039  H1041   1.082   .     S
C1039  N1043   1.356   .     A
C1040  N1044   1.355   .     A
C1040  H1042   1.082   .     S
N1045  O1046   1.301   .     A
N1045  O1047   1.301   .     A
N1048  O1050   1.301   .     A
N1048  O1049   1.301   .     A
O1051  C1052   1.419   .     S
C1052  H1054   1.116   .     S
C1052  H1053   1.111   .     S
C1052  C1055   1.531   .     S
C1055  H1057   1.112   .     S
C1055  C1058   1.526   .     S
C1055  H1056   1.109   .     S
C1058  H1059   1.109   .     S
C1058  H1061   1.111   .     S
C1058  H1060   1.111   .     S
O1062  C1063   1.418   .     S
C1063  H1065   1.117   .     S
C1063  H1064   1.111   .     S
C1063  C1066   1.534   .     S
C1066  C1069   1.526   .     S
C1066  H1067   1.112   .     S
C1066  H1068   1.111   .     S
C1069  H1071   1.111   .     S
C1069  H1072   1.111   .     S
C1069  H1070   1.110   .     S
O1073  C1074   1.415   .     S
C1074  C1077   1.528   .     S
C1074  H1075   1.116   .     S
C1074  H1076   1.114   .     S
C1077  H1078   1.112   .     S
C1077  C1080   1.527   .     S
C1077  H1079   1.111   .     S
C1080  H1083   1.111   .     S
C1080  H1411   1.111   .     S
C1080  H1412   1.111   .     S
H1081  C1740   1.111   1_545 S
H1082  C1740   1.111   1_545 S
O1084  C1085   1.417   .     S
C1085  H1086   1.111   .     S
C1085  C1088   1.533   .     S
C1085  H1087   1.117   .     S
C1088  H1090   1.111   .     S
C1088  C1091   1.526   .     S
C1088  H1089   1.112   .     S
C1091  H1092   1.110   .     S
C1091  H1093   1.110   .     S
C1091  H1094   1.110   .     S
N1095  O1097   1.301   .     A
N1095  O1096   1.298   .     A
N1098  O1099   1.301   .     A
N1098  O1100   1.297   .     A
O1101  Cu1113  1.954   .     S
O1102  Cu1114  1.954   .     S
O1102  C1216   1.291   .     S
O1103  Cu1114  1.959   .     S
O1103  C1105   1.296   .     A
O1104  Cu1113  1.959   .     S
O1104  C1106   1.295   .     A
C1105  C1146   1.444   .     S
C1105  O1211   1.290   .     S
C1106  C1145   1.444   .     S
O1107  Cu1113  1.966   .     S
O1108  Cu1114  1.966   .     S
O1108  C1222   1.304   .     S
O1109  Cu1114  1.960   .     S
O1109  C1111   1.294   .     A
O1110  C1112   1.295   .     A
O1110  Cu1113  1.960   .     S
C1111  C1115   1.471   .     S
C1111  O1217   1.304   .     S
C1112  C1116   1.473   .     S
Cu1113 N1153   2.020   .     S
Cu1114 N1154   2.020   .     S
Cu1114 Cu1223  2.689   .     S
C1115  C1119   1.402   .     A
C1115  C1121   1.412   .     A
C1116  C1122   1.411   .     A
C1116  C1120   1.403   .     A
C1117  C1125   1.408   .     A
C1117  C1119   1.395   .     A
C1117  H1135   1.082   .     S
C1118  C1126   1.408   .     A
C1118  C1120   1.395   .     A
C1119  H1244   1.083   .     S
C1121  O1172   1.388   .     S
C1121  C1123   1.401   .     A
C1122  C1124   1.408   .     A
C1122  O1161   1.390   .     S
C1123  C1127   1.418   .     A
C1123  C1125   1.415   .     A
C1124  C1126   1.413   .     A
C1124  C1128   1.415   .     A
C1125  C141    1.409   1_556 S
C1127  C1130   1.423   .     A
C1127  C138    1.406   1_556 S
C1128  C1129   1.421   .     A
C1129  O1183   1.385   .     S
C1129  C1131   1.405   .     A
C1130  C1132   1.410   .     A
C1130  O1194   1.386   .     S
C1131  N1155   1.439   .     S
C1132  N1158   1.440   .     S
C1132  C136    1.409   1_556 S
H1133  C1230   1.083   .     S
H1136  C1228   1.082   .     S
C1137  H1139   1.083   .     S
C1137  C1146   1.398   .     A
C1137  C1801   1.383   1_545 S
C1138  C1145   1.398   .     A
C1138  H1140   1.083   .     S
C1138  C1472   1.382   .     S
C1141  H1143   1.083   .     S
C1141  C1467   1.383   .     S
C1141  C1255   1.401   .     S
C1142  H1144   1.083   .     S
C1142  C1798   1.382   1_545 S
C1146  C1252   1.401   .     S
C1147  C1149   1.415   .     A
C1147  N1205   1.430   .     S
C1147  N1154   1.386   .     A
C1148  C1150   1.414   .     A
C1148  N1153   1.386   .     A
C1148  N1208   1.429   .     S
C1149  H1151   1.082   .     S
C1149  N1153   1.356   .     A
C1150  N1154   1.355   .     A
C1150  H1152   1.082   .     S
N1155  O1156   1.301   .     A
N1155  O1157   1.301   .     A
N1158  O1160   1.301   .     A
N1158  O1159   1.301   .     A
O1161  C1162   1.419   .     S
C1162  H1164   1.116   .     S
C1162  H1163   1.111   .     S
C1162  C1165   1.531   .     S
C1165  H1167   1.112   .     S
C1165  C1168   1.526   .     S
C1165  H1166   1.109   .     S
C1168  H1169   1.109   .     S
C1168  H1171   1.111   .     S
C1168  H1170   1.111   .     S
O1172  C1173   1.418   .     S
C1173  H1175   1.117   .     S
C1173  H1174   1.111   .     S
C1173  C1176   1.534   .     S
C1176  C1179   1.526   .     S
C1176  H1177   1.112   .     S
C1176  H1178   1.111   .     S
C1179  H1181   1.111   .     S
C1179  H1182   1.111   .     S
C1179  H1180   1.110   .     S
O1183  C1184   1.415   .     S
C1184  C1187   1.528   .     S
C1184  H1185   1.116   .     S
C1184  H1186   1.114   .     S
C1187  H1188   1.112   .     S
C1187  C1190   1.527   .     S
C1187  H1189   1.111   .     S
C1190  H1193   1.111   .     S
C1190  H1521   1.111   .     S
C1190  H1522   1.111   .     S
H1191  C1850   1.111   1_545 S
H1192  C1850   1.111   1_545 S
O1194  C1195   1.417   .     S
C1195  H1196   1.111   .     S
C1195  C1198   1.533   .     S
C1195  H1197   1.117   .     S
C1198  H1200   1.111   .     S
C1198  C1201   1.526   .     S
C1198  H1199   1.112   .     S
C1201  H1202   1.110   .     S
C1201  H1203   1.110   .     S
C1201  H1204   1.110   .     S
N1205  O1207   1.301   .     A
N1205  O1206   1.298   .     A
N1208  O1209   1.301   .     A
N1208  O1210   1.297   .     A
O1211  Cu1223  1.954   .     S
O1212  Cu1224  1.954   .     S
O1212  C996    1.291   1_655 S
O1213  Cu1224  1.959   .     S
O1213  C1215   1.296   .     A
O1214  Cu1223  1.959   .     S
O1214  C1216   1.295   .     A
C1215  C1256   1.444   .     S
C1215  O991    1.290   1_655 S
C1216  C1255   1.444   .     S
O1217  Cu1223  1.966   .     S
O1218  Cu1224  1.966   .     S
O1218  C1002   1.304   1_655 S
O1219  Cu1224  1.960   .     S
O1219  C1221   1.294   .     A
O1220  C1222   1.295   .     A
O1220  Cu1223  1.960   .     S
C1221  C1225   1.471   .     S
C1221  O997    1.304   1_655 S
C1222  C1226   1.473   .     S
Cu1223 N1263   2.020   .     S
Cu1224 N1264   2.020   .     S
Cu1224 Cu1003  2.689   1_655 S
C1225  C1229   1.402   .     A
C1225  C1231   1.412   .     A
C1226  C1232   1.411   .     A
C1226  C1230   1.403   .     A
C1227  C1235   1.408   .     A
C1227  C1229   1.395   .     A
C1227  H1245   1.082   .     S
C1228  C1236   1.408   .     A
C1228  C1230   1.395   .     A
C1229  H1024   1.083   1_655 S
C1231  O1282   1.388   .     S
C1231  C1233   1.401   .     A
C1232  C1234   1.408   .     A
C1232  O1271   1.390   .     S
C1233  C1237   1.418   .     A
C1233  C1235   1.415   .     A
C1234  C1236   1.413   .     A
C1234  C1238   1.415   .     A
C1235  C251    1.409   1_556 S
C1237  C1240   1.423   .     A
C1237  C248    1.406   1_556 S
C1238  C1239   1.421   .     A
C1239  O1293   1.385   .     S
C1239  C1241   1.405   .     A
C1240  C1242   1.410   .     A
C1240  O1304   1.386   .     S
C1241  N1265   1.439   .     S
C1242  N1268   1.440   .     S
C1242  C246    1.409   1_556 S
H1243  C1010   1.083   1_655 S
H1246  C1008   1.082   1_655 S
C1247  H1249   1.083   .     S
C1247  C1256   1.398   .     A
C1247  C1911   1.383   1_545 S
C1248  C1255   1.398   .     A
C1248  H1250   1.083   .     S
C1248  C1582   1.382   .     S
C1251  H1253   1.083   .     S
C1251  C1577   1.383   .     S
C1251  C1035   1.401   1_655 S
C1252  H1254   1.083   .     S
C1252  C1908   1.382   1_545 S
C1256  C1032   1.401   1_655 S
C1257  C1259   1.415   .     A
C1257  N1315   1.430   .     S
C1257  N1264   1.386   .     A
C1258  C1260   1.414   .     A
C1258  N1263   1.386   .     A
C1258  N1318   1.429   .     S
C1259  H1261   1.082   .     S
C1259  N1263   1.356   .     A
C1260  N1264   1.355   .     A
C1260  H1262   1.082   .     S
N1265  O1266   1.301   .     A
N1265  O1267   1.301   .     A
N1268  O1270   1.301   .     A
N1268  O1269   1.301   .     A
O1271  C1272   1.419   .     S
C1272  H1274   1.116   .     S
C1272  H1273   1.111   .     S
C1272  C1275   1.531   .     S
C1275  H1277   1.112   .     S
C1275  C1278   1.526   .     S
C1275  H1276   1.109   .     S
C1278  H1279   1.109   .     S
C1278  H1281   1.111   .     S
C1278  H1280   1.111   .     S
O1282  C1283   1.418   .     S
C1283  H1285   1.117   .     S
C1283  H1284   1.111   .     S
C1283  C1286   1.534   .     S
C1286  C1289   1.526   .     S
C1286  H1287   1.112   .     S
C1286  H1288   1.111   .     S
C1289  H1291   1.111   .     S
C1289  H1292   1.111   .     S
C1289  H1290   1.110   .     S
O1293  C1294   1.415   .     S
C1294  C1297   1.528   .     S
C1294  H1295   1.116   .     S
C1294  H1296   1.114   .     S
C1297  H1298   1.112   .     S
C1297  C1300   1.527   .     S
C1297  H1299   1.111   .     S
C1300  H1303   1.111   .     S
C1300  H1631   1.111   .     S
C1300  H1632   1.111   .     S
H1301  C1960   1.111   1_545 S
H1302  C1960   1.111   1_545 S
O1304  C1305   1.417   .     S
C1305  H1306   1.111   .     S
C1305  C1308   1.533   .     S
C1305  H1307   1.117   .     S
C1308  H1310   1.111   .     S
C1308  C1311   1.526   .     S
C1308  H1309   1.112   .     S
C1311  H1312   1.110   .     S
C1311  H1313   1.110   .     S
C1311  H1314   1.110   .     S
N1315  O1317   1.301   .     A
N1315  O1316   1.298   .     A
N1318  O1319   1.301   .     A
N1318  O1320   1.297   .     A
O1321  Cu1333  1.954   .     S
O1321  C1545   1.290   1_455 S
O1322  Cu1334  1.954   .     S
O1322  C1436   1.291   .     S
O1323  Cu1334  1.959   .     S
O1323  C1325   1.296   .     A
O1324  Cu1333  1.959   .     S
O1324  C1326   1.295   .     A
C1325  C1366   1.444   .     S
C1325  O1431   1.290   .     S
C1326  C1365   1.444   .     S
C1326  O1542   1.291   1_455 S
O1327  Cu1333  1.966   .     S
O1327  C1551   1.304   1_455 S
O1328  Cu1334  1.966   .     S
O1328  C1442   1.304   .     S
O1329  Cu1334  1.960   .     S
O1329  C1331   1.294   .     A
O1330  C1332   1.295   .     A
O1330  Cu1333  1.960   .     S
C1331  C1335   1.471   .     S
C1331  O1437   1.304   .     S
C1332  C1336   1.473   .     S
C1332  O1548   1.304   1_455 S
Cu1333 N1373   2.020   .     S
Cu1333 Cu1554  2.689   1_455 S
Cu1334 N1374   2.020   .     S
Cu1334 Cu1443  2.689   .     S
C1335  C1339   1.402   .     A
C1335  C1341   1.412   .     A
C1336  C1342   1.411   .     A
C1336  C1340   1.403   .     A
C1337  C1345   1.408   .     A
C1337  C1339   1.395   .     A
C1337  H1355   1.082   .     S
C1338  C1346   1.408   .     A
C1338  C1340   1.395   .     A
C1338  H1576   1.082   1_455 S
C1339  H1464   1.083   .     S
C1340  H1573   1.083   1_455 S
C1341  O1392   1.388   .     S
C1341  C1343   1.401   .     A
C1342  C1344   1.408   .     A
C1342  O1381   1.390   .     S
C1343  C1347   1.418   .     A
C1343  C1345   1.415   .     A
C1344  C1346   1.413   .     A
C1344  C1348   1.415   .     A
C1345  C361    1.409   1_556 S
C1347  C1350   1.423   .     A
C1347  C358    1.406   1_556 S
C1348  C1349   1.421   .     A
C1349  O1403   1.385   .     S
C1349  C1351   1.405   .     A
C1350  C1352   1.410   .     A
C1350  O1414   1.386   .     S
C1351  N1375   1.439   .     S
C1352  N1378   1.440   .     S
C1352  C356    1.409   1_556 S
H1353  C1450   1.083   .     S
H1354  C1559   1.083   1_455 S
H1356  C1448   1.082   .     S
C1357  H1359   1.083   .     S
C1357  C1366   1.398   .     A
C1358  C1365   1.398   .     A
C1358  H1360   1.083   .     S
C1358  C1692   1.382   .     S
C1361  H1363   1.083   .     S
C1361  C1687   1.383   .     S
C1361  C1475   1.401   .     S
C1362  H1364   1.083   .     S
C1362  C1586   1.401   1_455 S
C1365  C1581   1.401   1_455 S
C1366  C1472   1.401   .     S
C1367  C1369   1.415   .     A
C1367  N1425   1.430   .     S
C1367  N1374   1.386   .     A
C1368  C1370   1.414   .     A
C1368  N1373   1.386   .     A
C1368  N1428   1.429   .     S
C1369  H1371   1.082   .     S
C1369  N1373   1.356   .     A
C1370  N1374   1.355   .     A
C1370  H1372   1.082   .     S
N1375  O1376   1.301   .     A
N1375  O1377   1.301   .     A
N1378  O1380   1.301   .     A
N1378  O1379   1.301   .     A
O1381  C1382   1.419   .     S
C1382  H1384   1.116   .     S
C1382  H1383   1.111   .     S
C1382  C1385   1.531   .     S
C1385  H1387   1.112   .     S
C1385  C1388   1.526   .     S
C1385  H1386   1.109   .     S
C1388  H1389   1.109   .     S
C1388  H1391   1.111   .     S
C1388  H1390   1.111   .     S
O1392  C1393   1.418   .     S
C1393  H1395   1.117   .     S
C1393  H1394   1.111   .     S
C1393  C1396   1.534   .     S
C1396  C1399   1.526   .     S
C1396  H1397   1.112   .     S
C1396  H1398   1.111   .     S
C1399  H1401   1.111   .     S
C1399  H1402   1.111   .     S
C1399  H1400   1.110   .     S
O1403  C1404   1.415   .     S
C1404  C1407   1.528   .     S
C1404  H1405   1.116   .     S
C1404  H1406   1.114   .     S
C1407  H1408   1.112   .     S
C1407  C1410   1.527   .     S
C1407  H1409   1.111   .     S
C1410  H1413   1.111   .     S
C1410  H1741   1.111   .     S
C1410  H1742   1.111   .     S
O1414  C1415   1.417   .     S
C1415  H1416   1.111   .     S
C1415  C1418   1.533   .     S
C1415  H1417   1.117   .     S
C1418  H1420   1.111   .     S
C1418  C1421   1.526   .     S
C1418  H1419   1.112   .     S
C1421  H1422   1.110   .     S
C1421  H1423   1.110   .     S
C1421  H1424   1.110   .     S
N1425  O1427   1.301   .     A
N1425  O1426   1.298   .     A
N1428  O1429   1.301   .     A
N1428  O1430   1.297   .     A
O1431  Cu1443  1.954   .     S
O1432  Cu1444  1.954   .     S
O1432  C1546   1.291   .     S
O1433  Cu1444  1.959   .     S
O1433  C1435   1.296   .     A
O1434  Cu1443  1.959   .     S
O1434  C1436   1.295   .     A
C1435  C1476   1.444   .     S
C1435  O1541   1.290   .     S
C1436  C1475   1.444   .     S
O1437  Cu1443  1.966   .     S
O1438  Cu1444  1.966   .     S
O1438  C1552   1.304   .     S
O1439  Cu1444  1.960   .     S
O1439  C1441   1.294   .     A
O1440  C1442   1.295   .     A
O1440  Cu1443  1.960   .     S
C1441  C1445   1.471   .     S
C1441  O1547   1.304   .     S
C1442  C1446   1.473   .     S
Cu1443 N1483   2.020   .     S
Cu1444 N1484   2.020   .     S
Cu1444 Cu1553  2.689   .     S
C1445  C1449   1.402   .     A
C1445  C1451   1.412   .     A
C1446  C1452   1.411   .     A
C1446  C1450   1.403   .     A
C1447  C1455   1.408   .     A
C1447  C1449   1.395   .     A
C1447  H1465   1.082   .     S
C1448  C1456   1.408   .     A
C1448  C1450   1.395   .     A
C1449  H1574   1.083   .     S
C1451  O1502   1.388   .     S
C1451  C1453   1.401   .     A
C1452  C1454   1.408   .     A
C1452  O1491   1.390   .     S
C1453  C1457   1.418   .     A
C1453  C1455   1.415   .     A
C1454  C1456   1.413   .     A
C1454  C1458   1.415   .     A
C1455  C471    1.409   1_556 S
C1457  C1460   1.423   .     A
C1457  C468    1.406   1_556 S
C1458  C1459   1.421   .     A
C1459  O1513   1.385   .     S
C1459  C1461   1.405   .     A
C1460  C1462   1.410   .     A
C1460  O1524   1.386   .     S
C1461  N1485   1.439   .     S
C1462  N1488   1.440   .     S
C1462  C466    1.409   1_556 S
H1463  C1560   1.083   .     S
H1466  C1558   1.082   .     S
C1467  H1469   1.083   .     S
C1467  C1476   1.398   .     A
C1468  C1475   1.398   .     A
C1468  H1470   1.083   .     S
C1468  C1802   1.382   .     S
C1471  H1473   1.083   .     S
C1471  C1797   1.383   .     S
C1471  C1585   1.401   .     S
C1472  H1474   1.083   .     S
C1476  C1582   1.401   .     S
C1477  C1479   1.415   .     A
C1477  N1535   1.430   .     S
C1477  N1484   1.386   .     A
C1478  C1480   1.414   .     A
C1478  N1483   1.386   .     A
C1478  N1538   1.429   .     S
C1479  H1481   1.082   .     S
C1479  N1483   1.356   .     A
C1480  N1484   1.355   .     A
C1480  H1482   1.082   .     S
N1485  O1486   1.301   .     A
N1485  O1487   1.301   .     A
N1488  O1490   1.301   .     A
N1488  O1489   1.301   .     A
O1491  C1492   1.419   .     S
C1492  H1494   1.116   .     S
C1492  H1493   1.111   .     S
C1492  C1495   1.531   .     S
C1495  H1497   1.112   .     S
C1495  C1498   1.526   .     S
C1495  H1496   1.109   .     S
C1498  H1499   1.109   .     S
C1498  H1501   1.111   .     S
C1498  H1500   1.111   .     S
O1502  C1503   1.418   .     S
C1503  H1505   1.117   .     S
C1503  H1504   1.111   .     S
C1503  C1506   1.534   .     S
C1506  C1509   1.526   .     S
C1506  H1507   1.112   .     S
C1506  H1508   1.111   .     S
C1509  H1511   1.111   .     S
C1509  H1512   1.111   .     S
C1509  H1510   1.110   .     S
O1513  C1514   1.415   .     S
C1514  C1517   1.528   .     S
C1514  H1515   1.116   .     S
C1514  H1516   1.114   .     S
C1517  H1518   1.112   .     S
C1517  C1520   1.527   .     S
C1517  H1519   1.111   .     S
C1520  H1523   1.111   .     S
C1520  H1851   1.111   .     S
C1520  H1852   1.111   .     S
O1524  C1525   1.417   .     S
C1525  H1526   1.111   .     S
C1525  C1528   1.533   .     S
C1525  H1527   1.117   .     S
C1528  H1530   1.111   .     S
C1528  C1531   1.526   .     S
C1528  H1529   1.112   .     S
C1531  H1532   1.110   .     S
C1531  H1533   1.110   .     S
C1531  H1534   1.110   .     S
N1535  O1537   1.301   .     A
N1535  O1536   1.298   .     A
N1538  O1539   1.301   .     A
N1538  O1540   1.297   .     A
O1541  Cu1553  1.954   .     S
O1542  Cu1554  1.954   .     S
O1542  C1326   1.291   1_655 S
O1543  Cu1554  1.959   .     S
O1543  C1545   1.296   .     A
O1544  Cu1553  1.959   .     S
O1544  C1546   1.295   .     A
C1545  C1586   1.444   .     S
C1545  O1321   1.290   1_655 S
C1546  C1585   1.444   .     S
O1547  Cu1553  1.966   .     S
O1548  Cu1554  1.966   .     S
O1548  C1332   1.304   1_655 S
O1549  Cu1554  1.960   .     S
O1549  C1551   1.294   .     A
O1550  C1552   1.295   .     A
O1550  Cu1553  1.960   .     S
C1551  C1555   1.471   .     S
C1551  O1327   1.304   1_655 S
C1552  C1556   1.473   .     S
Cu1553 N1593   2.020   .     S
Cu1554 N1594   2.020   .     S
Cu1554 Cu1333  2.689   1_655 S
C1555  C1559   1.402   .     A
C1555  C1561   1.412   .     A
C1556  C1562   1.411   .     A
C1556  C1560   1.403   .     A
C1557  C1565   1.408   .     A
C1557  C1559   1.395   .     A
C1557  H1575   1.082   .     S
C1558  C1566   1.408   .     A
C1558  C1560   1.395   .     A
C1559  H1354   1.083   1_655 S
C1561  O1612   1.388   .     S
C1561  C1563   1.401   .     A
C1562  C1564   1.408   .     A
C1562  O1601   1.390   .     S
C1563  C1567   1.418   .     A
C1563  C1565   1.415   .     A
C1564  C1566   1.413   .     A
C1564  C1568   1.415   .     A
C1565  C581    1.409   1_556 S
C1567  C1570   1.423   .     A
C1567  C578    1.406   1_556 S
C1568  C1569   1.421   .     A
C1569  O1623   1.385   .     S
C1569  C1571   1.405   .     A
C1570  C1572   1.410   .     A
C1570  O1634   1.386   .     S
C1571  N1595   1.439   .     S
C1572  N1598   1.440   .     S
C1572  C576    1.409   1_556 S
H1573  C1340   1.083   1_655 S
H1576  C1338   1.082   1_655 S
C1577  H1579   1.083   .     S
C1577  C1586   1.398   .     A
C1578  C1585   1.398   .     A
C1578  H1580   1.083   .     S
C1578  C1912   1.382   .     S
C1581  H1583   1.083   .     S
C1581  C1907   1.383   .     S
C1581  C1365   1.401   1_655 S
C1582  H1584   1.083   .     S
C1586  C1362   1.401   1_655 S
C1587  C1589   1.415   .     A
C1587  N1645   1.430   .     S
C1587  N1594   1.386   .     A
C1588  C1590   1.414   .     A
C1588  N1593   1.386   .     A
C1588  N1648   1.429   .     S
C1589  H1591   1.082   .     S
C1589  N1593   1.356   .     A
C1590  N1594   1.355   .     A
C1590  H1592   1.082   .     S
N1595  O1596   1.301   .     A
N1595  O1597   1.301   .     A
N1598  O1600   1.301   .     A
N1598  O1599   1.301   .     A
O1601  C1602   1.419   .     S
C1602  H1604   1.116   .     S
C1602  H1603   1.111   .     S
C1602  C1605   1.531   .     S
C1605  H1607   1.112   .     S
C1605  C1608   1.526   .     S
C1605  H1606   1.109   .     S
C1608  H1609   1.109   .     S
C1608  H1611   1.111   .     S
C1608  H1610   1.111   .     S
O1612  C1613   1.418   .     S
C1613  H1615   1.117   .     S
C1613  H1614   1.111   .     S
C1613  C1616   1.534   .     S
C1616  C1619   1.526   .     S
C1616  H1617   1.112   .     S
C1616  H1618   1.111   .     S
C1619  H1621   1.111   .     S
C1619  H1622   1.111   .     S
C1619  H1620   1.110   .     S
O1623  C1624   1.415   .     S
C1624  C1627   1.528   .     S
C1624  H1625   1.116   .     S
C1624  H1626   1.114   .     S
C1627  H1628   1.112   .     S
C1627  C1630   1.527   .     S
C1627  H1629   1.111   .     S
C1630  H1633   1.111   .     S
C1630  H1961   1.111   .     S
C1630  H1962   1.111   .     S
O1634  C1635   1.417   .     S
C1635  H1636   1.111   .     S
C1635  C1638   1.533   .     S
C1635  H1637   1.117   .     S
C1638  H1640   1.111   .     S
C1638  C1641   1.526   .     S
C1638  H1639   1.112   .     S
C1641  H1642   1.110   .     S
C1641  H1643   1.110   .     S
C1641  H1644   1.110   .     S
N1645  O1647   1.301   .     A
N1645  O1646   1.298   .     A
N1648  O1649   1.301   .     A
N1648  O1650   1.297   .     A
O1651  Cu1663  1.954   .     S
O1651  C1875   1.290   1_455 S
O1652  Cu1664  1.954   .     S
O1652  C1766   1.291   .     S
O1653  Cu1664  1.959   .     S
O1653  C1655   1.296   .     A
O1654  Cu1663  1.959   .     S
O1654  C1656   1.295   .     A
C1655  C1696   1.444   .     S
C1655  O1761   1.290   .     S
C1656  C1695   1.444   .     S
C1656  O1872   1.291   1_455 S
O1657  Cu1663  1.966   .     S
O1657  C1881   1.304   1_455 S
O1658  Cu1664  1.966   .     S
O1658  C1772   1.304   .     S
O1659  Cu1664  1.960   .     S
O1659  C1661   1.294   .     A
O1660  C1662   1.295   .     A
O1660  Cu1663  1.960   .     S
C1661  C1665   1.471   .     S
C1661  O1767   1.304   .     S
C1662  C1666   1.473   .     S
C1662  O1878   1.304   1_455 S
Cu1663 N1703   2.020   .     S
Cu1663 Cu1884  2.689   1_455 S
Cu1664 N1704   2.020   .     S
Cu1664 Cu1773  2.689   .     S
C1665  C1669   1.402   .     A
C1665  C1671   1.412   .     A
C1666  C1672   1.411   .     A
C1666  C1670   1.403   .     A
C1667  C1675   1.408   .     A
C1667  C1669   1.395   .     A
C1667  H1685   1.082   .     S
C1668  C1676   1.408   .     A
C1668  C1670   1.395   .     A
C1668  H1906   1.082   1_455 S
C1669  H1794   1.083   .     S
C1670  H1903   1.083   1_455 S
C1671  O1722   1.388   .     S
C1671  C1673   1.401   .     A
C1672  C1674   1.408   .     A
C1672  O1711   1.390   .     S
C1673  C1677   1.418   .     A
C1673  C1675   1.415   .     A
C1674  C1676   1.413   .     A
C1674  C1678   1.415   .     A
C1675  C691    1.409   1_556 S
C1677  C1680   1.423   .     A
C1677  C688    1.406   1_556 S
C1678  C1679   1.421   .     A
C1679  O1733   1.385   .     S
C1679  C1681   1.405   .     A
C1680  C1682   1.410   .     A
C1680  O1744   1.386   .     S
C1681  N1705   1.439   .     S
C1682  N1708   1.440   .     S
C1682  C686    1.409   1_556 S
H1683  C1780   1.083   .     S
H1684  C1889   1.083   1_455 S
H1686  C1778   1.082   .     S
C1687  H1689   1.083   .     S
C1687  C1696   1.398   .     A
C1688  C1695   1.398   .     A
C1688  H1690   1.083   .     S
C1688  C1032   1.382   1_565 S
C1691  H1693   1.083   .     S
C1691  C1027   1.383   1_565 S
C1691  C1805   1.401   .     S
C1692  H1694   1.083   .     S
C1692  C1916   1.401   1_455 S
C1695  C1911   1.401   1_455 S
C1696  C1802   1.401   .     S
C1697  C1699   1.415   .     A
C1697  N1755   1.430   .     S
C1697  N1704   1.386   .     A
C1698  C1700   1.414   .     A
C1698  N1703   1.386   .     A
C1698  N1758   1.429   .     S
C1699  H1701   1.082   .     S
C1699  N1703   1.356   .     A
C1700  N1704   1.355   .     A
C1700  H1702   1.082   .     S
N1705  O1706   1.301   .     A
N1705  O1707   1.301   .     A
N1708  O1710   1.301   .     A
N1708  O1709   1.301   .     A
O1711  C1712   1.419   .     S
C1712  H1714   1.116   .     S
C1712  H1713   1.111   .     S
C1712  C1715   1.531   .     S
C1715  H1717   1.112   .     S
C1715  C1718   1.526   .     S
C1715  H1716   1.109   .     S
C1718  H1719   1.109   .     S
C1718  H1721   1.111   .     S
C1718  H1720   1.111   .     S
O1722  C1723   1.418   .     S
C1723  H1725   1.117   .     S
C1723  H1724   1.111   .     S
C1723  C1726   1.534   .     S
C1726  C1729   1.526   .     S
C1726  H1727   1.112   .     S
C1726  H1728   1.111   .     S
C1729  H1731   1.111   .     S
C1729  H1732   1.111   .     S
C1729  H1730   1.110   .     S
O1733  C1734   1.415   .     S
C1734  C1737   1.528   .     S
C1734  H1735   1.116   .     S
C1734  H1736   1.114   .     S
C1737  H1738   1.112   .     S
C1737  C1740   1.527   .     S
C1737  H1739   1.111   .     S
C1740  H1743   1.111   .     S
C1740  H1081   1.111   1_565 S
C1740  H1082   1.111   1_565 S
O1744  C1745   1.417   .     S
C1745  H1746   1.111   .     S
C1745  C1748   1.533   .     S
C1745  H1747   1.117   .     S
C1748  H1750   1.111   .     S
C1748  C1751   1.526   .     S
C1748  H1749   1.112   .     S
C1751  H1752   1.110   .     S
C1751  H1753   1.110   .     S
C1751  H1754   1.110   .     S
N1755  O1757   1.301   .     A
N1755  O1756   1.298   .     A
N1758  O1759   1.301   .     A
N1758  O1760   1.297   .     A
O1761  Cu1773  1.954   .     S
O1762  Cu1774  1.954   .     S
O1762  C1876   1.291   .     S
O1763  Cu1774  1.959   .     S
O1763  C1765   1.296   .     A
O1764  Cu1773  1.959   .     S
O1764  C1766   1.295   .     A
C1765  C1806   1.444   .     S
C1765  O1871   1.290   .     S
C1766  C1805   1.444   .     S
O1767  Cu1773  1.966   .     S
O1768  Cu1774  1.966   .     S
O1768  C1882   1.304   .     S
O1769  Cu1774  1.960   .     S
O1769  C1771   1.294   .     A
O1770  C1772   1.295   .     A
O1770  Cu1773  1.960   .     S
C1771  C1775   1.471   .     S
C1771  O1877   1.304   .     S
C1772  C1776   1.473   .     S
Cu1773 N1813   2.020   .     S
Cu1774 N1814   2.020   .     S
Cu1774 Cu1883  2.689   .     S
C1775  C1779   1.402   .     A
C1775  C1781   1.412   .     A
C1776  C1782   1.411   .     A
C1776  C1780   1.403   .     A
C1777  C1785   1.408   .     A
C1777  C1779   1.395   .     A
C1777  H1795   1.082   .     S
C1778  C1786   1.408   .     A
C1778  C1780   1.395   .     A
C1779  H1904   1.083   .     S
C1781  O1832   1.388   .     S
C1781  C1783   1.401   .     A
C1782  C1784   1.408   .     A
C1782  O1821   1.390   .     S
C1783  C1787   1.418   .     A
C1783  C1785   1.415   .     A
C1784  C1786   1.413   .     A
C1784  C1788   1.415   .     A
C1785  C801    1.409   1_556 S
C1787  C1790   1.423   .     A
C1787  C798    1.406   1_556 S
C1788  C1789   1.421   .     A
C1789  O1843   1.385   .     S
C1789  C1791   1.405   .     A
C1790  C1792   1.410   .     A
C1790  O1854   1.386   .     S
C1791  N1815   1.439   .     S
C1792  N1818   1.440   .     S
C1792  C796    1.409   1_556 S
H1793  C1890   1.083   .     S
H1796  C1888   1.082   .     S
C1797  H1799   1.083   .     S
C1797  C1806   1.398   .     A
C1798  C1805   1.398   .     A
C1798  H1800   1.083   .     S
C1798  C1142   1.382   1_565 S
C1801  H1803   1.083   .     S
C1801  C1137   1.383   1_565 S
C1801  C1915   1.401   .     S
C1802  H1804   1.083   .     S
C1806  C1912   1.401   .     S
C1807  C1809   1.415   .     A
C1807  N1865   1.430   .     S
C1807  N1814   1.386   .     A
C1808  C1810   1.414   .     A
C1808  N1813   1.386   .     A
C1808  N1868   1.429   .     S
C1809  H1811   1.082   .     S
C1809  N1813   1.356   .     A
C1810  N1814   1.355   .     A
C1810  H1812   1.082   .     S
N1815  O1816   1.301   .     A
N1815  O1817   1.301   .     A
N1818  O1820   1.301   .     A
N1818  O1819   1.301   .     A
O1821  C1822   1.419   .     S
C1822  H1824   1.116   .     S
C1822  H1823   1.111   .     S
C1822  C1825   1.531   .     S
C1825  H1827   1.112   .     S
C1825  C1828   1.526   .     S
C1825  H1826   1.109   .     S
C1828  H1829   1.109   .     S
C1828  H1831   1.111   .     S
C1828  H1830   1.111   .     S
O1832  C1833   1.418   .     S
C1833  H1835   1.117   .     S
C1833  H1834   1.111   .     S
C1833  C1836   1.534   .     S
C1836  C1839   1.526   .     S
C1836  H1837   1.112   .     S
C1836  H1838   1.111   .     S
C1839  H1841   1.111   .     S
C1839  H1842   1.111   .     S
C1839  H1840   1.110   .     S
O1843  C1844   1.415   .     S
C1844  C1847   1.528   .     S
C1844  H1845   1.116   .     S
C1844  H1846   1.114   .     S
C1847  H1848   1.112   .     S
C1847  C1850   1.527   .     S
C1847  H1849   1.111   .     S
C1850  H1853   1.111   .     S
C1850  H1191   1.111   1_565 S
C1850  H1192   1.111   1_565 S
O1854  C1855   1.417   .     S
C1855  H1856   1.111   .     S
C1855  C1858   1.533   .     S
C1855  H1857   1.117   .     S
C1858  H1860   1.111   .     S
C1858  C1861   1.526   .     S
C1858  H1859   1.112   .     S
C1861  H1862   1.110   .     S
C1861  H1863   1.110   .     S
C1861  H1864   1.110   .     S
N1865  O1867   1.301   .     A
N1865  O1866   1.298   .     A
N1868  O1869   1.301   .     A
N1868  O1870   1.297   .     A
O1871  Cu1883  1.954   .     S
O1872  Cu1884  1.954   .     S
O1872  C1656   1.291   1_655 S
O1873  Cu1884  1.959   .     S
O1873  C1875   1.296   .     A
O1874  Cu1883  1.959   .     S
O1874  C1876   1.295   .     A
C1875  C1916   1.444   .     S
C1875  O1651   1.290   1_655 S
C1876  C1915   1.444   .     S
O1877  Cu1883  1.966   .     S
O1878  Cu1884  1.966   .     S
O1878  C1662   1.304   1_655 S
O1879  Cu1884  1.960   .     S
O1879  C1881   1.294   .     A
O1880  C1882   1.295   .     A
O1880  Cu1883  1.960   .     S
C1881  C1885   1.471   .     S
C1881  O1657   1.304   1_655 S
C1882  C1886   1.473   .     S
Cu1883 N1923   2.020   .     S
Cu1884 N1924   2.020   .     S
Cu1884 Cu1663  2.689   1_655 S
C1885  C1889   1.402   .     A
C1885  C1891   1.412   .     A
C1886  C1892   1.411   .     A
C1886  C1890   1.403   .     A
C1887  C1895   1.408   .     A
C1887  C1889   1.395   .     A
C1887  H1905   1.082   .     S
C1888  C1896   1.408   .     A
C1888  C1890   1.395   .     A
C1889  H1684   1.083   1_655 S
C1891  O1942   1.388   .     S
C1891  C1893   1.401   .     A
C1892  C1894   1.408   .     A
C1892  O1931   1.390   .     S
C1893  C1897   1.418   .     A
C1893  C1895   1.415   .     A
C1894  C1896   1.413   .     A
C1894  C1898   1.415   .     A
C1895  C911    1.409   1_556 S
C1897  C1900   1.423   .     A
C1897  C908    1.406   1_556 S
C1898  C1899   1.421   .     A
C1899  O1953   1.385   .     S
C1899  C1901   1.405   .     A
C1900  C1902   1.410   .     A
C1900  O1964   1.386   .     S
C1901  N1925   1.439   .     S
C1902  N1928   1.440   .     S
C1902  C906    1.409   1_556 S
H1903  C1670   1.083   1_655 S
H1906  C1668   1.082   1_655 S
C1907  H1909   1.083   .     S
C1907  C1916   1.398   .     A
C1908  C1915   1.398   .     A
C1908  H1910   1.083   .     S
C1908  C1252   1.382   1_565 S
C1911  H1913   1.083   .     S
C1911  C1247   1.383   1_565 S
C1911  C1695   1.401   1_655 S
C1912  H1914   1.083   .     S
C1916  C1692   1.401   1_655 S
C1917  C1919   1.415   .     A
C1917  N1975   1.430   .     S
C1917  N1924   1.386   .     A
C1918  C1920   1.414   .     A
C1918  N1923   1.386   .     A
C1918  N1978   1.429   .     S
C1919  H1921   1.082   .     S
C1919  N1923   1.356   .     A
C1920  N1924   1.355   .     A
C1920  H1922   1.082   .     S
N1925  O1926   1.301   .     A
N1925  O1927   1.301   .     A
N1928  O1930   1.301   .     A
N1928  O1929   1.301   .     A
O1931  C1932   1.419   .     S
C1932  H1934   1.116   .     S
C1932  H1933   1.111   .     S
C1932  C1935   1.531   .     S
C1935  H1937   1.112   .     S
C1935  C1938   1.526   .     S
C1935  H1936   1.109   .     S
C1938  H1939   1.109   .     S
C1938  H1941   1.111   .     S
C1938  H1940   1.111   .     S
O1942  C1943   1.418   .     S
C1943  H1945   1.117   .     S
C1943  H1944   1.111   .     S
C1943  C1946   1.534   .     S
C1946  C1949   1.526   .     S
C1946  H1947   1.112   .     S
C1946  H1948   1.111   .     S
C1949  H1951   1.111   .     S
C1949  H1952   1.111   .     S
C1949  H1950   1.110   .     S
O1953  C1954   1.415   .     S
C1954  C1957   1.528   .     S
C1954  H1955   1.116   .     S
C1954  H1956   1.114   .     S
C1957  H1958   1.112   .     S
C1957  C1960   1.527   .     S
C1957  H1959   1.111   .     S
C1960  H1963   1.111   .     S
C1960  H1301   1.111   1_565 S
C1960  H1302   1.111   1_565 S
O1964  C1965   1.417   .     S
C1965  H1966   1.111   .     S
C1965  C1968   1.533   .     S
C1965  H1967   1.117   .     S
C1968  H1970   1.111   .     S
C1968  C1971   1.526   .     S
C1968  H1969   1.112   .     S
C1971  H1972   1.110   .     S
C1971  H1973   1.110   .     S
C1971  H1974   1.110   .     S
N1975  O1977   1.301   .     A
N1975  O1976   1.298   .     A
N1978  O1979   1.301   .     A
N1978  O1980   1.297   .     A
