data_str_m2_o10_o17_pcu_sym.57
_audit_creation_date              2020-01-03
_audit_creation_method            'Materials Studio'
_symmetry_space_group_name_H-M    'P1'
_symmetry_Int_Tables_number       1
_symmetry_cell_setting            triclinic
loop_
_symmetry_equiv_pos_as_xyz
  x,y,z
_cell_length_a                    30.1335
_cell_length_b                    26.3284
_cell_length_c                    22.4875
_cell_angle_alpha                 103.1373
_cell_angle_beta                  94.5998
_cell_angle_gamma                 93.9713
loop_
_atom_site_label
_atom_site_type_symbol
_atom_site_fract_x
_atom_site_fract_y
_atom_site_fract_z
_atom_site_U_iso_or_equiv
_atom_site_adp_type
_atom_site_occupancy
C1     C     0.24797   0.06681   0.15128   0.00000  Uiso   1.00
C2     C     0.08983   0.11997   0.14733   0.00000  Uiso   1.00
C3     C     0.38331   0.16624   0.16473   0.00000  Uiso   1.00
C4     C     0.11669   0.16709   0.16861   0.00000  Uiso   1.00
C5     C     0.40174   0.11870   0.14302   0.00000  Uiso   1.00
C6     C     0.09826   0.21463   0.19030   0.00000  Uiso   1.00
C7     C     0.44887   0.11770   0.14413   0.00000  Uiso   1.00
C8     C     0.05113   0.21563   0.18926   0.00000  Uiso   1.00
C9     C     0.47636   0.16607   0.16598   0.00000  Uiso   1.00
C10    C     0.02364   0.16725   0.16742   0.00000  Uiso   1.00
C11    C     0.45673   0.21349   0.18647   0.00000  Uiso   1.00
C12    C     0.25203   0.26652   0.18205   0.00000  Uiso   1.00
C13    C     0.04327   0.11984   0.14694   0.00000  Uiso   1.00
C14    C     0.47005   0.07085   0.12476   0.00000  Uiso   1.00
C15    C     0.02996   0.26247   0.20868   0.00000  Uiso   1.00
C16    C     0.38932   0.26171   0.20654   0.00000  Uiso   1.00
C17    C     0.11068   0.07161   0.12686   0.00000  Uiso   1.00
C18    C     0.37082   0.07225   0.12025   0.00000  Uiso   1.00
C19    C     0.12918   0.26110   0.21293   0.00000  Uiso   1.00
C20    C     0.21948   0.31532   0.08525   0.00000  Uiso   1.00
C21    C     0.28053   0.01802   0.24808   0.00000  Uiso   1.00
C22    C     0.20447   0.11699   0.30943   0.00000  Uiso   1.00
C23    C     0.01610   0.07278   0.12627   0.00000  Uiso   1.00
C24    C     0.29553   0.21635   0.02391   0.00000  Uiso   1.00
C25    C     0.48390   0.26054   0.20718   0.00000  Uiso   1.00
C26    C     0.24299   0.01111   0.14350   0.00000  Uiso   1.00
C27    C     0.25702   0.32222   0.18983   0.00000  Uiso   1.00
C28    C     0.16481   0.16662   0.16724   0.00000  Uiso   1.00
C29    C     0.33519   0.16671   0.16609   0.00000  Uiso   1.00
C30    C     0.41017   0.21335   0.18606   0.00000  Uiso   1.00
Cl31   Cl    0.44310   0.00686   0.09842   0.00000  Uiso   1.00
Cl32   Cl    0.05690   0.32645   0.23516   0.00000  Uiso   1.00
Cu33   Cu    0.25500   0.17246   0.22813   0.00000  Uiso   1.00
Cu34   Cu    0.24499   0.16087   0.10521   0.00000  Uiso   1.00
H35    H     0.03061   0.03613   0.11086   0.00000  Uiso   1.00
H36    H     0.46940   0.29719   0.22262   0.00000  Uiso   1.00
N37    N     0.23744   0.15214   0.01284   0.00000  Uiso   1.00
N38    N     0.32325   0.24592   0.05390   0.00000  Uiso   1.00
N39    N     0.26255   0.18119   0.32049   0.00000  Uiso   1.00
N40    N     0.37288   0.30024   0.22278   0.00000  Uiso   1.00
N41    N     0.12713   0.03308   0.11063   0.00000  Uiso   1.00
N42    N     0.34562   0.03569   0.10219   0.00000  Uiso   1.00
N43    N     0.15437   0.29768   0.23088   0.00000  Uiso   1.00
N44    N     0.20081   0.29241   0.03889   0.00000  Uiso   1.00
N45    N     0.29920   0.04093   0.29444   0.00000  Uiso   1.00
N46    N     0.17675   0.08741   0.27943   0.00000  Uiso   1.00
O47    O     0.25325   0.09538   0.20659   0.00000  Uiso   1.00
O48    O     0.24674   0.23796   0.12674   0.00000  Uiso   1.00
O49    O     0.24480   0.08559   0.10279   0.00000  Uiso   1.00
O50    O     0.25520   0.24774   0.23055   0.00000  Uiso   1.00
O51    O     0.18935   0.17155   0.21857   0.00000  Uiso   1.00
O52    O     0.31064   0.16179   0.11476   0.00000  Uiso   1.00
O53    O     0.18090   0.16176   0.11477   0.00000  Uiso   1.00
O54    O     0.31910   0.17157   0.21857   0.00000  Uiso   1.00
C55    C     0.74797   0.06681   0.15128   0.00000  Uiso   1.00
C56    C     0.58983   0.11997   0.14733   0.00000  Uiso   1.00
C57    C     0.88331   0.16624   0.16473   0.00000  Uiso   1.00
C58    C     0.61669   0.16709   0.16861   0.00000  Uiso   1.00
C59    C     0.90174   0.11870   0.14302   0.00000  Uiso   1.00
C60    C     0.59826   0.21463   0.19030   0.00000  Uiso   1.00
C61    C     0.94887   0.11770   0.14413   0.00000  Uiso   1.00
C62    C     0.55113   0.21563   0.18926   0.00000  Uiso   1.00
C63    C     0.97636   0.16607   0.16598   0.00000  Uiso   1.00
C64    C     0.52364   0.16725   0.16742   0.00000  Uiso   1.00
C65    C     0.95673   0.21349   0.18647   0.00000  Uiso   1.00
C66    C     0.75203   0.26652   0.18205   0.00000  Uiso   1.00
C67    C     0.54327   0.11984   0.14694   0.00000  Uiso   1.00
C68    C     0.97005   0.07085   0.12476   0.00000  Uiso   1.00
C69    C     0.52996   0.26247   0.20868   0.00000  Uiso   1.00
C70    C     0.88932   0.26171   0.20654   0.00000  Uiso   1.00
C71    C     0.61068   0.07161   0.12686   0.00000  Uiso   1.00
C72    C     0.87082   0.07225   0.12025   0.00000  Uiso   1.00
C73    C     0.62918   0.26110   0.21293   0.00000  Uiso   1.00
C74    C     0.71948   0.31532   0.08525   0.00000  Uiso   1.00
C75    C     0.78053   0.01802   0.24808   0.00000  Uiso   1.00
C76    C     0.70447   0.11699   0.30943   0.00000  Uiso   1.00
C77    C     0.51610   0.07278   0.12627   0.00000  Uiso   1.00
C78    C     0.79553   0.21635   0.02391   0.00000  Uiso   1.00
C79    C     0.98390   0.26054   0.20718   0.00000  Uiso   1.00
C80    C     0.74299   0.01111   0.14350   0.00000  Uiso   1.00
C81    C     0.75702   0.32222   0.18983   0.00000  Uiso   1.00
C82    C     0.66481   0.16662   0.16724   0.00000  Uiso   1.00
C83    C     0.83519   0.16671   0.16609   0.00000  Uiso   1.00
C84    C     0.91017   0.21335   0.18606   0.00000  Uiso   1.00
Cl85   Cl    0.94310   0.00686   0.09842   0.00000  Uiso   1.00
Cl86   Cl    0.55690   0.32645   0.23516   0.00000  Uiso   1.00
Cu87   Cu    0.75500   0.17246   0.22813   0.00000  Uiso   1.00
Cu88   Cu    0.74499   0.16087   0.10521   0.00000  Uiso   1.00
H89    H     0.53061   0.03613   0.11086   0.00000  Uiso   1.00
H90    H     0.96940   0.29719   0.22262   0.00000  Uiso   1.00
N91    N     0.73744   0.15214   0.01284   0.00000  Uiso   1.00
N92    N     0.82325   0.24592   0.05390   0.00000  Uiso   1.00
N93    N     0.76255   0.18119   0.32049   0.00000  Uiso   1.00
N94    N     0.87288   0.30024   0.22278   0.00000  Uiso   1.00
N95    N     0.62713   0.03308   0.11063   0.00000  Uiso   1.00
N96    N     0.84562   0.03569   0.10219   0.00000  Uiso   1.00
N97    N     0.65437   0.29768   0.23088   0.00000  Uiso   1.00
N98    N     0.70081   0.29241   0.03889   0.00000  Uiso   1.00
N99    N     0.79920   0.04093   0.29444   0.00000  Uiso   1.00
N100   N     0.67675   0.08741   0.27943   0.00000  Uiso   1.00
O101   O     0.75325   0.09538   0.20659   0.00000  Uiso   1.00
O102   O     0.74674   0.23796   0.12674   0.00000  Uiso   1.00
O103   O     0.74480   0.08559   0.10279   0.00000  Uiso   1.00
O104   O     0.75520   0.24774   0.23055   0.00000  Uiso   1.00
O105   O     0.68935   0.17155   0.21857   0.00000  Uiso   1.00
O106   O     0.81064   0.16179   0.11476   0.00000  Uiso   1.00
O107   O     0.68090   0.16176   0.11477   0.00000  Uiso   1.00
O108   O     0.81910   0.17157   0.21857   0.00000  Uiso   1.00
C109   C     0.24797   0.40014   0.15128   0.00000  Uiso   1.00
C110   C     0.08983   0.45331   0.14733   0.00000  Uiso   1.00
C111   C     0.38331   0.49957   0.16473   0.00000  Uiso   1.00
C112   C     0.11669   0.50043   0.16861   0.00000  Uiso   1.00
C113   C     0.40174   0.45203   0.14302   0.00000  Uiso   1.00
C114   C     0.09826   0.54797   0.19030   0.00000  Uiso   1.00
C115   C     0.44887   0.45103   0.14413   0.00000  Uiso   1.00
C116   C     0.05113   0.54896   0.18926   0.00000  Uiso   1.00
C117   C     0.47636   0.49940   0.16598   0.00000  Uiso   1.00
C118   C     0.02364   0.50059   0.16742   0.00000  Uiso   1.00
C119   C     0.45673   0.54682   0.18647   0.00000  Uiso   1.00
C120   C     0.25203   0.59986   0.18205   0.00000  Uiso   1.00
C121   C     0.04327   0.45317   0.14694   0.00000  Uiso   1.00
C122   C     0.47005   0.40419   0.12476   0.00000  Uiso   1.00
C123   C     0.02996   0.59580   0.20868   0.00000  Uiso   1.00
C124   C     0.38932   0.59504   0.20654   0.00000  Uiso   1.00
C125   C     0.11068   0.40495   0.12686   0.00000  Uiso   1.00
C126   C     0.37082   0.40559   0.12025   0.00000  Uiso   1.00
C127   C     0.12918   0.59443   0.21293   0.00000  Uiso   1.00
C128   C     0.21948   0.64865   0.08525   0.00000  Uiso   1.00
C129   C     0.28053   0.35135   0.24808   0.00000  Uiso   1.00
C130   C     0.20447   0.45032   0.30943   0.00000  Uiso   1.00
C131   C     0.01610   0.40611   0.12627   0.00000  Uiso   1.00
C132   C     0.29553   0.54968   0.02391   0.00000  Uiso   1.00
C133   C     0.48390   0.59388   0.20718   0.00000  Uiso   1.00
C134   C     0.24299   0.34444   0.14350   0.00000  Uiso   1.00
C135   C     0.25702   0.65556   0.18983   0.00000  Uiso   1.00
C136   C     0.16481   0.49996   0.16724   0.00000  Uiso   1.00
C137   C     0.33519   0.50004   0.16609   0.00000  Uiso   1.00
C138   C     0.41017   0.54668   0.18606   0.00000  Uiso   1.00
Cl139  Cl    0.44310   0.34019   0.09842   0.00000  Uiso   1.00
Cl140  Cl    0.05690   0.65978   0.23516   0.00000  Uiso   1.00
Cu141  Cu    0.25500   0.50579   0.22813   0.00000  Uiso   1.00
Cu142  Cu    0.24499   0.49421   0.10521   0.00000  Uiso   1.00
H143   H     0.03061   0.36946   0.11086   0.00000  Uiso   1.00
H144   H     0.46940   0.63052   0.22262   0.00000  Uiso   1.00
N145   N     0.23744   0.48547   0.01284   0.00000  Uiso   1.00
N146   N     0.32325   0.57926   0.05390   0.00000  Uiso   1.00
N147   N     0.26255   0.51453   0.32049   0.00000  Uiso   1.00
N148   N     0.37288   0.63357   0.22278   0.00000  Uiso   1.00
N149   N     0.12713   0.36642   0.11063   0.00000  Uiso   1.00
N150   N     0.34562   0.36902   0.10219   0.00000  Uiso   1.00
N151   N     0.15437   0.63102   0.23088   0.00000  Uiso   1.00
N152   N     0.20081   0.62574   0.03889   0.00000  Uiso   1.00
N153   N     0.29920   0.37426   0.29444   0.00000  Uiso   1.00
N154   N     0.17675   0.42074   0.27943   0.00000  Uiso   1.00
O155   O     0.25325   0.42871   0.20659   0.00000  Uiso   1.00
O156   O     0.24674   0.57129   0.12674   0.00000  Uiso   1.00
O157   O     0.24480   0.41892   0.10279   0.00000  Uiso   1.00
O158   O     0.25520   0.58108   0.23055   0.00000  Uiso   1.00
O159   O     0.18935   0.50488   0.21857   0.00000  Uiso   1.00
O160   O     0.31064   0.49512   0.11476   0.00000  Uiso   1.00
O161   O     0.18090   0.49510   0.11477   0.00000  Uiso   1.00
O162   O     0.31910   0.50490   0.21857   0.00000  Uiso   1.00
C163   C     0.74797   0.40014   0.15128   0.00000  Uiso   1.00
C164   C     0.58983   0.45331   0.14733   0.00000  Uiso   1.00
C165   C     0.88331   0.49957   0.16473   0.00000  Uiso   1.00
C166   C     0.61669   0.50043   0.16861   0.00000  Uiso   1.00
C167   C     0.90174   0.45203   0.14302   0.00000  Uiso   1.00
C168   C     0.59826   0.54797   0.19030   0.00000  Uiso   1.00
C169   C     0.94887   0.45103   0.14413   0.00000  Uiso   1.00
C170   C     0.55113   0.54896   0.18926   0.00000  Uiso   1.00
C171   C     0.97636   0.49940   0.16598   0.00000  Uiso   1.00
C172   C     0.52364   0.50059   0.16742   0.00000  Uiso   1.00
C173   C     0.95673   0.54682   0.18647   0.00000  Uiso   1.00
C174   C     0.75203   0.59986   0.18205   0.00000  Uiso   1.00
C175   C     0.54327   0.45317   0.14694   0.00000  Uiso   1.00
C176   C     0.97005   0.40419   0.12476   0.00000  Uiso   1.00
C177   C     0.52996   0.59580   0.20868   0.00000  Uiso   1.00
C178   C     0.88932   0.59504   0.20654   0.00000  Uiso   1.00
C179   C     0.61068   0.40495   0.12686   0.00000  Uiso   1.00
C180   C     0.87082   0.40559   0.12025   0.00000  Uiso   1.00
C181   C     0.62918   0.59443   0.21293   0.00000  Uiso   1.00
C182   C     0.71948   0.64865   0.08525   0.00000  Uiso   1.00
C183   C     0.78053   0.35135   0.24808   0.00000  Uiso   1.00
C184   C     0.70447   0.45032   0.30943   0.00000  Uiso   1.00
C185   C     0.51610   0.40611   0.12627   0.00000  Uiso   1.00
C186   C     0.79553   0.54968   0.02391   0.00000  Uiso   1.00
C187   C     0.98390   0.59388   0.20718   0.00000  Uiso   1.00
C188   C     0.74299   0.34444   0.14350   0.00000  Uiso   1.00
C189   C     0.75702   0.65556   0.18983   0.00000  Uiso   1.00
C190   C     0.66481   0.49996   0.16724   0.00000  Uiso   1.00
C191   C     0.83519   0.50004   0.16609   0.00000  Uiso   1.00
C192   C     0.91017   0.54668   0.18606   0.00000  Uiso   1.00
Cl193  Cl    0.94310   0.34019   0.09842   0.00000  Uiso   1.00
Cl194  Cl    0.55690   0.65978   0.23516   0.00000  Uiso   1.00
Cu195  Cu    0.75500   0.50579   0.22813   0.00000  Uiso   1.00
Cu196  Cu    0.74499   0.49421   0.10521   0.00000  Uiso   1.00
H197   H     0.53061   0.36946   0.11086   0.00000  Uiso   1.00
H198   H     0.96940   0.63052   0.22262   0.00000  Uiso   1.00
N199   N     0.73744   0.48547   0.01284   0.00000  Uiso   1.00
N200   N     0.82325   0.57926   0.05390   0.00000  Uiso   1.00
N201   N     0.76255   0.51453   0.32049   0.00000  Uiso   1.00
N202   N     0.87288   0.63357   0.22278   0.00000  Uiso   1.00
N203   N     0.62713   0.36642   0.11063   0.00000  Uiso   1.00
N204   N     0.84562   0.36902   0.10219   0.00000  Uiso   1.00
N205   N     0.65437   0.63102   0.23088   0.00000  Uiso   1.00
N206   N     0.70081   0.62574   0.03889   0.00000  Uiso   1.00
N207   N     0.79920   0.37426   0.29444   0.00000  Uiso   1.00
N208   N     0.67675   0.42074   0.27943   0.00000  Uiso   1.00
O209   O     0.75325   0.42871   0.20659   0.00000  Uiso   1.00
O210   O     0.74674   0.57129   0.12674   0.00000  Uiso   1.00
O211   O     0.74480   0.41892   0.10279   0.00000  Uiso   1.00
O212   O     0.75520   0.58108   0.23055   0.00000  Uiso   1.00
O213   O     0.68935   0.50488   0.21857   0.00000  Uiso   1.00
O214   O     0.81064   0.49512   0.11476   0.00000  Uiso   1.00
O215   O     0.68090   0.49510   0.11477   0.00000  Uiso   1.00
O216   O     0.81910   0.50490   0.21857   0.00000  Uiso   1.00
C217   C     0.24797   0.73348   0.15128   0.00000  Uiso   1.00
C218   C     0.08983   0.78664   0.14733   0.00000  Uiso   1.00
C219   C     0.38331   0.83290   0.16473   0.00000  Uiso   1.00
C220   C     0.11669   0.83376   0.16861   0.00000  Uiso   1.00
C221   C     0.40174   0.78537   0.14302   0.00000  Uiso   1.00
C222   C     0.09826   0.88130   0.19030   0.00000  Uiso   1.00
C223   C     0.44887   0.78437   0.14413   0.00000  Uiso   1.00
C224   C     0.05113   0.88229   0.18926   0.00000  Uiso   1.00
C225   C     0.47636   0.83274   0.16598   0.00000  Uiso   1.00
C226   C     0.02364   0.83392   0.16742   0.00000  Uiso   1.00
C227   C     0.45673   0.88015   0.18647   0.00000  Uiso   1.00
C228   C     0.25203   0.93319   0.18205   0.00000  Uiso   1.00
C229   C     0.04327   0.78650   0.14694   0.00000  Uiso   1.00
C230   C     0.47005   0.73752   0.12476   0.00000  Uiso   1.00
C231   C     0.02996   0.92913   0.20868   0.00000  Uiso   1.00
C232   C     0.38932   0.92837   0.20654   0.00000  Uiso   1.00
C233   C     0.11068   0.73828   0.12686   0.00000  Uiso   1.00
C234   C     0.37082   0.73892   0.12025   0.00000  Uiso   1.00
C235   C     0.12918   0.92776   0.21293   0.00000  Uiso   1.00
C236   C     0.21948   0.98198   0.08525   0.00000  Uiso   1.00
C237   C     0.28053   0.68468   0.24808   0.00000  Uiso   1.00
C238   C     0.20447   0.78365   0.30943   0.00000  Uiso   1.00
C239   C     0.01610   0.73944   0.12627   0.00000  Uiso   1.00
C240   C     0.29553   0.88301   0.02391   0.00000  Uiso   1.00
C241   C     0.48390   0.92721   0.20718   0.00000  Uiso   1.00
C242   C     0.24299   0.67778   0.14350   0.00000  Uiso   1.00
C243   C     0.25702   0.98889   0.18983   0.00000  Uiso   1.00
C244   C     0.16481   0.83329   0.16724   0.00000  Uiso   1.00
C245   C     0.33519   0.83338   0.16609   0.00000  Uiso   1.00
C246   C     0.41017   0.88002   0.18606   0.00000  Uiso   1.00
Cl247  Cl    0.44310   0.67352   0.09842   0.00000  Uiso   1.00
Cl248  Cl    0.05690   0.99312   0.23516   0.00000  Uiso   1.00
Cu249  Cu    0.25500   0.83913   0.22813   0.00000  Uiso   1.00
Cu250  Cu    0.24499   0.82754   0.10521   0.00000  Uiso   1.00
H251   H     0.03061   0.70279   0.11086   0.00000  Uiso   1.00
H252   H     0.46940   0.96385   0.22262   0.00000  Uiso   1.00
N253   N     0.23744   0.81881   0.01284   0.00000  Uiso   1.00
N254   N     0.32325   0.91259   0.05390   0.00000  Uiso   1.00
N255   N     0.26255   0.84786   0.32049   0.00000  Uiso   1.00
N256   N     0.37288   0.96690   0.22278   0.00000  Uiso   1.00
N257   N     0.12713   0.69975   0.11063   0.00000  Uiso   1.00
N258   N     0.34562   0.70235   0.10219   0.00000  Uiso   1.00
N259   N     0.15437   0.96435   0.23088   0.00000  Uiso   1.00
N260   N     0.20081   0.95907   0.03889   0.00000  Uiso   1.00
N261   N     0.29920   0.70760   0.29444   0.00000  Uiso   1.00
N262   N     0.17675   0.75408   0.27943   0.00000  Uiso   1.00
O263   O     0.25325   0.76204   0.20659   0.00000  Uiso   1.00
O264   O     0.24674   0.90462   0.12674   0.00000  Uiso   1.00
O265   O     0.24480   0.75226   0.10279   0.00000  Uiso   1.00
O266   O     0.25520   0.91441   0.23055   0.00000  Uiso   1.00
O267   O     0.18935   0.83821   0.21857   0.00000  Uiso   1.00
O268   O     0.31064   0.82845   0.11476   0.00000  Uiso   1.00
O269   O     0.18090   0.82843   0.11477   0.00000  Uiso   1.00
O270   O     0.31910   0.83824   0.21857   0.00000  Uiso   1.00
C271   C     0.74797   0.73348   0.15128   0.00000  Uiso   1.00
C272   C     0.58983   0.78664   0.14733   0.00000  Uiso   1.00
C273   C     0.88331   0.83290   0.16473   0.00000  Uiso   1.00
C274   C     0.61669   0.83376   0.16861   0.00000  Uiso   1.00
C275   C     0.90174   0.78537   0.14302   0.00000  Uiso   1.00
C276   C     0.59826   0.88130   0.19030   0.00000  Uiso   1.00
C277   C     0.94887   0.78437   0.14413   0.00000  Uiso   1.00
C278   C     0.55113   0.88229   0.18926   0.00000  Uiso   1.00
C279   C     0.97636   0.83274   0.16598   0.00000  Uiso   1.00
C280   C     0.52364   0.83392   0.16742   0.00000  Uiso   1.00
C281   C     0.95673   0.88015   0.18647   0.00000  Uiso   1.00
C282   C     0.75203   0.93319   0.18205   0.00000  Uiso   1.00
C283   C     0.54327   0.78650   0.14694   0.00000  Uiso   1.00
C284   C     0.97005   0.73752   0.12476   0.00000  Uiso   1.00
C285   C     0.52996   0.92913   0.20868   0.00000  Uiso   1.00
C286   C     0.88932   0.92837   0.20654   0.00000  Uiso   1.00
C287   C     0.61068   0.73828   0.12686   0.00000  Uiso   1.00
C288   C     0.87082   0.73892   0.12025   0.00000  Uiso   1.00
C289   C     0.62918   0.92776   0.21293   0.00000  Uiso   1.00
C290   C     0.71948   0.98198   0.08525   0.00000  Uiso   1.00
C291   C     0.78053   0.68468   0.24808   0.00000  Uiso   1.00
C292   C     0.70447   0.78365   0.30943   0.00000  Uiso   1.00
C293   C     0.51610   0.73944   0.12627   0.00000  Uiso   1.00
C294   C     0.79553   0.88301   0.02391   0.00000  Uiso   1.00
C295   C     0.98390   0.92721   0.20718   0.00000  Uiso   1.00
C296   C     0.74299   0.67778   0.14350   0.00000  Uiso   1.00
C297   C     0.75702   0.98889   0.18983   0.00000  Uiso   1.00
C298   C     0.66481   0.83329   0.16724   0.00000  Uiso   1.00
C299   C     0.83519   0.83338   0.16609   0.00000  Uiso   1.00
C300   C     0.91017   0.88002   0.18606   0.00000  Uiso   1.00
Cl301  Cl    0.94310   0.67352   0.09842   0.00000  Uiso   1.00
Cl302  Cl    0.55690   0.99312   0.23516   0.00000  Uiso   1.00
Cu303  Cu    0.75500   0.83913   0.22813   0.00000  Uiso   1.00
Cu304  Cu    0.74499   0.82754   0.10521   0.00000  Uiso   1.00
H305   H     0.53061   0.70279   0.11086   0.00000  Uiso   1.00
H306   H     0.96940   0.96385   0.22262   0.00000  Uiso   1.00
N307   N     0.73744   0.81881   0.01284   0.00000  Uiso   1.00
N308   N     0.82325   0.91259   0.05390   0.00000  Uiso   1.00
N309   N     0.76255   0.84786   0.32049   0.00000  Uiso   1.00
N310   N     0.87288   0.96690   0.22278   0.00000  Uiso   1.00
N311   N     0.62713   0.69975   0.11063   0.00000  Uiso   1.00
N312   N     0.84562   0.70235   0.10219   0.00000  Uiso   1.00
N313   N     0.65437   0.96435   0.23088   0.00000  Uiso   1.00
N314   N     0.70081   0.95907   0.03889   0.00000  Uiso   1.00
N315   N     0.79920   0.70760   0.29444   0.00000  Uiso   1.00
N316   N     0.67675   0.75408   0.27943   0.00000  Uiso   1.00
O317   O     0.75325   0.76204   0.20659   0.00000  Uiso   1.00
O318   O     0.74674   0.90462   0.12674   0.00000  Uiso   1.00
O319   O     0.74480   0.75226   0.10279   0.00000  Uiso   1.00
O320   O     0.75520   0.91441   0.23055   0.00000  Uiso   1.00
O321   O     0.68935   0.83821   0.21857   0.00000  Uiso   1.00
O322   O     0.81064   0.82845   0.11476   0.00000  Uiso   1.00
O323   O     0.68090   0.82843   0.11477   0.00000  Uiso   1.00
O324   O     0.81910   0.83824   0.21857   0.00000  Uiso   1.00
C325   C     0.24797   0.06681   0.48462   0.00000  Uiso   1.00
C326   C     0.08983   0.11997   0.48066   0.00000  Uiso   1.00
C327   C     0.38331   0.16624   0.49806   0.00000  Uiso   1.00
C328   C     0.11669   0.16709   0.50195   0.00000  Uiso   1.00
C329   C     0.40174   0.11870   0.47635   0.00000  Uiso   1.00
C330   C     0.09826   0.21463   0.52363   0.00000  Uiso   1.00
C331   C     0.44887   0.11770   0.47746   0.00000  Uiso   1.00
C332   C     0.05113   0.21563   0.52259   0.00000  Uiso   1.00
C333   C     0.47636   0.16607   0.49931   0.00000  Uiso   1.00
C334   C     0.02364   0.16725   0.50076   0.00000  Uiso   1.00
C335   C     0.45673   0.21349   0.51980   0.00000  Uiso   1.00
C336   C     0.25203   0.26652   0.51538   0.00000  Uiso   1.00
C337   C     0.04327   0.11984   0.48027   0.00000  Uiso   1.00
C338   C     0.47005   0.07085   0.45809   0.00000  Uiso   1.00
C339   C     0.02996   0.26247   0.54202   0.00000  Uiso   1.00
C340   C     0.38932   0.26171   0.53987   0.00000  Uiso   1.00
C341   C     0.11068   0.07161   0.46020   0.00000  Uiso   1.00
C342   C     0.37082   0.07225   0.45358   0.00000  Uiso   1.00
C343   C     0.12918   0.26110   0.54626   0.00000  Uiso   1.00
C344   C     0.21948   0.31532   0.41859   0.00000  Uiso   1.00
C345   C     0.28053   0.01802   0.58141   0.00000  Uiso   1.00
C346   C     0.20447   0.11699   0.64276   0.00000  Uiso   1.00
C347   C     0.01610   0.07278   0.45960   0.00000  Uiso   1.00
C348   C     0.29553   0.21635   0.35724   0.00000  Uiso   1.00
C349   C     0.48390   0.26054   0.54051   0.00000  Uiso   1.00
C350   C     0.24299   0.01111   0.47684   0.00000  Uiso   1.00
C351   C     0.25702   0.32222   0.52316   0.00000  Uiso   1.00
C352   C     0.16481   0.16662   0.50057   0.00000  Uiso   1.00
C353   C     0.33519   0.16671   0.49943   0.00000  Uiso   1.00
C354   C     0.41017   0.21335   0.51940   0.00000  Uiso   1.00
Cl355  Cl    0.44310   0.00686   0.43175   0.00000  Uiso   1.00
Cl356  Cl    0.05690   0.32645   0.56849   0.00000  Uiso   1.00
Cu357  Cu    0.25500   0.17246   0.56146   0.00000  Uiso   1.00
Cu358  Cu    0.24499   0.16087   0.43854   0.00000  Uiso   1.00
H359   H     0.03061   0.03613   0.44420   0.00000  Uiso   1.00
H360   H     0.46940   0.29719   0.55596   0.00000  Uiso   1.00
N361   N     0.23744   0.15214   0.34617   0.00000  Uiso   1.00
N362   N     0.32325   0.24592   0.38723   0.00000  Uiso   1.00
N363   N     0.26255   0.18119   0.65383   0.00000  Uiso   1.00
N364   N     0.37288   0.30024   0.55611   0.00000  Uiso   1.00
N365   N     0.12713   0.03308   0.44397   0.00000  Uiso   1.00
N366   N     0.34562   0.03569   0.43552   0.00000  Uiso   1.00
N367   N     0.15437   0.29768   0.56421   0.00000  Uiso   1.00
N368   N     0.20081   0.29241   0.37222   0.00000  Uiso   1.00
N369   N     0.29920   0.04093   0.62777   0.00000  Uiso   1.00
N370   N     0.17675   0.08741   0.61277   0.00000  Uiso   1.00
O371   O     0.25325   0.09538   0.53992   0.00000  Uiso   1.00
O372   O     0.24674   0.23796   0.46008   0.00000  Uiso   1.00
O373   O     0.24480   0.08559   0.43612   0.00000  Uiso   1.00
O374   O     0.25520   0.24774   0.56388   0.00000  Uiso   1.00
O375   O     0.18935   0.17155   0.55191   0.00000  Uiso   1.00
O376   O     0.31064   0.16179   0.44809   0.00000  Uiso   1.00
O377   O     0.18090   0.16176   0.44810   0.00000  Uiso   1.00
O378   O     0.31910   0.17157   0.55190   0.00000  Uiso   1.00
C379   C     0.74797   0.06681   0.48462   0.00000  Uiso   1.00
C380   C     0.58983   0.11997   0.48066   0.00000  Uiso   1.00
C381   C     0.88331   0.16624   0.49806   0.00000  Uiso   1.00
C382   C     0.61669   0.16709   0.50195   0.00000  Uiso   1.00
C383   C     0.90174   0.11870   0.47635   0.00000  Uiso   1.00
C384   C     0.59826   0.21463   0.52363   0.00000  Uiso   1.00
C385   C     0.94887   0.11770   0.47746   0.00000  Uiso   1.00
C386   C     0.55113   0.21563   0.52259   0.00000  Uiso   1.00
C387   C     0.97636   0.16607   0.49931   0.00000  Uiso   1.00
C388   C     0.52364   0.16725   0.50076   0.00000  Uiso   1.00
C389   C     0.95673   0.21349   0.51980   0.00000  Uiso   1.00
C390   C     0.75203   0.26652   0.51538   0.00000  Uiso   1.00
C391   C     0.54327   0.11984   0.48027   0.00000  Uiso   1.00
C392   C     0.97005   0.07085   0.45809   0.00000  Uiso   1.00
C393   C     0.52996   0.26247   0.54202   0.00000  Uiso   1.00
C394   C     0.88932   0.26171   0.53987   0.00000  Uiso   1.00
C395   C     0.61068   0.07161   0.46020   0.00000  Uiso   1.00
C396   C     0.87082   0.07225   0.45358   0.00000  Uiso   1.00
C397   C     0.62918   0.26110   0.54626   0.00000  Uiso   1.00
C398   C     0.71948   0.31532   0.41859   0.00000  Uiso   1.00
C399   C     0.78053   0.01802   0.58141   0.00000  Uiso   1.00
C400   C     0.70447   0.11699   0.64276   0.00000  Uiso   1.00
C401   C     0.51610   0.07278   0.45960   0.00000  Uiso   1.00
C402   C     0.79553   0.21635   0.35724   0.00000  Uiso   1.00
C403   C     0.98390   0.26054   0.54051   0.00000  Uiso   1.00
C404   C     0.74299   0.01111   0.47684   0.00000  Uiso   1.00
C405   C     0.75702   0.32222   0.52316   0.00000  Uiso   1.00
C406   C     0.66481   0.16662   0.50057   0.00000  Uiso   1.00
C407   C     0.83519   0.16671   0.49943   0.00000  Uiso   1.00
C408   C     0.91017   0.21335   0.51940   0.00000  Uiso   1.00
Cl409  Cl    0.94310   0.00686   0.43175   0.00000  Uiso   1.00
Cl410  Cl    0.55690   0.32645   0.56849   0.00000  Uiso   1.00
Cu411  Cu    0.75500   0.17246   0.56146   0.00000  Uiso   1.00
Cu412  Cu    0.74499   0.16087   0.43854   0.00000  Uiso   1.00
H413   H     0.53061   0.03613   0.44420   0.00000  Uiso   1.00
H414   H     0.96940   0.29719   0.55596   0.00000  Uiso   1.00
N415   N     0.73744   0.15214   0.34617   0.00000  Uiso   1.00
N416   N     0.82325   0.24592   0.38723   0.00000  Uiso   1.00
N417   N     0.76255   0.18119   0.65383   0.00000  Uiso   1.00
N418   N     0.87288   0.30024   0.55611   0.00000  Uiso   1.00
N419   N     0.62713   0.03308   0.44397   0.00000  Uiso   1.00
N420   N     0.84562   0.03569   0.43552   0.00000  Uiso   1.00
N421   N     0.65437   0.29768   0.56421   0.00000  Uiso   1.00
N422   N     0.70081   0.29241   0.37222   0.00000  Uiso   1.00
N423   N     0.79920   0.04093   0.62777   0.00000  Uiso   1.00
N424   N     0.67675   0.08741   0.61277   0.00000  Uiso   1.00
O425   O     0.75325   0.09538   0.53992   0.00000  Uiso   1.00
O426   O     0.74674   0.23796   0.46008   0.00000  Uiso   1.00
O427   O     0.74480   0.08559   0.43612   0.00000  Uiso   1.00
O428   O     0.75520   0.24774   0.56388   0.00000  Uiso   1.00
O429   O     0.68935   0.17155   0.55191   0.00000  Uiso   1.00
O430   O     0.81064   0.16179   0.44809   0.00000  Uiso   1.00
O431   O     0.68090   0.16176   0.44810   0.00000  Uiso   1.00
O432   O     0.81910   0.17157   0.55190   0.00000  Uiso   1.00
C433   C     0.24797   0.40014   0.48462   0.00000  Uiso   1.00
C434   C     0.08983   0.45331   0.48066   0.00000  Uiso   1.00
C435   C     0.38331   0.49957   0.49806   0.00000  Uiso   1.00
C436   C     0.11669   0.50043   0.50195   0.00000  Uiso   1.00
C437   C     0.40174   0.45203   0.47635   0.00000  Uiso   1.00
C438   C     0.09826   0.54797   0.52363   0.00000  Uiso   1.00
C439   C     0.44887   0.45103   0.47746   0.00000  Uiso   1.00
C440   C     0.05113   0.54896   0.52259   0.00000  Uiso   1.00
C441   C     0.47636   0.49940   0.49931   0.00000  Uiso   1.00
C442   C     0.02364   0.50059   0.50076   0.00000  Uiso   1.00
C443   C     0.45673   0.54682   0.51980   0.00000  Uiso   1.00
C444   C     0.25203   0.59986   0.51538   0.00000  Uiso   1.00
C445   C     0.04327   0.45317   0.48027   0.00000  Uiso   1.00
C446   C     0.47005   0.40419   0.45809   0.00000  Uiso   1.00
C447   C     0.02996   0.59580   0.54202   0.00000  Uiso   1.00
C448   C     0.38932   0.59504   0.53987   0.00000  Uiso   1.00
C449   C     0.11068   0.40495   0.46020   0.00000  Uiso   1.00
C450   C     0.37082   0.40559   0.45358   0.00000  Uiso   1.00
C451   C     0.12918   0.59443   0.54626   0.00000  Uiso   1.00
C452   C     0.21948   0.64865   0.41859   0.00000  Uiso   1.00
C453   C     0.28053   0.35135   0.58141   0.00000  Uiso   1.00
C454   C     0.20447   0.45032   0.64276   0.00000  Uiso   1.00
C455   C     0.01610   0.40611   0.45960   0.00000  Uiso   1.00
C456   C     0.29553   0.54968   0.35724   0.00000  Uiso   1.00
C457   C     0.48390   0.59388   0.54051   0.00000  Uiso   1.00
C458   C     0.24299   0.34444   0.47684   0.00000  Uiso   1.00
C459   C     0.25702   0.65556   0.52316   0.00000  Uiso   1.00
C460   C     0.16481   0.49996   0.50057   0.00000  Uiso   1.00
C461   C     0.33519   0.50004   0.49943   0.00000  Uiso   1.00
C462   C     0.41017   0.54668   0.51940   0.00000  Uiso   1.00
Cl463  Cl    0.44310   0.34019   0.43175   0.00000  Uiso   1.00
Cl464  Cl    0.05690   0.65978   0.56849   0.00000  Uiso   1.00
Cu465  Cu    0.25500   0.50579   0.56146   0.00000  Uiso   1.00
Cu466  Cu    0.24499   0.49421   0.43854   0.00000  Uiso   1.00
H467   H     0.03061   0.36946   0.44420   0.00000  Uiso   1.00
H468   H     0.46940   0.63052   0.55596   0.00000  Uiso   1.00
N469   N     0.23744   0.48547   0.34617   0.00000  Uiso   1.00
N470   N     0.32325   0.57926   0.38723   0.00000  Uiso   1.00
N471   N     0.26255   0.51453   0.65383   0.00000  Uiso   1.00
N472   N     0.37288   0.63357   0.55611   0.00000  Uiso   1.00
N473   N     0.12713   0.36642   0.44397   0.00000  Uiso   1.00
N474   N     0.34562   0.36902   0.43552   0.00000  Uiso   1.00
N475   N     0.15437   0.63102   0.56421   0.00000  Uiso   1.00
N476   N     0.20081   0.62574   0.37222   0.00000  Uiso   1.00
N477   N     0.29920   0.37426   0.62777   0.00000  Uiso   1.00
N478   N     0.17675   0.42074   0.61277   0.00000  Uiso   1.00
O479   O     0.25325   0.42871   0.53992   0.00000  Uiso   1.00
O480   O     0.24674   0.57129   0.46008   0.00000  Uiso   1.00
O481   O     0.24480   0.41892   0.43612   0.00000  Uiso   1.00
O482   O     0.25520   0.58108   0.56388   0.00000  Uiso   1.00
O483   O     0.18935   0.50488   0.55191   0.00000  Uiso   1.00
O484   O     0.31064   0.49512   0.44809   0.00000  Uiso   1.00
O485   O     0.18090   0.49510   0.44810   0.00000  Uiso   1.00
O486   O     0.31910   0.50490   0.55190   0.00000  Uiso   1.00
C487   C     0.74797   0.40014   0.48462   0.00000  Uiso   1.00
C488   C     0.58983   0.45331   0.48066   0.00000  Uiso   1.00
C489   C     0.88331   0.49957   0.49806   0.00000  Uiso   1.00
C490   C     0.61669   0.50043   0.50195   0.00000  Uiso   1.00
C491   C     0.90174   0.45203   0.47635   0.00000  Uiso   1.00
C492   C     0.59826   0.54797   0.52363   0.00000  Uiso   1.00
C493   C     0.94887   0.45103   0.47746   0.00000  Uiso   1.00
C494   C     0.55113   0.54896   0.52259   0.00000  Uiso   1.00
C495   C     0.97636   0.49940   0.49931   0.00000  Uiso   1.00
C496   C     0.52364   0.50059   0.50076   0.00000  Uiso   1.00
C497   C     0.95673   0.54682   0.51980   0.00000  Uiso   1.00
C498   C     0.75203   0.59986   0.51538   0.00000  Uiso   1.00
C499   C     0.54327   0.45317   0.48027   0.00000  Uiso   1.00
C500   C     0.97005   0.40419   0.45809   0.00000  Uiso   1.00
C501   C     0.52996   0.59580   0.54202   0.00000  Uiso   1.00
C502   C     0.88932   0.59504   0.53987   0.00000  Uiso   1.00
C503   C     0.61068   0.40495   0.46020   0.00000  Uiso   1.00
C504   C     0.87082   0.40559   0.45358   0.00000  Uiso   1.00
C505   C     0.62918   0.59443   0.54626   0.00000  Uiso   1.00
C506   C     0.71948   0.64865   0.41859   0.00000  Uiso   1.00
C507   C     0.78053   0.35135   0.58141   0.00000  Uiso   1.00
C508   C     0.70447   0.45032   0.64276   0.00000  Uiso   1.00
C509   C     0.51610   0.40611   0.45960   0.00000  Uiso   1.00
C510   C     0.79553   0.54968   0.35724   0.00000  Uiso   1.00
C511   C     0.98390   0.59388   0.54051   0.00000  Uiso   1.00
C512   C     0.74299   0.34444   0.47684   0.00000  Uiso   1.00
C513   C     0.75702   0.65556   0.52316   0.00000  Uiso   1.00
C514   C     0.66481   0.49996   0.50057   0.00000  Uiso   1.00
C515   C     0.83519   0.50004   0.49943   0.00000  Uiso   1.00
C516   C     0.91017   0.54668   0.51940   0.00000  Uiso   1.00
Cl517  Cl    0.94310   0.34019   0.43175   0.00000  Uiso   1.00
Cl518  Cl    0.55690   0.65978   0.56849   0.00000  Uiso   1.00
Cu519  Cu    0.75500   0.50579   0.56146   0.00000  Uiso   1.00
Cu520  Cu    0.74499   0.49421   0.43854   0.00000  Uiso   1.00
H521   H     0.53061   0.36946   0.44420   0.00000  Uiso   1.00
H522   H     0.96940   0.63052   0.55596   0.00000  Uiso   1.00
N523   N     0.73744   0.48547   0.34617   0.00000  Uiso   1.00
N524   N     0.82325   0.57926   0.38723   0.00000  Uiso   1.00
N525   N     0.76255   0.51453   0.65383   0.00000  Uiso   1.00
N526   N     0.87288   0.63357   0.55611   0.00000  Uiso   1.00
N527   N     0.62713   0.36642   0.44397   0.00000  Uiso   1.00
N528   N     0.84562   0.36902   0.43552   0.00000  Uiso   1.00
N529   N     0.65437   0.63102   0.56421   0.00000  Uiso   1.00
N530   N     0.70081   0.62574   0.37222   0.00000  Uiso   1.00
N531   N     0.79920   0.37426   0.62777   0.00000  Uiso   1.00
N532   N     0.67675   0.42074   0.61277   0.00000  Uiso   1.00
O533   O     0.75325   0.42871   0.53992   0.00000  Uiso   1.00
O534   O     0.74674   0.57129   0.46008   0.00000  Uiso   1.00
O535   O     0.74480   0.41892   0.43612   0.00000  Uiso   1.00
O536   O     0.75520   0.58108   0.56388   0.00000  Uiso   1.00
O537   O     0.68935   0.50488   0.55191   0.00000  Uiso   1.00
O538   O     0.81064   0.49512   0.44809   0.00000  Uiso   1.00
O539   O     0.68090   0.49510   0.44810   0.00000  Uiso   1.00
O540   O     0.81910   0.50490   0.55190   0.00000  Uiso   1.00
C541   C     0.24797   0.73348   0.48462   0.00000  Uiso   1.00
C542   C     0.08983   0.78664   0.48066   0.00000  Uiso   1.00
C543   C     0.38331   0.83290   0.49806   0.00000  Uiso   1.00
C544   C     0.11669   0.83376   0.50195   0.00000  Uiso   1.00
C545   C     0.40174   0.78537   0.47635   0.00000  Uiso   1.00
C546   C     0.09826   0.88130   0.52363   0.00000  Uiso   1.00
C547   C     0.44887   0.78437   0.47746   0.00000  Uiso   1.00
C548   C     0.05113   0.88229   0.52259   0.00000  Uiso   1.00
C549   C     0.47636   0.83274   0.49931   0.00000  Uiso   1.00
C550   C     0.02364   0.83392   0.50076   0.00000  Uiso   1.00
C551   C     0.45673   0.88015   0.51980   0.00000  Uiso   1.00
C552   C     0.25203   0.93319   0.51538   0.00000  Uiso   1.00
C553   C     0.04327   0.78650   0.48027   0.00000  Uiso   1.00
C554   C     0.47005   0.73752   0.45809   0.00000  Uiso   1.00
C555   C     0.02996   0.92913   0.54202   0.00000  Uiso   1.00
C556   C     0.38932   0.92837   0.53987   0.00000  Uiso   1.00
C557   C     0.11068   0.73828   0.46020   0.00000  Uiso   1.00
C558   C     0.37082   0.73892   0.45358   0.00000  Uiso   1.00
C559   C     0.12918   0.92776   0.54626   0.00000  Uiso   1.00
C560   C     0.21948   0.98198   0.41859   0.00000  Uiso   1.00
C561   C     0.28053   0.68468   0.58141   0.00000  Uiso   1.00
C562   C     0.20447   0.78365   0.64276   0.00000  Uiso   1.00
C563   C     0.01610   0.73944   0.45960   0.00000  Uiso   1.00
C564   C     0.29553   0.88301   0.35724   0.00000  Uiso   1.00
C565   C     0.48390   0.92721   0.54051   0.00000  Uiso   1.00
C566   C     0.24299   0.67778   0.47684   0.00000  Uiso   1.00
C567   C     0.25702   0.98889   0.52316   0.00000  Uiso   1.00
C568   C     0.16481   0.83329   0.50057   0.00000  Uiso   1.00
C569   C     0.33519   0.83338   0.49943   0.00000  Uiso   1.00
C570   C     0.41017   0.88002   0.51940   0.00000  Uiso   1.00
Cl571  Cl    0.44310   0.67352   0.43175   0.00000  Uiso   1.00
Cl572  Cl    0.05690   0.99312   0.56849   0.00000  Uiso   1.00
Cu573  Cu    0.25500   0.83913   0.56146   0.00000  Uiso   1.00
Cu574  Cu    0.24499   0.82754   0.43854   0.00000  Uiso   1.00
H575   H     0.03061   0.70279   0.44420   0.00000  Uiso   1.00
H576   H     0.46940   0.96385   0.55596   0.00000  Uiso   1.00
N577   N     0.23744   0.81881   0.34617   0.00000  Uiso   1.00
N578   N     0.32325   0.91259   0.38723   0.00000  Uiso   1.00
N579   N     0.26255   0.84786   0.65383   0.00000  Uiso   1.00
N580   N     0.37288   0.96690   0.55611   0.00000  Uiso   1.00
N581   N     0.12713   0.69975   0.44397   0.00000  Uiso   1.00
N582   N     0.34562   0.70235   0.43552   0.00000  Uiso   1.00
N583   N     0.15437   0.96435   0.56421   0.00000  Uiso   1.00
N584   N     0.20081   0.95907   0.37222   0.00000  Uiso   1.00
N585   N     0.29920   0.70760   0.62777   0.00000  Uiso   1.00
N586   N     0.17675   0.75408   0.61277   0.00000  Uiso   1.00
O587   O     0.25325   0.76204   0.53992   0.00000  Uiso   1.00
O588   O     0.24674   0.90462   0.46008   0.00000  Uiso   1.00
O589   O     0.24480   0.75226   0.43612   0.00000  Uiso   1.00
O590   O     0.25520   0.91441   0.56388   0.00000  Uiso   1.00
O591   O     0.18935   0.83821   0.55191   0.00000  Uiso   1.00
O592   O     0.31064   0.82845   0.44809   0.00000  Uiso   1.00
O593   O     0.18090   0.82843   0.44810   0.00000  Uiso   1.00
O594   O     0.31910   0.83824   0.55190   0.00000  Uiso   1.00
C595   C     0.74797   0.73348   0.48462   0.00000  Uiso   1.00
C596   C     0.58983   0.78664   0.48066   0.00000  Uiso   1.00
C597   C     0.88331   0.83290   0.49806   0.00000  Uiso   1.00
C598   C     0.61669   0.83376   0.50195   0.00000  Uiso   1.00
C599   C     0.90174   0.78537   0.47635   0.00000  Uiso   1.00
C600   C     0.59826   0.88130   0.52363   0.00000  Uiso   1.00
C601   C     0.94887   0.78437   0.47746   0.00000  Uiso   1.00
C602   C     0.55113   0.88229   0.52259   0.00000  Uiso   1.00
C603   C     0.97636   0.83274   0.49931   0.00000  Uiso   1.00
C604   C     0.52364   0.83392   0.50076   0.00000  Uiso   1.00
C605   C     0.95673   0.88015   0.51980   0.00000  Uiso   1.00
C606   C     0.75203   0.93319   0.51538   0.00000  Uiso   1.00
C607   C     0.54327   0.78650   0.48027   0.00000  Uiso   1.00
C608   C     0.97005   0.73752   0.45809   0.00000  Uiso   1.00
C609   C     0.52996   0.92913   0.54202   0.00000  Uiso   1.00
C610   C     0.88932   0.92837   0.53987   0.00000  Uiso   1.00
C611   C     0.61068   0.73828   0.46020   0.00000  Uiso   1.00
C612   C     0.87082   0.73892   0.45358   0.00000  Uiso   1.00
C613   C     0.62918   0.92776   0.54626   0.00000  Uiso   1.00
C614   C     0.71948   0.98198   0.41859   0.00000  Uiso   1.00
C615   C     0.78053   0.68468   0.58141   0.00000  Uiso   1.00
C616   C     0.70447   0.78365   0.64276   0.00000  Uiso   1.00
C617   C     0.51610   0.73944   0.45960   0.00000  Uiso   1.00
C618   C     0.79553   0.88301   0.35724   0.00000  Uiso   1.00
C619   C     0.98390   0.92721   0.54051   0.00000  Uiso   1.00
C620   C     0.74299   0.67778   0.47684   0.00000  Uiso   1.00
C621   C     0.75702   0.98889   0.52316   0.00000  Uiso   1.00
C622   C     0.66481   0.83329   0.50057   0.00000  Uiso   1.00
C623   C     0.83519   0.83338   0.49943   0.00000  Uiso   1.00
C624   C     0.91017   0.88002   0.51940   0.00000  Uiso   1.00
Cl625  Cl    0.94310   0.67352   0.43175   0.00000  Uiso   1.00
Cl626  Cl    0.55690   0.99312   0.56849   0.00000  Uiso   1.00
Cu627  Cu    0.75500   0.83913   0.56146   0.00000  Uiso   1.00
Cu628  Cu    0.74499   0.82754   0.43854   0.00000  Uiso   1.00
H629   H     0.53061   0.70279   0.44420   0.00000  Uiso   1.00
H630   H     0.96940   0.96385   0.55596   0.00000  Uiso   1.00
N631   N     0.73744   0.81881   0.34617   0.00000  Uiso   1.00
N632   N     0.82325   0.91259   0.38723   0.00000  Uiso   1.00
N633   N     0.76255   0.84786   0.65383   0.00000  Uiso   1.00
N634   N     0.87288   0.96690   0.55611   0.00000  Uiso   1.00
N635   N     0.62713   0.69975   0.44397   0.00000  Uiso   1.00
N636   N     0.84562   0.70235   0.43552   0.00000  Uiso   1.00
N637   N     0.65437   0.96435   0.56421   0.00000  Uiso   1.00
N638   N     0.70081   0.95907   0.37222   0.00000  Uiso   1.00
N639   N     0.79920   0.70760   0.62777   0.00000  Uiso   1.00
N640   N     0.67675   0.75408   0.61277   0.00000  Uiso   1.00
O641   O     0.75325   0.76204   0.53992   0.00000  Uiso   1.00
O642   O     0.74674   0.90462   0.46008   0.00000  Uiso   1.00
O643   O     0.74480   0.75226   0.43612   0.00000  Uiso   1.00
O644   O     0.75520   0.91441   0.56388   0.00000  Uiso   1.00
O645   O     0.68935   0.83821   0.55191   0.00000  Uiso   1.00
O646   O     0.81064   0.82845   0.44809   0.00000  Uiso   1.00
O647   O     0.68090   0.82843   0.44810   0.00000  Uiso   1.00
O648   O     0.81910   0.83824   0.55190   0.00000  Uiso   1.00
C649   C     0.24797   0.06681   0.81795   0.00000  Uiso   1.00
C650   C     0.08983   0.11997   0.81399   0.00000  Uiso   1.00
C651   C     0.38331   0.16624   0.83139   0.00000  Uiso   1.00
C652   C     0.11669   0.16709   0.83528   0.00000  Uiso   1.00
C653   C     0.40174   0.11870   0.80969   0.00000  Uiso   1.00
C654   C     0.09826   0.21463   0.85697   0.00000  Uiso   1.00
C655   C     0.44887   0.11770   0.81080   0.00000  Uiso   1.00
C656   C     0.05113   0.21563   0.85592   0.00000  Uiso   1.00
C657   C     0.47636   0.16607   0.83264   0.00000  Uiso   1.00
C658   C     0.02364   0.16725   0.83409   0.00000  Uiso   1.00
C659   C     0.45673   0.21349   0.85314   0.00000  Uiso   1.00
C660   C     0.25203   0.26652   0.84872   0.00000  Uiso   1.00
C661   C     0.04327   0.11984   0.81360   0.00000  Uiso   1.00
C662   C     0.47005   0.07085   0.79143   0.00000  Uiso   1.00
C663   C     0.02996   0.26247   0.87535   0.00000  Uiso   1.00
C664   C     0.38932   0.26171   0.87321   0.00000  Uiso   1.00
C665   C     0.11068   0.07161   0.79353   0.00000  Uiso   1.00
C666   C     0.37082   0.07225   0.78692   0.00000  Uiso   1.00
C667   C     0.12918   0.26110   0.87960   0.00000  Uiso   1.00
C668   C     0.21948   0.31532   0.75192   0.00000  Uiso   1.00
C669   C     0.28053   0.01802   0.91474   0.00000  Uiso   1.00
C670   C     0.20447   0.11699   0.97609   0.00000  Uiso   1.00
C671   C     0.01610   0.07278   0.79293   0.00000  Uiso   1.00
C672   C     0.29553   0.21635   0.69057   0.00000  Uiso   1.00
C673   C     0.48390   0.26054   0.87385   0.00000  Uiso   1.00
C674   C     0.24299   0.01111   0.81017   0.00000  Uiso   1.00
C675   C     0.25702   0.32222   0.85649   0.00000  Uiso   1.00
C676   C     0.16481   0.16662   0.83391   0.00000  Uiso   1.00
C677   C     0.33519   0.16671   0.83276   0.00000  Uiso   1.00
C678   C     0.41017   0.21335   0.85273   0.00000  Uiso   1.00
Cl679  Cl    0.44310   0.00686   0.76508   0.00000  Uiso   1.00
Cl680  Cl    0.05690   0.32645   0.90182   0.00000  Uiso   1.00
Cu681  Cu    0.25500   0.17246   0.89479   0.00000  Uiso   1.00
Cu682  Cu    0.24499   0.16087   0.77187   0.00000  Uiso   1.00
H683   H     0.03061   0.03613   0.77753   0.00000  Uiso   1.00
H684   H     0.46940   0.29719   0.88929   0.00000  Uiso   1.00
N685   N     0.23744   0.15214   0.67951   0.00000  Uiso   1.00
N686   N     0.32325   0.24592   0.72057   0.00000  Uiso   1.00
N687   N     0.26255   0.18119   0.98716   0.00000  Uiso   1.00
N688   N     0.37288   0.30024   0.88945   0.00000  Uiso   1.00
N689   N     0.12713   0.03308   0.77730   0.00000  Uiso   1.00
N690   N     0.34562   0.03569   0.76885   0.00000  Uiso   1.00
N691   N     0.15437   0.29768   0.89754   0.00000  Uiso   1.00
N692   N     0.20081   0.29241   0.70556   0.00000  Uiso   1.00
N693   N     0.29920   0.04093   0.96111   0.00000  Uiso   1.00
N694   N     0.17675   0.08741   0.94610   0.00000  Uiso   1.00
O695   O     0.25325   0.09538   0.87326   0.00000  Uiso   1.00
O696   O     0.24674   0.23796   0.79341   0.00000  Uiso   1.00
O697   O     0.24480   0.08559   0.76945   0.00000  Uiso   1.00
O698   O     0.25520   0.24774   0.89721   0.00000  Uiso   1.00
O699   O     0.18935   0.17155   0.88524   0.00000  Uiso   1.00
O700   O     0.31064   0.16179   0.78143   0.00000  Uiso   1.00
O701   O     0.18090   0.16176   0.78143   0.00000  Uiso   1.00
O702   O     0.31910   0.17157   0.88523   0.00000  Uiso   1.00
C703   C     0.74797   0.06681   0.81795   0.00000  Uiso   1.00
C704   C     0.58983   0.11997   0.81399   0.00000  Uiso   1.00
C705   C     0.88331   0.16624   0.83139   0.00000  Uiso   1.00
C706   C     0.61669   0.16709   0.83528   0.00000  Uiso   1.00
C707   C     0.90174   0.11870   0.80969   0.00000  Uiso   1.00
C708   C     0.59826   0.21463   0.85697   0.00000  Uiso   1.00
C709   C     0.94887   0.11770   0.81080   0.00000  Uiso   1.00
C710   C     0.55113   0.21563   0.85592   0.00000  Uiso   1.00
C711   C     0.97636   0.16607   0.83264   0.00000  Uiso   1.00
C712   C     0.52364   0.16725   0.83409   0.00000  Uiso   1.00
C713   C     0.95673   0.21349   0.85314   0.00000  Uiso   1.00
C714   C     0.75203   0.26652   0.84872   0.00000  Uiso   1.00
C715   C     0.54327   0.11984   0.81360   0.00000  Uiso   1.00
C716   C     0.97005   0.07085   0.79143   0.00000  Uiso   1.00
C717   C     0.52996   0.26247   0.87535   0.00000  Uiso   1.00
C718   C     0.88932   0.26171   0.87321   0.00000  Uiso   1.00
C719   C     0.61068   0.07161   0.79353   0.00000  Uiso   1.00
C720   C     0.87082   0.07225   0.78692   0.00000  Uiso   1.00
C721   C     0.62918   0.26110   0.87960   0.00000  Uiso   1.00
C722   C     0.71948   0.31532   0.75192   0.00000  Uiso   1.00
C723   C     0.78053   0.01802   0.91474   0.00000  Uiso   1.00
C724   C     0.70447   0.11699   0.97609   0.00000  Uiso   1.00
C725   C     0.51610   0.07278   0.79293   0.00000  Uiso   1.00
C726   C     0.79553   0.21635   0.69057   0.00000  Uiso   1.00
C727   C     0.98390   0.26054   0.87385   0.00000  Uiso   1.00
C728   C     0.74299   0.01111   0.81017   0.00000  Uiso   1.00
C729   C     0.75702   0.32222   0.85649   0.00000  Uiso   1.00
C730   C     0.66481   0.16662   0.83391   0.00000  Uiso   1.00
C731   C     0.83519   0.16671   0.83276   0.00000  Uiso   1.00
C732   C     0.91017   0.21335   0.85273   0.00000  Uiso   1.00
Cl733  Cl    0.94310   0.00686   0.76508   0.00000  Uiso   1.00
Cl734  Cl    0.55690   0.32645   0.90182   0.00000  Uiso   1.00
Cu735  Cu    0.75500   0.17246   0.89479   0.00000  Uiso   1.00
Cu736  Cu    0.74499   0.16087   0.77187   0.00000  Uiso   1.00
H737   H     0.53061   0.03613   0.77753   0.00000  Uiso   1.00
H738   H     0.96940   0.29719   0.88929   0.00000  Uiso   1.00
N739   N     0.73744   0.15214   0.67951   0.00000  Uiso   1.00
N740   N     0.82325   0.24592   0.72057   0.00000  Uiso   1.00
N741   N     0.76255   0.18119   0.98716   0.00000  Uiso   1.00
N742   N     0.87288   0.30024   0.88945   0.00000  Uiso   1.00
N743   N     0.62713   0.03308   0.77730   0.00000  Uiso   1.00
N744   N     0.84562   0.03569   0.76885   0.00000  Uiso   1.00
N745   N     0.65437   0.29768   0.89754   0.00000  Uiso   1.00
N746   N     0.70081   0.29241   0.70556   0.00000  Uiso   1.00
N747   N     0.79920   0.04093   0.96111   0.00000  Uiso   1.00
N748   N     0.67675   0.08741   0.94610   0.00000  Uiso   1.00
O749   O     0.75325   0.09538   0.87326   0.00000  Uiso   1.00
O750   O     0.74674   0.23796   0.79341   0.00000  Uiso   1.00
O751   O     0.74480   0.08559   0.76945   0.00000  Uiso   1.00
O752   O     0.75520   0.24774   0.89721   0.00000  Uiso   1.00
O753   O     0.68935   0.17155   0.88524   0.00000  Uiso   1.00
O754   O     0.81064   0.16179   0.78143   0.00000  Uiso   1.00
O755   O     0.68090   0.16176   0.78143   0.00000  Uiso   1.00
O756   O     0.81910   0.17157   0.88523   0.00000  Uiso   1.00
C757   C     0.24797   0.40014   0.81795   0.00000  Uiso   1.00
C758   C     0.08983   0.45331   0.81399   0.00000  Uiso   1.00
C759   C     0.38331   0.49957   0.83139   0.00000  Uiso   1.00
C760   C     0.11669   0.50043   0.83528   0.00000  Uiso   1.00
C761   C     0.40174   0.45203   0.80969   0.00000  Uiso   1.00
C762   C     0.09826   0.54797   0.85697   0.00000  Uiso   1.00
C763   C     0.44887   0.45103   0.81080   0.00000  Uiso   1.00
C764   C     0.05113   0.54896   0.85592   0.00000  Uiso   1.00
C765   C     0.47636   0.49940   0.83264   0.00000  Uiso   1.00
C766   C     0.02364   0.50059   0.83409   0.00000  Uiso   1.00
C767   C     0.45673   0.54682   0.85314   0.00000  Uiso   1.00
C768   C     0.25203   0.59986   0.84872   0.00000  Uiso   1.00
C769   C     0.04327   0.45317   0.81360   0.00000  Uiso   1.00
C770   C     0.47005   0.40419   0.79143   0.00000  Uiso   1.00
C771   C     0.02996   0.59580   0.87535   0.00000  Uiso   1.00
C772   C     0.38932   0.59504   0.87321   0.00000  Uiso   1.00
C773   C     0.11068   0.40495   0.79353   0.00000  Uiso   1.00
C774   C     0.37082   0.40559   0.78692   0.00000  Uiso   1.00
C775   C     0.12918   0.59443   0.87960   0.00000  Uiso   1.00
C776   C     0.21948   0.64865   0.75192   0.00000  Uiso   1.00
C777   C     0.28053   0.35135   0.91474   0.00000  Uiso   1.00
C778   C     0.20447   0.45032   0.97609   0.00000  Uiso   1.00
C779   C     0.01610   0.40611   0.79293   0.00000  Uiso   1.00
C780   C     0.29553   0.54968   0.69057   0.00000  Uiso   1.00
C781   C     0.48390   0.59388   0.87385   0.00000  Uiso   1.00
C782   C     0.24299   0.34444   0.81017   0.00000  Uiso   1.00
C783   C     0.25702   0.65556   0.85649   0.00000  Uiso   1.00
C784   C     0.16481   0.49996   0.83391   0.00000  Uiso   1.00
C785   C     0.33519   0.50004   0.83276   0.00000  Uiso   1.00
C786   C     0.41017   0.54668   0.85273   0.00000  Uiso   1.00
Cl787  Cl    0.44310   0.34019   0.76508   0.00000  Uiso   1.00
Cl788  Cl    0.05690   0.65978   0.90182   0.00000  Uiso   1.00
Cu789  Cu    0.25500   0.50579   0.89479   0.00000  Uiso   1.00
Cu790  Cu    0.24499   0.49421   0.77187   0.00000  Uiso   1.00
H791   H     0.03061   0.36946   0.77753   0.00000  Uiso   1.00
H792   H     0.46940   0.63052   0.88929   0.00000  Uiso   1.00
N793   N     0.23744   0.48547   0.67951   0.00000  Uiso   1.00
N794   N     0.32325   0.57926   0.72057   0.00000  Uiso   1.00
N795   N     0.26255   0.51453   0.98716   0.00000  Uiso   1.00
N796   N     0.37288   0.63357   0.88945   0.00000  Uiso   1.00
N797   N     0.12713   0.36642   0.77730   0.00000  Uiso   1.00
N798   N     0.34562   0.36902   0.76885   0.00000  Uiso   1.00
N799   N     0.15437   0.63102   0.89754   0.00000  Uiso   1.00
N800   N     0.20081   0.62574   0.70556   0.00000  Uiso   1.00
N801   N     0.29920   0.37426   0.96111   0.00000  Uiso   1.00
N802   N     0.17675   0.42074   0.94610   0.00000  Uiso   1.00
O803   O     0.25325   0.42871   0.87326   0.00000  Uiso   1.00
O804   O     0.24674   0.57129   0.79341   0.00000  Uiso   1.00
O805   O     0.24480   0.41892   0.76945   0.00000  Uiso   1.00
O806   O     0.25520   0.58108   0.89721   0.00000  Uiso   1.00
O807   O     0.18935   0.50488   0.88524   0.00000  Uiso   1.00
O808   O     0.31064   0.49512   0.78143   0.00000  Uiso   1.00
O809   O     0.18090   0.49510   0.78143   0.00000  Uiso   1.00
O810   O     0.31910   0.50490   0.88523   0.00000  Uiso   1.00
C811   C     0.74797   0.40014   0.81795   0.00000  Uiso   1.00
C812   C     0.58983   0.45331   0.81399   0.00000  Uiso   1.00
C813   C     0.88331   0.49957   0.83139   0.00000  Uiso   1.00
C814   C     0.61669   0.50043   0.83528   0.00000  Uiso   1.00
C815   C     0.90174   0.45203   0.80969   0.00000  Uiso   1.00
C816   C     0.59826   0.54797   0.85697   0.00000  Uiso   1.00
C817   C     0.94887   0.45103   0.81080   0.00000  Uiso   1.00
C818   C     0.55113   0.54896   0.85592   0.00000  Uiso   1.00
C819   C     0.97636   0.49940   0.83264   0.00000  Uiso   1.00
C820   C     0.52364   0.50059   0.83409   0.00000  Uiso   1.00
C821   C     0.95673   0.54682   0.85314   0.00000  Uiso   1.00
C822   C     0.75203   0.59986   0.84872   0.00000  Uiso   1.00
C823   C     0.54327   0.45317   0.81360   0.00000  Uiso   1.00
C824   C     0.97005   0.40419   0.79143   0.00000  Uiso   1.00
C825   C     0.52996   0.59580   0.87535   0.00000  Uiso   1.00
C826   C     0.88932   0.59504   0.87321   0.00000  Uiso   1.00
C827   C     0.61068   0.40495   0.79353   0.00000  Uiso   1.00
C828   C     0.87082   0.40559   0.78692   0.00000  Uiso   1.00
C829   C     0.62918   0.59443   0.87960   0.00000  Uiso   1.00
C830   C     0.71948   0.64865   0.75192   0.00000  Uiso   1.00
C831   C     0.78053   0.35135   0.91474   0.00000  Uiso   1.00
C832   C     0.70447   0.45032   0.97609   0.00000  Uiso   1.00
C833   C     0.51610   0.40611   0.79293   0.00000  Uiso   1.00
C834   C     0.79553   0.54968   0.69057   0.00000  Uiso   1.00
C835   C     0.98390   0.59388   0.87385   0.00000  Uiso   1.00
C836   C     0.74299   0.34444   0.81017   0.00000  Uiso   1.00
C837   C     0.75702   0.65556   0.85649   0.00000  Uiso   1.00
C838   C     0.66481   0.49996   0.83391   0.00000  Uiso   1.00
C839   C     0.83519   0.50004   0.83276   0.00000  Uiso   1.00
C840   C     0.91017   0.54668   0.85273   0.00000  Uiso   1.00
Cl841  Cl    0.94310   0.34019   0.76508   0.00000  Uiso   1.00
Cl842  Cl    0.55690   0.65978   0.90182   0.00000  Uiso   1.00
Cu843  Cu    0.75500   0.50579   0.89479   0.00000  Uiso   1.00
Cu844  Cu    0.74499   0.49421   0.77187   0.00000  Uiso   1.00
H845   H     0.53061   0.36946   0.77753   0.00000  Uiso   1.00
H846   H     0.96940   0.63052   0.88929   0.00000  Uiso   1.00
N847   N     0.73744   0.48547   0.67951   0.00000  Uiso   1.00
N848   N     0.82325   0.57926   0.72057   0.00000  Uiso   1.00
N849   N     0.76255   0.51453   0.98716   0.00000  Uiso   1.00
N850   N     0.87288   0.63357   0.88945   0.00000  Uiso   1.00
N851   N     0.62713   0.36642   0.77730   0.00000  Uiso   1.00
N852   N     0.84562   0.36902   0.76885   0.00000  Uiso   1.00
N853   N     0.65437   0.63102   0.89754   0.00000  Uiso   1.00
N854   N     0.70081   0.62574   0.70556   0.00000  Uiso   1.00
N855   N     0.79920   0.37426   0.96111   0.00000  Uiso   1.00
N856   N     0.67675   0.42074   0.94610   0.00000  Uiso   1.00
O857   O     0.75325   0.42871   0.87326   0.00000  Uiso   1.00
O858   O     0.74674   0.57129   0.79341   0.00000  Uiso   1.00
O859   O     0.74480   0.41892   0.76945   0.00000  Uiso   1.00
O860   O     0.75520   0.58108   0.89721   0.00000  Uiso   1.00
O861   O     0.68935   0.50488   0.88524   0.00000  Uiso   1.00
O862   O     0.81064   0.49512   0.78143   0.00000  Uiso   1.00
O863   O     0.68090   0.49510   0.78143   0.00000  Uiso   1.00
O864   O     0.81910   0.50490   0.88523   0.00000  Uiso   1.00
C865   C     0.24797   0.73348   0.81795   0.00000  Uiso   1.00
C866   C     0.08983   0.78664   0.81399   0.00000  Uiso   1.00
C867   C     0.38331   0.83290   0.83139   0.00000  Uiso   1.00
C868   C     0.11669   0.83376   0.83528   0.00000  Uiso   1.00
C869   C     0.40174   0.78537   0.80969   0.00000  Uiso   1.00
C870   C     0.09826   0.88130   0.85697   0.00000  Uiso   1.00
C871   C     0.44887   0.78437   0.81080   0.00000  Uiso   1.00
C872   C     0.05113   0.88229   0.85592   0.00000  Uiso   1.00
C873   C     0.47636   0.83274   0.83264   0.00000  Uiso   1.00
C874   C     0.02364   0.83392   0.83409   0.00000  Uiso   1.00
C875   C     0.45673   0.88015   0.85314   0.00000  Uiso   1.00
C876   C     0.25203   0.93319   0.84872   0.00000  Uiso   1.00
C877   C     0.04327   0.78650   0.81360   0.00000  Uiso   1.00
C878   C     0.47005   0.73752   0.79143   0.00000  Uiso   1.00
C879   C     0.02996   0.92913   0.87535   0.00000  Uiso   1.00
C880   C     0.38932   0.92837   0.87321   0.00000  Uiso   1.00
C881   C     0.11068   0.73828   0.79353   0.00000  Uiso   1.00
C882   C     0.37082   0.73892   0.78692   0.00000  Uiso   1.00
C883   C     0.12918   0.92776   0.87960   0.00000  Uiso   1.00
C884   C     0.21948   0.98198   0.75192   0.00000  Uiso   1.00
C885   C     0.28053   0.68468   0.91474   0.00000  Uiso   1.00
C886   C     0.20447   0.78365   0.97609   0.00000  Uiso   1.00
C887   C     0.01610   0.73944   0.79293   0.00000  Uiso   1.00
C888   C     0.29553   0.88301   0.69057   0.00000  Uiso   1.00
C889   C     0.48390   0.92721   0.87385   0.00000  Uiso   1.00
C890   C     0.24299   0.67778   0.81017   0.00000  Uiso   1.00
C891   C     0.25702   0.98889   0.85649   0.00000  Uiso   1.00
C892   C     0.16481   0.83329   0.83391   0.00000  Uiso   1.00
C893   C     0.33519   0.83338   0.83276   0.00000  Uiso   1.00
C894   C     0.41017   0.88002   0.85273   0.00000  Uiso   1.00
Cl895  Cl    0.44310   0.67352   0.76508   0.00000  Uiso   1.00
Cl896  Cl    0.05690   0.99312   0.90182   0.00000  Uiso   1.00
Cu897  Cu    0.25500   0.83913   0.89479   0.00000  Uiso   1.00
Cu898  Cu    0.24499   0.82754   0.77187   0.00000  Uiso   1.00
H899   H     0.03061   0.70279   0.77753   0.00000  Uiso   1.00
H900   H     0.46940   0.96385   0.88929   0.00000  Uiso   1.00
N901   N     0.23744   0.81881   0.67951   0.00000  Uiso   1.00
N902   N     0.32325   0.91259   0.72057   0.00000  Uiso   1.00
N903   N     0.26255   0.84786   0.98716   0.00000  Uiso   1.00
N904   N     0.37288   0.96690   0.88945   0.00000  Uiso   1.00
N905   N     0.12713   0.69975   0.77730   0.00000  Uiso   1.00
N906   N     0.34562   0.70235   0.76885   0.00000  Uiso   1.00
N907   N     0.15437   0.96435   0.89754   0.00000  Uiso   1.00
N908   N     0.20081   0.95907   0.70556   0.00000  Uiso   1.00
N909   N     0.29920   0.70760   0.96111   0.00000  Uiso   1.00
N910   N     0.17675   0.75408   0.94610   0.00000  Uiso   1.00
O911   O     0.25325   0.76204   0.87326   0.00000  Uiso   1.00
O912   O     0.24674   0.90462   0.79341   0.00000  Uiso   1.00
O913   O     0.24480   0.75226   0.76945   0.00000  Uiso   1.00
O914   O     0.25520   0.91441   0.89721   0.00000  Uiso   1.00
O915   O     0.18935   0.83821   0.88524   0.00000  Uiso   1.00
O916   O     0.31064   0.82845   0.78143   0.00000  Uiso   1.00
O917   O     0.18090   0.82843   0.78143   0.00000  Uiso   1.00
O918   O     0.31910   0.83824   0.88523   0.00000  Uiso   1.00
C919   C     0.74797   0.73348   0.81795   0.00000  Uiso   1.00
C920   C     0.58983   0.78664   0.81399   0.00000  Uiso   1.00
C921   C     0.88331   0.83290   0.83139   0.00000  Uiso   1.00
C922   C     0.61669   0.83376   0.83528   0.00000  Uiso   1.00
C923   C     0.90174   0.78537   0.80969   0.00000  Uiso   1.00
C924   C     0.59826   0.88130   0.85697   0.00000  Uiso   1.00
C925   C     0.94887   0.78437   0.81080   0.00000  Uiso   1.00
C926   C     0.55113   0.88229   0.85592   0.00000  Uiso   1.00
C927   C     0.97636   0.83274   0.83264   0.00000  Uiso   1.00
C928   C     0.52364   0.83392   0.83409   0.00000  Uiso   1.00
C929   C     0.95673   0.88015   0.85314   0.00000  Uiso   1.00
C930   C     0.75203   0.93319   0.84872   0.00000  Uiso   1.00
C931   C     0.54327   0.78650   0.81360   0.00000  Uiso   1.00
C932   C     0.97005   0.73752   0.79143   0.00000  Uiso   1.00
C933   C     0.52996   0.92913   0.87535   0.00000  Uiso   1.00
C934   C     0.88932   0.92837   0.87321   0.00000  Uiso   1.00
C935   C     0.61068   0.73828   0.79353   0.00000  Uiso   1.00
C936   C     0.87082   0.73892   0.78692   0.00000  Uiso   1.00
C937   C     0.62918   0.92776   0.87960   0.00000  Uiso   1.00
C938   C     0.71948   0.98198   0.75192   0.00000  Uiso   1.00
C939   C     0.78053   0.68468   0.91474   0.00000  Uiso   1.00
C940   C     0.70447   0.78365   0.97609   0.00000  Uiso   1.00
C941   C     0.51610   0.73944   0.79293   0.00000  Uiso   1.00
C942   C     0.79553   0.88301   0.69057   0.00000  Uiso   1.00
C943   C     0.98390   0.92721   0.87385   0.00000  Uiso   1.00
C944   C     0.74299   0.67778   0.81017   0.00000  Uiso   1.00
C945   C     0.75702   0.98889   0.85649   0.00000  Uiso   1.00
C946   C     0.66481   0.83329   0.83391   0.00000  Uiso   1.00
C947   C     0.83519   0.83338   0.83276   0.00000  Uiso   1.00
C948   C     0.91017   0.88002   0.85273   0.00000  Uiso   1.00
Cl949  Cl    0.94310   0.67352   0.76508   0.00000  Uiso   1.00
Cl950  Cl    0.55690   0.99312   0.90182   0.00000  Uiso   1.00
Cu951  Cu    0.75500   0.83913   0.89479   0.00000  Uiso   1.00
Cu952  Cu    0.74499   0.82754   0.77187   0.00000  Uiso   1.00
H953   H     0.53061   0.70279   0.77753   0.00000  Uiso   1.00
H954   H     0.96940   0.96385   0.88929   0.00000  Uiso   1.00
N955   N     0.73744   0.81881   0.67951   0.00000  Uiso   1.00
N956   N     0.82325   0.91259   0.72057   0.00000  Uiso   1.00
N957   N     0.76255   0.84786   0.98716   0.00000  Uiso   1.00
N958   N     0.87288   0.96690   0.88945   0.00000  Uiso   1.00
N959   N     0.62713   0.69975   0.77730   0.00000  Uiso   1.00
N960   N     0.84562   0.70235   0.76885   0.00000  Uiso   1.00
N961   N     0.65437   0.96435   0.89754   0.00000  Uiso   1.00
N962   N     0.70081   0.95907   0.70556   0.00000  Uiso   1.00
N963   N     0.79920   0.70760   0.96111   0.00000  Uiso   1.00
N964   N     0.67675   0.75408   0.94610   0.00000  Uiso   1.00
O965   O     0.75325   0.76204   0.87326   0.00000  Uiso   1.00
O966   O     0.74674   0.90462   0.79341   0.00000  Uiso   1.00
O967   O     0.74480   0.75226   0.76945   0.00000  Uiso   1.00
O968   O     0.75520   0.91441   0.89721   0.00000  Uiso   1.00
O969   O     0.68935   0.83821   0.88524   0.00000  Uiso   1.00
O970   O     0.81064   0.82845   0.78143   0.00000  Uiso   1.00
O971   O     0.68090   0.82843   0.78143   0.00000  Uiso   1.00
O972   O     0.81910   0.83824   0.88523   0.00000  Uiso   1.00
loop_
_geom_bond_atom_site_label_1
_geom_bond_atom_site_label_2
_geom_bond_distance
_geom_bond_site_symmetry_2
_ccdc_geom_bond_type
C1     C26     1.433   .     S
C1     O47     1.290   .     A
C1     O49     1.295   .     A
C2     C4      1.397   .     A
C2     C17     1.455   .     S
C2     C13     1.402   .     A
C3     C30     1.397   .     A
C3     C29     1.454   .     S
C3     C5      1.405   .     A
C4     C6      1.405   .     A
C4     C28     1.454   .     S
C5     C7      1.421   .     A
C5     C18     1.451   .     S
C6     C19     1.451   .     S
C6     C8      1.420   .     A
C7     C9      1.433   .     A
C7     C14     1.424   .     A
C8     C15     1.424   .     A
C8     C10     1.433   .     A
C9     C11     1.416   .     A
C9     C64     1.421   .     S
C10    C13     1.416   .     A
C10    C63     1.421   1_455 S
C11    C25     1.399   .     A
C11    C30     1.402   .     A
C12    O50     1.295   .     A
C12    O48     1.290   .     A
C12    C27     1.433   .     S
C13    C23     1.399   .     A
C14    Cl31    1.769   .     S
C14    C77     1.383   .     S
C15    Cl32    1.769   .     S
C15    C79     1.383   1_455 S
C16    N40     1.157   .     T
C16    C30     1.455   .     S
C17    N41     1.157   .     T
C18    N42     1.158   .     T
C19    N43     1.158   .     T
C20    N44     1.158   .     T
C20    C134    1.458   .     S
C21    N45     1.158   .     T
C21    C243    1.458   1_545 S
C22    N46     1.158   .     T
C22    N361    1.386   .     S
C23    H35     1.083   .     S
C23    C68     1.383   1_455 S
C24    N38     1.158   .     T
C24    N687    1.386   1_554 S
C25    H36     1.083   .     S
C25    C69     1.383   .     S
C26    C236    1.458   1_545 S
C26    C243    1.359   1_545 S
C27    C134    1.359   .     S
C27    C129    1.458   .     S
C28    O53     1.294   .     A
C28    O51     1.295   .     A
C29    O54     1.294   .     A
C29    O52     1.295   .     A
Cu33   O51     1.971   .     S
Cu33   Cu34    2.701   .     S
Cu33   N39     2.029   .     S
Cu33   O47     1.972   .     S
Cu33   O54     1.962   .     S
Cu33   O50     1.970   .     S
Cu34   N37     2.029   .     S
Cu34   O48     1.972   .     S
Cu34   O53     1.962   .     S
Cu34   O49     1.970   .     S
Cu34   O52     1.971   .     S
N37    C670    1.386   1_554 S
N37    N687    1.297   1_554 S
N39    N361    1.297   .     S
N39    C348    1.386   .     S
C55    C80     1.433   .     S
C55    O101    1.290   .     A
C55    O103    1.295   .     A
C56    C58     1.397   .     A
C56    C71     1.455   .     S
C56    C67     1.402   .     A
C57    C84     1.397   .     A
C57    C83     1.454   .     S
C57    C59     1.405   .     A
C58    C60     1.405   .     A
C58    C82     1.454   .     S
C59    C61     1.421   .     A
C59    C72     1.451   .     S
C60    C73     1.451   .     S
C60    C62     1.420   .     A
C61    C63     1.433   .     A
C61    C68     1.424   .     A
C62    C69     1.424   .     A
C62    C64     1.433   .     A
C63    C65     1.416   .     A
C63    C10     1.421   1_655 S
C64    C67     1.416   .     A
C65    C79     1.399   .     A
C65    C84     1.402   .     A
C66    O104    1.295   .     A
C66    O102    1.290   .     A
C66    C81     1.433   .     S
C67    C77     1.399   .     A
C68    Cl85    1.769   .     S
C68    C23     1.383   1_655 S
C69    Cl86    1.769   .     S
C70    N94     1.157   .     T
C70    C84     1.455   .     S
C71    N95     1.157   .     T
C72    N96     1.158   .     T
C73    N97     1.158   .     T
C74    N98     1.158   .     T
C74    C188    1.458   .     S
C75    N99     1.158   .     T
C75    C297    1.458   1_545 S
C76    N100    1.158   .     T
C76    N415    1.386   .     S
C77    H89     1.083   .     S
C78    N92     1.158   .     T
C78    N741    1.386   1_554 S
C79    H90     1.083   .     S
C79    C15     1.383   1_655 S
C80    C290    1.458   1_545 S
C80    C297    1.359   1_545 S
C81    C188    1.359   .     S
C81    C183    1.458   .     S
C82    O107    1.294   .     A
C82    O105    1.295   .     A
C83    O108    1.294   .     A
C83    O106    1.295   .     A
Cu87   O105    1.971   .     S
Cu87   Cu88    2.701   .     S
Cu87   N93     2.029   .     S
Cu87   O101    1.972   .     S
Cu87   O108    1.962   .     S
Cu87   O104    1.970   .     S
Cu88   N91     2.029   .     S
Cu88   O102    1.972   .     S
Cu88   O107    1.962   .     S
Cu88   O103    1.970   .     S
Cu88   O106    1.971   .     S
N91    C724    1.386   1_554 S
N91    N741    1.297   1_554 S
N93    N415    1.297   .     S
N93    C402    1.386   .     S
C109   C134    1.433   .     S
C109   O155    1.290   .     A
C109   O157    1.295   .     A
C110   C112    1.397   .     A
C110   C125    1.455   .     S
C110   C121    1.402   .     A
C111   C138    1.397   .     A
C111   C137    1.454   .     S
C111   C113    1.405   .     A
C112   C114    1.405   .     A
C112   C136    1.454   .     S
C113   C115    1.421   .     A
C113   C126    1.451   .     S
C114   C127    1.451   .     S
C114   C116    1.420   .     A
C115   C117    1.433   .     A
C115   C122    1.424   .     A
C116   C123    1.424   .     A
C116   C118    1.433   .     A
C117   C119    1.416   .     A
C117   C172    1.421   .     S
C118   C121    1.416   .     A
C118   C171    1.421   1_455 S
C119   C133    1.399   .     A
C119   C138    1.402   .     A
C120   O158    1.295   .     A
C120   O156    1.290   .     A
C120   C135    1.433   .     S
C121   C131    1.399   .     A
C122   Cl139   1.769   .     S
C122   C185    1.383   .     S
C123   Cl140   1.769   .     S
C123   C187    1.383   1_455 S
C124   N148    1.157   .     T
C124   C138    1.455   .     S
C125   N149    1.157   .     T
C126   N150    1.158   .     T
C127   N151    1.158   .     T
C128   N152    1.158   .     T
C128   C242    1.458   .     S
C129   N153    1.158   .     T
C130   N154    1.158   .     T
C130   N469    1.386   .     S
C131   H143    1.083   .     S
C131   C176    1.383   1_455 S
C132   N146    1.158   .     T
C132   N795    1.386   1_554 S
C133   H144    1.083   .     S
C133   C177    1.383   .     S
C135   C242    1.359   .     S
C135   C237    1.458   .     S
C136   O161    1.294   .     A
C136   O159    1.295   .     A
C137   O162    1.294   .     A
C137   O160    1.295   .     A
Cu141  O159    1.971   .     S
Cu141  Cu142   2.701   .     S
Cu141  N147    2.029   .     S
Cu141  O155    1.972   .     S
Cu141  O162    1.962   .     S
Cu141  O158    1.970   .     S
Cu142  N145    2.029   .     S
Cu142  O156    1.972   .     S
Cu142  O161    1.962   .     S
Cu142  O157    1.970   .     S
Cu142  O160    1.971   .     S
N145   C778    1.386   1_554 S
N145   N795    1.297   1_554 S
N147   N469    1.297   .     S
N147   C456    1.386   .     S
C163   C188    1.433   .     S
C163   O209    1.290   .     A
C163   O211    1.295   .     A
C164   C166    1.397   .     A
C164   C179    1.455   .     S
C164   C175    1.402   .     A
C165   C192    1.397   .     A
C165   C191    1.454   .     S
C165   C167    1.405   .     A
C166   C168    1.405   .     A
C166   C190    1.454   .     S
C167   C169    1.421   .     A
C167   C180    1.451   .     S
C168   C181    1.451   .     S
C168   C170    1.420   .     A
C169   C171    1.433   .     A
C169   C176    1.424   .     A
C170   C177    1.424   .     A
C170   C172    1.433   .     A
C171   C173    1.416   .     A
C171   C118    1.421   1_655 S
C172   C175    1.416   .     A
C173   C187    1.399   .     A
C173   C192    1.402   .     A
C174   O212    1.295   .     A
C174   O210    1.290   .     A
C174   C189    1.433   .     S
C175   C185    1.399   .     A
C176   Cl193   1.769   .     S
C176   C131    1.383   1_655 S
C177   Cl194   1.769   .     S
C178   N202    1.157   .     T
C178   C192    1.455   .     S
C179   N203    1.157   .     T
C180   N204    1.158   .     T
C181   N205    1.158   .     T
C182   N206    1.158   .     T
C182   C296    1.458   .     S
C183   N207    1.158   .     T
C184   N208    1.158   .     T
C184   N523    1.386   .     S
C185   H197    1.083   .     S
C186   N200    1.158   .     T
C186   N849    1.386   1_554 S
C187   H198    1.083   .     S
C187   C123    1.383   1_655 S
C189   C296    1.359   .     S
C189   C291    1.458   .     S
C190   O215    1.294   .     A
C190   O213    1.295   .     A
C191   O216    1.294   .     A
C191   O214    1.295   .     A
Cu195  O213    1.971   .     S
Cu195  Cu196   2.701   .     S
Cu195  N201    2.029   .     S
Cu195  O209    1.972   .     S
Cu195  O216    1.962   .     S
Cu195  O212    1.970   .     S
Cu196  N199    2.029   .     S
Cu196  O210    1.972   .     S
Cu196  O215    1.962   .     S
Cu196  O211    1.970   .     S
Cu196  O214    1.971   .     S
N199   C832    1.386   1_554 S
N199   N849    1.297   1_554 S
N201   N523    1.297   .     S
N201   C510    1.386   .     S
C217   C242    1.433   .     S
C217   O263    1.290   .     A
C217   O265    1.295   .     A
C218   C220    1.397   .     A
C218   C233    1.455   .     S
C218   C229    1.402   .     A
C219   C246    1.397   .     A
C219   C245    1.454   .     S
C219   C221    1.405   .     A
C220   C222    1.405   .     A
C220   C244    1.454   .     S
C221   C223    1.421   .     A
C221   C234    1.451   .     S
C222   C235    1.451   .     S
C222   C224    1.420   .     A
C223   C225    1.433   .     A
C223   C230    1.424   .     A
C224   C231    1.424   .     A
C224   C226    1.433   .     A
C225   C227    1.416   .     A
C225   C280    1.421   .     S
C226   C229    1.416   .     A
C226   C279    1.421   1_455 S
C227   C241    1.399   .     A
C227   C246    1.402   .     A
C228   O266    1.295   .     A
C228   O264    1.290   .     A
C228   C243    1.433   .     S
C229   C239    1.399   .     A
C230   Cl247   1.769   .     S
C230   C293    1.383   .     S
C231   Cl248   1.769   .     S
C231   C295    1.383   1_455 S
C232   N256    1.157   .     T
C232   C246    1.455   .     S
C233   N257    1.157   .     T
C234   N258    1.158   .     T
C235   N259    1.158   .     T
C236   N260    1.158   .     T
C236   C26     1.458   1_565 S
C237   N261    1.158   .     T
C238   N262    1.158   .     T
C238   N577    1.386   .     S
C239   H251    1.083   .     S
C239   C284    1.383   1_455 S
C240   N254    1.158   .     T
C240   N903    1.386   1_554 S
C241   H252    1.083   .     S
C241   C285    1.383   .     S
C243   C26     1.359   1_565 S
C243   C21     1.458   1_565 S
C244   O269    1.294   .     A
C244   O267    1.295   .     A
C245   O270    1.294   .     A
C245   O268    1.295   .     A
Cu249  O267    1.971   .     S
Cu249  Cu250   2.701   .     S
Cu249  N255    2.029   .     S
Cu249  O263    1.972   .     S
Cu249  O270    1.962   .     S
Cu249  O266    1.970   .     S
Cu250  N253    2.029   .     S
Cu250  O264    1.972   .     S
Cu250  O269    1.962   .     S
Cu250  O265    1.970   .     S
Cu250  O268    1.971   .     S
N253   C886    1.386   1_554 S
N253   N903    1.297   1_554 S
N255   N577    1.297   .     S
N255   C564    1.386   .     S
C271   C296    1.433   .     S
C271   O317    1.290   .     A
C271   O319    1.295   .     A
C272   C274    1.397   .     A
C272   C287    1.455   .     S
C272   C283    1.402   .     A
C273   C300    1.397   .     A
C273   C299    1.454   .     S
C273   C275    1.405   .     A
C274   C276    1.405   .     A
C274   C298    1.454   .     S
C275   C277    1.421   .     A
C275   C288    1.451   .     S
C276   C289    1.451   .     S
C276   C278    1.420   .     A
C277   C279    1.433   .     A
C277   C284    1.424   .     A
C278   C285    1.424   .     A
C278   C280    1.433   .     A
C279   C281    1.416   .     A
C279   C226    1.421   1_655 S
C280   C283    1.416   .     A
C281   C295    1.399   .     A
C281   C300    1.402   .     A
C282   O320    1.295   .     A
C282   O318    1.290   .     A
C282   C297    1.433   .     S
C283   C293    1.399   .     A
C284   Cl301   1.769   .     S
C284   C239    1.383   1_655 S
C285   Cl302   1.769   .     S
C286   N310    1.157   .     T
C286   C300    1.455   .     S
C287   N311    1.157   .     T
C288   N312    1.158   .     T
C289   N313    1.158   .     T
C290   N314    1.158   .     T
C290   C80     1.458   1_565 S
C291   N315    1.158   .     T
C292   N316    1.158   .     T
C292   N631    1.386   .     S
C293   H305    1.083   .     S
C294   N308    1.158   .     T
C294   N957    1.386   1_554 S
C295   H306    1.083   .     S
C295   C231    1.383   1_655 S
C297   C80     1.359   1_565 S
C297   C75     1.458   1_565 S
C298   O323    1.294   .     A
C298   O321    1.295   .     A
C299   O324    1.294   .     A
C299   O322    1.295   .     A
Cu303  O321    1.971   .     S
Cu303  Cu304   2.701   .     S
Cu303  N309    2.029   .     S
Cu303  O317    1.972   .     S
Cu303  O324    1.962   .     S
Cu303  O320    1.970   .     S
Cu304  N307    2.029   .     S
Cu304  O318    1.972   .     S
Cu304  O323    1.962   .     S
Cu304  O319    1.970   .     S
Cu304  O322    1.971   .     S
N307   C940    1.386   1_554 S
N307   N957    1.297   1_554 S
N309   N631    1.297   .     S
N309   C618    1.386   .     S
C325   C350    1.433   .     S
C325   O371    1.290   .     A
C325   O373    1.295   .     A
C326   C328    1.397   .     A
C326   C341    1.455   .     S
C326   C337    1.402   .     A
C327   C354    1.397   .     A
C327   C353    1.454   .     S
C327   C329    1.405   .     A
C328   C330    1.405   .     A
C328   C352    1.454   .     S
C329   C331    1.421   .     A
C329   C342    1.451   .     S
C330   C343    1.451   .     S
C330   C332    1.420   .     A
C331   C333    1.433   .     A
C331   C338    1.424   .     A
C332   C339    1.424   .     A
C332   C334    1.433   .     A
C333   C335    1.416   .     A
C333   C388    1.421   .     S
C334   C337    1.416   .     A
C334   C387    1.421   1_455 S
C335   C349    1.399   .     A
C335   C354    1.402   .     A
C336   O374    1.295   .     A
C336   O372    1.290   .     A
C336   C351    1.433   .     S
C337   C347    1.399   .     A
C338   Cl355   1.769   .     S
C338   C401    1.383   .     S
C339   Cl356   1.769   .     S
C339   C403    1.383   1_455 S
C340   N364    1.157   .     T
C340   C354    1.455   .     S
C341   N365    1.157   .     T
C342   N366    1.158   .     T
C343   N367    1.158   .     T
C344   N368    1.158   .     T
C344   C458    1.458   .     S
C345   N369    1.158   .     T
C345   C567    1.458   1_545 S
C346   N370    1.158   .     T
C346   N685    1.386   .     S
C347   H359    1.083   .     S
C347   C392    1.383   1_455 S
C348   N362    1.158   .     T
C349   H360    1.083   .     S
C349   C393    1.383   .     S
C350   C560    1.458   1_545 S
C350   C567    1.359   1_545 S
C351   C458    1.359   .     S
C351   C453    1.458   .     S
C352   O377    1.294   .     A
C352   O375    1.295   .     A
C353   O378    1.294   .     A
C353   O376    1.295   .     A
Cu357  O375    1.971   .     S
Cu357  Cu358   2.701   .     S
Cu357  N363    2.029   .     S
Cu357  O371    1.972   .     S
Cu357  O378    1.962   .     S
Cu357  O374    1.970   .     S
Cu358  N361    2.029   .     S
Cu358  O372    1.972   .     S
Cu358  O377    1.962   .     S
Cu358  O373    1.970   .     S
Cu358  O376    1.971   .     S
N363   N685    1.297   .     S
N363   C672    1.386   .     S
C379   C404    1.433   .     S
C379   O425    1.290   .     A
C379   O427    1.295   .     A
C380   C382    1.397   .     A
C380   C395    1.455   .     S
C380   C391    1.402   .     A
C381   C408    1.397   .     A
C381   C407    1.454   .     S
C381   C383    1.405   .     A
C382   C384    1.405   .     A
C382   C406    1.454   .     S
C383   C385    1.421   .     A
C383   C396    1.451   .     S
C384   C397    1.451   .     S
C384   C386    1.420   .     A
C385   C387    1.433   .     A
C385   C392    1.424   .     A
C386   C393    1.424   .     A
C386   C388    1.433   .     A
C387   C389    1.416   .     A
C387   C334    1.421   1_655 S
C388   C391    1.416   .     A
C389   C403    1.399   .     A
C389   C408    1.402   .     A
C390   O428    1.295   .     A
C390   O426    1.290   .     A
C390   C405    1.433   .     S
C391   C401    1.399   .     A
C392   Cl409   1.769   .     S
C392   C347    1.383   1_655 S
C393   Cl410   1.769   .     S
C394   N418    1.157   .     T
C394   C408    1.455   .     S
C395   N419    1.157   .     T
C396   N420    1.158   .     T
C397   N421    1.158   .     T
C398   N422    1.158   .     T
C398   C512    1.458   .     S
C399   N423    1.158   .     T
C399   C621    1.458   1_545 S
C400   N424    1.158   .     T
C400   N739    1.386   .     S
C401   H413    1.083   .     S
C402   N416    1.158   .     T
C403   H414    1.083   .     S
C403   C339    1.383   1_655 S
C404   C614    1.458   1_545 S
C404   C621    1.359   1_545 S
C405   C512    1.359   .     S
C405   C507    1.458   .     S
C406   O431    1.294   .     A
C406   O429    1.295   .     A
C407   O432    1.294   .     A
C407   O430    1.295   .     A
Cu411  O429    1.971   .     S
Cu411  Cu412   2.701   .     S
Cu411  N417    2.029   .     S
Cu411  O425    1.972   .     S
Cu411  O432    1.962   .     S
Cu411  O428    1.970   .     S
Cu412  N415    2.029   .     S
Cu412  O426    1.972   .     S
Cu412  O431    1.962   .     S
Cu412  O427    1.970   .     S
Cu412  O430    1.971   .     S
N417   N739    1.297   .     S
N417   C726    1.386   .     S
C433   C458    1.433   .     S
C433   O479    1.290   .     A
C433   O481    1.295   .     A
C434   C436    1.397   .     A
C434   C449    1.455   .     S
C434   C445    1.402   .     A
C435   C462    1.397   .     A
C435   C461    1.454   .     S
C435   C437    1.405   .     A
C436   C438    1.405   .     A
C436   C460    1.454   .     S
C437   C439    1.421   .     A
C437   C450    1.451   .     S
C438   C451    1.451   .     S
C438   C440    1.420   .     A
C439   C441    1.433   .     A
C439   C446    1.424   .     A
C440   C447    1.424   .     A
C440   C442    1.433   .     A
C441   C443    1.416   .     A
C441   C496    1.421   .     S
C442   C445    1.416   .     A
C442   C495    1.421   1_455 S
C443   C457    1.399   .     A
C443   C462    1.402   .     A
C444   O482    1.295   .     A
C444   O480    1.290   .     A
C444   C459    1.433   .     S
C445   C455    1.399   .     A
C446   Cl463   1.769   .     S
C446   C509    1.383   .     S
C447   Cl464   1.769   .     S
C447   C511    1.383   1_455 S
C448   N472    1.157   .     T
C448   C462    1.455   .     S
C449   N473    1.157   .     T
C450   N474    1.158   .     T
C451   N475    1.158   .     T
C452   N476    1.158   .     T
C452   C566    1.458   .     S
C453   N477    1.158   .     T
C454   N478    1.158   .     T
C454   N793    1.386   .     S
C455   H467    1.083   .     S
C455   C500    1.383   1_455 S
C456   N470    1.158   .     T
C457   H468    1.083   .     S
C457   C501    1.383   .     S
C459   C566    1.359   .     S
C459   C561    1.458   .     S
C460   O485    1.294   .     A
C460   O483    1.295   .     A
C461   O486    1.294   .     A
C461   O484    1.295   .     A
Cu465  O483    1.971   .     S
Cu465  Cu466   2.701   .     S
Cu465  N471    2.029   .     S
Cu465  O479    1.972   .     S
Cu465  O486    1.962   .     S
Cu465  O482    1.970   .     S
Cu466  N469    2.029   .     S
Cu466  O480    1.972   .     S
Cu466  O485    1.962   .     S
Cu466  O481    1.970   .     S
Cu466  O484    1.971   .     S
N471   N793    1.297   .     S
N471   C780    1.386   .     S
C487   C512    1.433   .     S
C487   O533    1.290   .     A
C487   O535    1.295   .     A
C488   C490    1.397   .     A
C488   C503    1.455   .     S
C488   C499    1.402   .     A
C489   C516    1.397   .     A
C489   C515    1.454   .     S
C489   C491    1.405   .     A
C490   C492    1.405   .     A
C490   C514    1.454   .     S
C491   C493    1.421   .     A
C491   C504    1.451   .     S
C492   C505    1.451   .     S
C492   C494    1.420   .     A
C493   C495    1.433   .     A
C493   C500    1.424   .     A
C494   C501    1.424   .     A
C494   C496    1.433   .     A
C495   C497    1.416   .     A
C495   C442    1.421   1_655 S
C496   C499    1.416   .     A
C497   C511    1.399   .     A
C497   C516    1.402   .     A
C498   O536    1.295   .     A
C498   O534    1.290   .     A
C498   C513    1.433   .     S
C499   C509    1.399   .     A
C500   Cl517   1.769   .     S
C500   C455    1.383   1_655 S
C501   Cl518   1.769   .     S
C502   N526    1.157   .     T
C502   C516    1.455   .     S
C503   N527    1.157   .     T
C504   N528    1.158   .     T
C505   N529    1.158   .     T
C506   N530    1.158   .     T
C506   C620    1.458   .     S
C507   N531    1.158   .     T
C508   N532    1.158   .     T
C508   N847    1.386   .     S
C509   H521    1.083   .     S
C510   N524    1.158   .     T
C511   H522    1.083   .     S
C511   C447    1.383   1_655 S
C513   C620    1.359   .     S
C513   C615    1.458   .     S
C514   O539    1.294   .     A
C514   O537    1.295   .     A
C515   O540    1.294   .     A
C515   O538    1.295   .     A
Cu519  O537    1.971   .     S
Cu519  Cu520   2.701   .     S
Cu519  N525    2.029   .     S
Cu519  O533    1.972   .     S
Cu519  O540    1.962   .     S
Cu519  O536    1.970   .     S
Cu520  N523    2.029   .     S
Cu520  O534    1.972   .     S
Cu520  O539    1.962   .     S
Cu520  O535    1.970   .     S
Cu520  O538    1.971   .     S
N525   N847    1.297   .     S
N525   C834    1.386   .     S
C541   C566    1.433   .     S
C541   O587    1.290   .     A
C541   O589    1.295   .     A
C542   C544    1.397   .     A
C542   C557    1.455   .     S
C542   C553    1.402   .     A
C543   C570    1.397   .     A
C543   C569    1.454   .     S
C543   C545    1.405   .     A
C544   C546    1.405   .     A
C544   C568    1.454   .     S
C545   C547    1.421   .     A
C545   C558    1.451   .     S
C546   C559    1.451   .     S
C546   C548    1.420   .     A
C547   C549    1.433   .     A
C547   C554    1.424   .     A
C548   C555    1.424   .     A
C548   C550    1.433   .     A
C549   C551    1.416   .     A
C549   C604    1.421   .     S
C550   C553    1.416   .     A
C550   C603    1.421   1_455 S
C551   C565    1.399   .     A
C551   C570    1.402   .     A
C552   O590    1.295   .     A
C552   O588    1.290   .     A
C552   C567    1.433   .     S
C553   C563    1.399   .     A
C554   Cl571   1.769   .     S
C554   C617    1.383   .     S
C555   Cl572   1.769   .     S
C555   C619    1.383   1_455 S
C556   N580    1.157   .     T
C556   C570    1.455   .     S
C557   N581    1.157   .     T
C558   N582    1.158   .     T
C559   N583    1.158   .     T
C560   N584    1.158   .     T
C560   C350    1.458   1_565 S
C561   N585    1.158   .     T
C562   N586    1.158   .     T
C562   N901    1.386   .     S
C563   H575    1.083   .     S
C563   C608    1.383   1_455 S
C564   N578    1.158   .     T
C565   H576    1.083   .     S
C565   C609    1.383   .     S
C567   C350    1.359   1_565 S
C567   C345    1.458   1_565 S
C568   O593    1.294   .     A
C568   O591    1.295   .     A
C569   O594    1.294   .     A
C569   O592    1.295   .     A
Cu573  O591    1.971   .     S
Cu573  Cu574   2.701   .     S
Cu573  N579    2.029   .     S
Cu573  O587    1.972   .     S
Cu573  O594    1.962   .     S
Cu573  O590    1.970   .     S
Cu574  N577    2.029   .     S
Cu574  O588    1.972   .     S
Cu574  O593    1.962   .     S
Cu574  O589    1.970   .     S
Cu574  O592    1.971   .     S
N579   N901    1.297   .     S
N579   C888    1.386   .     S
C595   C620    1.433   .     S
C595   O641    1.290   .     A
C595   O643    1.295   .     A
C596   C598    1.397   .     A
C596   C611    1.455   .     S
C596   C607    1.402   .     A
C597   C624    1.397   .     A
C597   C623    1.454   .     S
C597   C599    1.405   .     A
C598   C600    1.405   .     A
C598   C622    1.454   .     S
C599   C601    1.421   .     A
C599   C612    1.451   .     S
C600   C613    1.451   .     S
C600   C602    1.420   .     A
C601   C603    1.433   .     A
C601   C608    1.424   .     A
C602   C609    1.424   .     A
C602   C604    1.433   .     A
C603   C605    1.416   .     A
C603   C550    1.421   1_655 S
C604   C607    1.416   .     A
C605   C619    1.399   .     A
C605   C624    1.402   .     A
C606   O644    1.295   .     A
C606   O642    1.290   .     A
C606   C621    1.433   .     S
C607   C617    1.399   .     A
C608   Cl625   1.769   .     S
C608   C563    1.383   1_655 S
C609   Cl626   1.769   .     S
C610   N634    1.157   .     T
C610   C624    1.455   .     S
C611   N635    1.157   .     T
C612   N636    1.158   .     T
C613   N637    1.158   .     T
C614   N638    1.158   .     T
C614   C404    1.458   1_565 S
C615   N639    1.158   .     T
C616   N640    1.158   .     T
C616   N955    1.386   .     S
C617   H629    1.083   .     S
C618   N632    1.158   .     T
C619   H630    1.083   .     S
C619   C555    1.383   1_655 S
C621   C404    1.359   1_565 S
C621   C399    1.458   1_565 S
C622   O647    1.294   .     A
C622   O645    1.295   .     A
C623   O648    1.294   .     A
C623   O646    1.295   .     A
Cu627  O645    1.971   .     S
Cu627  Cu628   2.701   .     S
Cu627  N633    2.029   .     S
Cu627  O641    1.972   .     S
Cu627  O648    1.962   .     S
Cu627  O644    1.970   .     S
Cu628  N631    2.029   .     S
Cu628  O642    1.972   .     S
Cu628  O647    1.962   .     S
Cu628  O643    1.970   .     S
Cu628  O646    1.971   .     S
N633   N955    1.297   .     S
N633   C942    1.386   .     S
C649   C674    1.433   .     S
C649   O695    1.290   .     A
C649   O697    1.295   .     A
C650   C652    1.397   .     A
C650   C665    1.455   .     S
C650   C661    1.402   .     A
C651   C678    1.397   .     A
C651   C677    1.454   .     S
C651   C653    1.405   .     A
C652   C654    1.405   .     A
C652   C676    1.454   .     S
C653   C655    1.421   .     A
C653   C666    1.451   .     S
C654   C667    1.451   .     S
C654   C656    1.420   .     A
C655   C657    1.433   .     A
C655   C662    1.424   .     A
C656   C663    1.424   .     A
C656   C658    1.433   .     A
C657   C659    1.416   .     A
C657   C712    1.421   .     S
C658   C661    1.416   .     A
C658   C711    1.421   1_455 S
C659   C673    1.399   .     A
C659   C678    1.402   .     A
C660   O698    1.295   .     A
C660   O696    1.290   .     A
C660   C675    1.433   .     S
C661   C671    1.399   .     A
C662   Cl679   1.769   .     S
C662   C725    1.383   .     S
C663   Cl680   1.769   .     S
C663   C727    1.383   1_455 S
C664   N688    1.157   .     T
C664   C678    1.455   .     S
C665   N689    1.157   .     T
C666   N690    1.158   .     T
C667   N691    1.158   .     T
C668   N692    1.158   .     T
C668   C782    1.458   .     S
C669   N693    1.158   .     T
C669   C891    1.458   1_545 S
C670   N694    1.158   .     T
C670   N37     1.386   1_556 S
C671   H683    1.083   .     S
C671   C716    1.383   1_455 S
C672   N686    1.158   .     T
C673   H684    1.083   .     S
C673   C717    1.383   .     S
C674   C884    1.458   1_545 S
C674   C891    1.359   1_545 S
C675   C782    1.359   .     S
C675   C777    1.458   .     S
C676   O701    1.294   .     A
C676   O699    1.295   .     A
C677   O702    1.294   .     A
C677   O700    1.295   .     A
Cu681  O699    1.971   .     S
Cu681  Cu682   2.701   .     S
Cu681  N687    2.029   .     S
Cu681  O695    1.972   .     S
Cu681  O702    1.962   .     S
Cu681  O698    1.970   .     S
Cu682  N685    2.029   .     S
Cu682  O696    1.972   .     S
Cu682  O701    1.962   .     S
Cu682  O697    1.970   .     S
Cu682  O700    1.971   .     S
N687   N37     1.297   1_556 S
N687   C24     1.386   1_556 S
C703   C728    1.433   .     S
C703   O749    1.290   .     A
C703   O751    1.295   .     A
C704   C706    1.397   .     A
C704   C719    1.455   .     S
C704   C715    1.402   .     A
C705   C732    1.397   .     A
C705   C731    1.454   .     S
C705   C707    1.405   .     A
C706   C708    1.405   .     A
C706   C730    1.454   .     S
C707   C709    1.421   .     A
C707   C720    1.451   .     S
C708   C721    1.451   .     S
C708   C710    1.420   .     A
C709   C711    1.433   .     A
C709   C716    1.424   .     A
C710   C717    1.424   .     A
C710   C712    1.433   .     A
C711   C713    1.416   .     A
C711   C658    1.421   1_655 S
C712   C715    1.416   .     A
C713   C727    1.399   .     A
C713   C732    1.402   .     A
C714   O752    1.295   .     A
C714   O750    1.290   .     A
C714   C729    1.433   .     S
C715   C725    1.399   .     A
C716   Cl733   1.769   .     S
C716   C671    1.383   1_655 S
C717   Cl734   1.769   .     S
C718   N742    1.157   .     T
C718   C732    1.455   .     S
C719   N743    1.157   .     T
C720   N744    1.158   .     T
C721   N745    1.158   .     T
C722   N746    1.158   .     T
C722   C836    1.458   .     S
C723   N747    1.158   .     T
C723   C945    1.458   1_545 S
C724   N748    1.158   .     T
C724   N91     1.386   1_556 S
C725   H737    1.083   .     S
C726   N740    1.158   .     T
C727   H738    1.083   .     S
C727   C663    1.383   1_655 S
C728   C938    1.458   1_545 S
C728   C945    1.359   1_545 S
C729   C836    1.359   .     S
C729   C831    1.458   .     S
C730   O755    1.294   .     A
C730   O753    1.295   .     A
C731   O756    1.294   .     A
C731   O754    1.295   .     A
Cu735  O753    1.971   .     S
Cu735  Cu736   2.701   .     S
Cu735  N741    2.029   .     S
Cu735  O749    1.972   .     S
Cu735  O756    1.962   .     S
Cu735  O752    1.970   .     S
Cu736  N739    2.029   .     S
Cu736  O750    1.972   .     S
Cu736  O755    1.962   .     S
Cu736  O751    1.970   .     S
Cu736  O754    1.971   .     S
N741   N91     1.297   1_556 S
N741   C78     1.386   1_556 S
C757   C782    1.433   .     S
C757   O803    1.290   .     A
C757   O805    1.295   .     A
C758   C760    1.397   .     A
C758   C773    1.455   .     S
C758   C769    1.402   .     A
C759   C786    1.397   .     A
C759   C785    1.454   .     S
C759   C761    1.405   .     A
C760   C762    1.405   .     A
C760   C784    1.454   .     S
C761   C763    1.421   .     A
C761   C774    1.451   .     S
C762   C775    1.451   .     S
C762   C764    1.420   .     A
C763   C765    1.433   .     A
C763   C770    1.424   .     A
C764   C771    1.424   .     A
C764   C766    1.433   .     A
C765   C767    1.416   .     A
C765   C820    1.421   .     S
C766   C769    1.416   .     A
C766   C819    1.421   1_455 S
C767   C781    1.399   .     A
C767   C786    1.402   .     A
C768   O806    1.295   .     A
C768   O804    1.290   .     A
C768   C783    1.433   .     S
C769   C779    1.399   .     A
C770   Cl787   1.769   .     S
C770   C833    1.383   .     S
C771   Cl788   1.769   .     S
C771   C835    1.383   1_455 S
C772   N796    1.157   .     T
C772   C786    1.455   .     S
C773   N797    1.157   .     T
C774   N798    1.158   .     T
C775   N799    1.158   .     T
C776   N800    1.158   .     T
C776   C890    1.458   .     S
C777   N801    1.158   .     T
C778   N802    1.158   .     T
C778   N145    1.386   1_556 S
C779   H791    1.083   .     S
C779   C824    1.383   1_455 S
C780   N794    1.158   .     T
C781   H792    1.083   .     S
C781   C825    1.383   .     S
C783   C890    1.359   .     S
C783   C885    1.458   .     S
C784   O809    1.294   .     A
C784   O807    1.295   .     A
C785   O810    1.294   .     A
C785   O808    1.295   .     A
Cu789  O807    1.971   .     S
Cu789  Cu790   2.701   .     S
Cu789  N795    2.029   .     S
Cu789  O803    1.972   .     S
Cu789  O810    1.962   .     S
Cu789  O806    1.970   .     S
Cu790  N793    2.029   .     S
Cu790  O804    1.972   .     S
Cu790  O809    1.962   .     S
Cu790  O805    1.970   .     S
Cu790  O808    1.971   .     S
N795   N145    1.297   1_556 S
N795   C132    1.386   1_556 S
C811   C836    1.433   .     S
C811   O857    1.290   .     A
C811   O859    1.295   .     A
C812   C814    1.397   .     A
C812   C827    1.455   .     S
C812   C823    1.402   .     A
C813   C840    1.397   .     A
C813   C839    1.454   .     S
C813   C815    1.405   .     A
C814   C816    1.405   .     A
C814   C838    1.454   .     S
C815   C817    1.421   .     A
C815   C828    1.451   .     S
C816   C829    1.451   .     S
C816   C818    1.420   .     A
C817   C819    1.433   .     A
C817   C824    1.424   .     A
C818   C825    1.424   .     A
C818   C820    1.433   .     A
C819   C821    1.416   .     A
C819   C766    1.421   1_655 S
C820   C823    1.416   .     A
C821   C835    1.399   .     A
C821   C840    1.402   .     A
C822   O860    1.295   .     A
C822   O858    1.290   .     A
C822   C837    1.433   .     S
C823   C833    1.399   .     A
C824   Cl841   1.769   .     S
C824   C779    1.383   1_655 S
C825   Cl842   1.769   .     S
C826   N850    1.157   .     T
C826   C840    1.455   .     S
C827   N851    1.157   .     T
C828   N852    1.158   .     T
C829   N853    1.158   .     T
C830   N854    1.158   .     T
C830   C944    1.458   .     S
C831   N855    1.158   .     T
C832   N856    1.158   .     T
C832   N199    1.386   1_556 S
C833   H845    1.083   .     S
C834   N848    1.158   .     T
C835   H846    1.083   .     S
C835   C771    1.383   1_655 S
C837   C944    1.359   .     S
C837   C939    1.458   .     S
C838   O863    1.294   .     A
C838   O861    1.295   .     A
C839   O864    1.294   .     A
C839   O862    1.295   .     A
Cu843  O861    1.971   .     S
Cu843  Cu844   2.701   .     S
Cu843  N849    2.029   .     S
Cu843  O857    1.972   .     S
Cu843  O864    1.962   .     S
Cu843  O860    1.970   .     S
Cu844  N847    2.029   .     S
Cu844  O858    1.972   .     S
Cu844  O863    1.962   .     S
Cu844  O859    1.970   .     S
Cu844  O862    1.971   .     S
N849   N199    1.297   1_556 S
N849   C186    1.386   1_556 S
C865   C890    1.433   .     S
C865   O911    1.290   .     A
C865   O913    1.295   .     A
C866   C868    1.397   .     A
C866   C881    1.455   .     S
C866   C877    1.402   .     A
C867   C894    1.397   .     A
C867   C893    1.454   .     S
C867   C869    1.405   .     A
C868   C870    1.405   .     A
C868   C892    1.454   .     S
C869   C871    1.421   .     A
C869   C882    1.451   .     S
C870   C883    1.451   .     S
C870   C872    1.420   .     A
C871   C873    1.433   .     A
C871   C878    1.424   .     A
C872   C879    1.424   .     A
C872   C874    1.433   .     A
C873   C875    1.416   .     A
C873   C928    1.421   .     S
C874   C877    1.416   .     A
C874   C927    1.421   1_455 S
C875   C889    1.399   .     A
C875   C894    1.402   .     A
C876   O914    1.295   .     A
C876   O912    1.290   .     A
C876   C891    1.433   .     S
C877   C887    1.399   .     A
C878   Cl895   1.769   .     S
C878   C941    1.383   .     S
C879   Cl896   1.769   .     S
C879   C943    1.383   1_455 S
C880   N904    1.157   .     T
C880   C894    1.455   .     S
C881   N905    1.157   .     T
C882   N906    1.158   .     T
C883   N907    1.158   .     T
C884   N908    1.158   .     T
C884   C674    1.458   1_565 S
C885   N909    1.158   .     T
C886   N910    1.158   .     T
C886   N253    1.386   1_556 S
C887   H899    1.083   .     S
C887   C932    1.383   1_455 S
C888   N902    1.158   .     T
C889   H900    1.083   .     S
C889   C933    1.383   .     S
C891   C674    1.359   1_565 S
C891   C669    1.458   1_565 S
C892   O917    1.294   .     A
C892   O915    1.295   .     A
C893   O918    1.294   .     A
C893   O916    1.295   .     A
Cu897  O915    1.971   .     S
Cu897  Cu898   2.701   .     S
Cu897  N903    2.029   .     S
Cu897  O911    1.972   .     S
Cu897  O918    1.962   .     S
Cu897  O914    1.970   .     S
Cu898  N901    2.029   .     S
Cu898  O912    1.972   .     S
Cu898  O917    1.962   .     S
Cu898  O913    1.970   .     S
Cu898  O916    1.971   .     S
N903   N253    1.297   1_556 S
N903   C240    1.386   1_556 S
C919   C944    1.433   .     S
C919   O965    1.290   .     A
C919   O967    1.295   .     A
C920   C922    1.397   .     A
C920   C935    1.455   .     S
C920   C931    1.402   .     A
C921   C948    1.397   .     A
C921   C947    1.454   .     S
C921   C923    1.405   .     A
C922   C924    1.405   .     A
C922   C946    1.454   .     S
C923   C925    1.421   .     A
C923   C936    1.451   .     S
C924   C937    1.451   .     S
C924   C926    1.420   .     A
C925   C927    1.433   .     A
C925   C932    1.424   .     A
C926   C933    1.424   .     A
C926   C928    1.433   .     A
C927   C929    1.416   .     A
C927   C874    1.421   1_655 S
C928   C931    1.416   .     A
C929   C943    1.399   .     A
C929   C948    1.402   .     A
C930   O968    1.295   .     A
C930   O966    1.290   .     A
C930   C945    1.433   .     S
C931   C941    1.399   .     A
C932   Cl949   1.769   .     S
C932   C887    1.383   1_655 S
C933   Cl950   1.769   .     S
C934   N958    1.157   .     T
C934   C948    1.455   .     S
C935   N959    1.157   .     T
C936   N960    1.158   .     T
C937   N961    1.158   .     T
C938   N962    1.158   .     T
C938   C728    1.458   1_565 S
C939   N963    1.158   .     T
C940   N964    1.158   .     T
C940   N307    1.386   1_556 S
C941   H953    1.083   .     S
C942   N956    1.158   .     T
C943   H954    1.083   .     S
C943   C879    1.383   1_655 S
C945   C728    1.359   1_565 S
C945   C723    1.458   1_565 S
C946   O971    1.294   .     A
C946   O969    1.295   .     A
C947   O972    1.294   .     A
C947   O970    1.295   .     A
Cu951  O969    1.971   .     S
Cu951  Cu952   2.701   .     S
Cu951  N957    2.029   .     S
Cu951  O965    1.972   .     S
Cu951  O972    1.962   .     S
Cu951  O968    1.970   .     S
Cu952  N955    2.029   .     S
Cu952  O966    1.972   .     S
Cu952  O971    1.962   .     S
Cu952  O967    1.970   .     S
Cu952  O970    1.971   .     S
N957   N307    1.297   1_556 S
N957   C294    1.386   1_556 S
