data_str_m2_o10_o18_pcu_sym.68
_audit_creation_date              2020-01-03
_audit_creation_method            'Materials Studio'
_symmetry_space_group_name_H-M    'P1'
_symmetry_Int_Tables_number       1
_symmetry_cell_setting            triclinic
loop_
_symmetry_equiv_pos_as_xyz
  x,y,z
_cell_length_a                    22.4882
_cell_length_b                    26.0240
_cell_length_c                    31.6399
_cell_angle_alpha                 94.8897
_cell_angle_beta                  75.7517
_cell_angle_gamma                 102.8010
loop_
_atom_site_label
_atom_site_type_symbol
_atom_site_fract_x
_atom_site_fract_y
_atom_site_fract_z
_atom_site_U_iso_or_equiv
_atom_site_adp_type
_atom_site_occupancy
C1     C     0.18152   0.26661   0.25144   0.00000  Uiso   1.00
C2     C     0.20487   0.17067   0.16711   0.00000  Uiso   1.00
C3     C     0.10560   0.15888   0.38040   0.00000  Uiso   1.00
C4     C     0.22768   0.17813   0.12007   0.00000  Uiso   1.00
C5     C     0.02426   0.12825   0.44387   0.00000  Uiso   1.00
C6     C     0.30535   0.21965   0.05884   0.00000  Uiso   1.00
C7     C     0.04280   0.13740   0.39935   0.00000  Uiso   1.00
C8     C     0.28841   0.20587   0.10239   0.00000  Uiso   1.00
C9     C     0.14873   0.17372   0.40664   0.00000  Uiso   1.00
C10    C     0.18517   0.16226   0.09351   0.00000  Uiso   1.00
C11    C     0.13111   0.16592   0.45178   0.00000  Uiso   1.00
C12    C     0.15186   0.06673   0.24848   0.00000  Uiso   1.00
C13    C     0.20005   0.17750   0.04997   0.00000  Uiso   1.00
C14    C     0.06805   0.14133   0.46997   0.00000  Uiso   1.00
C15    C     0.26163   0.20617   0.03269   0.00000  Uiso   1.00
C16    C     0.17473   0.18013   0.47893   0.00000  Uiso   1.00
C17    C     0.15547   0.16572   0.02344   0.00000  Uiso   1.00
C18    C     0.31415   0.23488   0.32040   0.00000  Uiso   1.00
C19    C     0.02357   0.27664   0.34218   0.00000  Uiso   1.00
C20    C     0.01991   0.09908   0.17921   0.00000  Uiso   1.00
C21    C     0.31073   0.05810   0.15664   0.00000  Uiso   1.00
C22    C     0.09197   0.14115   0.04015   0.00000  Uiso   1.00
C23    C     0.23662   0.20896   0.46323   0.00000  Uiso   1.00
C24    C     0.04934   0.12946   0.01388   0.00000  Uiso   1.00
C25    C     0.27890   0.22178   0.48970   0.00000  Uiso   1.00
C26    C     0.18968   0.32258   0.25247   0.00000  Uiso   1.00
C27    C     0.14378   0.01075   0.24730   0.00000  Uiso   1.00
C28    C     0.12848   0.16304   0.33295   0.00000  Uiso   1.00
Cu29   Cu    0.10737   0.16108   0.24516   0.00000  Uiso   1.00
Cu30   Cu    0.22596   0.17225   0.25483   0.00000  Uiso   1.00
H31    H     0.00118   0.11080   0.02815   0.00000  Uiso   1.00
H32    H     0.25385   0.22370   0.43079   0.00000  Uiso   1.00
H33    H     0.23388   0.01288   0.25754   0.00000  Uiso   1.00
H34    H     0.09961   0.32046   0.24219   0.00000  Uiso   1.00
H35    H     0.30213   0.19822   0.33929   0.00000  Uiso   1.00
H36    H     0.27115   0.24966   0.32160   0.00000  Uiso   1.00
H37    H     0.03546   0.31426   0.32487   0.00000  Uiso   1.00
H38    H     0.33287   0.28360   0.37662   0.00000  Uiso   1.00
H39    H     0.06746   0.26339   0.34157   0.00000  Uiso   1.00
H40    H     0.06241   0.08370   0.17832   0.00000  Uiso   1.00
H41    H     0.03285   0.13604   0.16061   0.00000  Uiso   1.00
H42    H     0.32571   0.24408   0.47628   0.00000  Uiso   1.00
H43    H     0.26707   0.07169   0.15723   0.00000  Uiso   1.00
H44    H     0.00189   0.05184   0.12217   0.00000  Uiso   1.00
H45    H     0.29835   0.02006   0.17339   0.00000  Uiso   1.00
H46    H     0.14041   0.13843   0.10808   0.00000  Uiso   1.00
H47    H     0.19649   0.18952   0.39059   0.00000  Uiso   1.00
H48    H     0.32196   0.21843   0.12251   0.00000  Uiso   1.00
H49    H     0.00865   0.12585   0.37960   0.00000  Uiso   1.00
H50    H     0.30914   0.11015   0.45782   0.00000  Uiso   1.00
H51    H     0.01906   0.24166   0.04574   0.00000  Uiso   1.00
H52    H     0.07275   0.13136   0.07380   0.00000  Uiso   1.00
N53    N     0.31506   0.18068   0.26212   0.00000  Uiso   1.00
N54    N     0.01827   0.15265   0.23788   0.00000  Uiso   1.00
O55    O     0.12815   0.23809   0.24686   0.00000  Uiso   1.00
O56    O     0.32128   0.10717   0.22260   0.00000  Uiso   1.00
O57    O     0.20518   0.09524   0.25314   0.00000  Uiso   1.00
O58    O     0.22829   0.24753   0.25502   0.00000  Uiso   1.00
O59    O     0.10504   0.08580   0.24498   0.00000  Uiso   1.00
O60    O     0.08851   0.15930   0.30854   0.00000  Uiso   1.00
O61    O     0.24482   0.17403   0.19145   0.00000  Uiso   1.00
O62    O     0.18866   0.16874   0.31671   0.00000  Uiso   1.00
O63    O     0.14468   0.16460   0.18329   0.00000  Uiso   1.00
O64    O     0.01210   0.22647   0.27690   0.00000  Uiso   1.00
C65    C     0.51486   0.26661   0.25144   0.00000  Uiso   1.00
C66    C     0.53820   0.17067   0.16711   0.00000  Uiso   1.00
C67    C     0.43893   0.15888   0.38040   0.00000  Uiso   1.00
C68    C     0.56102   0.17813   0.12007   0.00000  Uiso   1.00
C69    C     0.35759   0.12825   0.44387   0.00000  Uiso   1.00
C70    C     0.63868   0.21965   0.05884   0.00000  Uiso   1.00
C71    C     0.37614   0.13740   0.39935   0.00000  Uiso   1.00
C72    C     0.62174   0.20587   0.10239   0.00000  Uiso   1.00
C73    C     0.48206   0.17372   0.40664   0.00000  Uiso   1.00
C74    C     0.51851   0.16226   0.09351   0.00000  Uiso   1.00
C75    C     0.46444   0.16592   0.45178   0.00000  Uiso   1.00
C76    C     0.48519   0.06673   0.24848   0.00000  Uiso   1.00
C77    C     0.53338   0.17750   0.04997   0.00000  Uiso   1.00
C78    C     0.40139   0.14133   0.46997   0.00000  Uiso   1.00
C79    C     0.59496   0.20617   0.03269   0.00000  Uiso   1.00
C80    C     0.50807   0.18013   0.47893   0.00000  Uiso   1.00
C81    C     0.48880   0.16572   0.02344   0.00000  Uiso   1.00
C82    C     0.64749   0.23488   0.32040   0.00000  Uiso   1.00
C83    C     0.35690   0.27664   0.34218   0.00000  Uiso   1.00
C84    C     0.35324   0.09908   0.17921   0.00000  Uiso   1.00
C85    C     0.64406   0.05810   0.15664   0.00000  Uiso   1.00
C86    C     0.42530   0.14115   0.04015   0.00000  Uiso   1.00
C87    C     0.56996   0.20896   0.46323   0.00000  Uiso   1.00
C88    C     0.38267   0.12946   0.01388   0.00000  Uiso   1.00
C89    C     0.61224   0.22178   0.48970   0.00000  Uiso   1.00
C90    C     0.52302   0.32258   0.25247   0.00000  Uiso   1.00
C91    C     0.47712   0.01075   0.24730   0.00000  Uiso   1.00
C92    C     0.46181   0.16304   0.33295   0.00000  Uiso   1.00
Cu93   Cu    0.44071   0.16108   0.24516   0.00000  Uiso   1.00
Cu94   Cu    0.55929   0.17225   0.25483   0.00000  Uiso   1.00
H95    H     0.33451   0.11080   0.02815   0.00000  Uiso   1.00
H96    H     0.58718   0.22370   0.43079   0.00000  Uiso   1.00
H97    H     0.56721   0.01288   0.25754   0.00000  Uiso   1.00
H98    H     0.43294   0.32046   0.24219   0.00000  Uiso   1.00
H99    H     0.63546   0.19822   0.33929   0.00000  Uiso   1.00
H100   H     0.60448   0.24966   0.32160   0.00000  Uiso   1.00
H101   H     0.36880   0.31426   0.32487   0.00000  Uiso   1.00
H102   H     0.66620   0.28360   0.37662   0.00000  Uiso   1.00
H103   H     0.40079   0.26339   0.34157   0.00000  Uiso   1.00
H104   H     0.39574   0.08370   0.17832   0.00000  Uiso   1.00
H105   H     0.36619   0.13604   0.16061   0.00000  Uiso   1.00
H106   H     0.65904   0.24408   0.47628   0.00000  Uiso   1.00
H107   H     0.60041   0.07169   0.15723   0.00000  Uiso   1.00
H108   H     0.33522   0.05184   0.12217   0.00000  Uiso   1.00
H109   H     0.63169   0.02006   0.17339   0.00000  Uiso   1.00
H110   H     0.47375   0.13843   0.10808   0.00000  Uiso   1.00
H111   H     0.52982   0.18952   0.39059   0.00000  Uiso   1.00
H112   H     0.65529   0.21843   0.12251   0.00000  Uiso   1.00
H113   H     0.34198   0.12585   0.37960   0.00000  Uiso   1.00
H114   H     0.64247   0.11015   0.45782   0.00000  Uiso   1.00
H115   H     0.35239   0.24166   0.04574   0.00000  Uiso   1.00
H116   H     0.40609   0.13136   0.07380   0.00000  Uiso   1.00
N117   N     0.64839   0.18068   0.26212   0.00000  Uiso   1.00
N118   N     0.35161   0.15265   0.23788   0.00000  Uiso   1.00
O119   O     0.46148   0.23809   0.24686   0.00000  Uiso   1.00
O120   O     0.65461   0.10717   0.22260   0.00000  Uiso   1.00
O121   O     0.53852   0.09524   0.25314   0.00000  Uiso   1.00
O122   O     0.56163   0.24753   0.25502   0.00000  Uiso   1.00
O123   O     0.43837   0.08580   0.24498   0.00000  Uiso   1.00
O124   O     0.42185   0.15930   0.30854   0.00000  Uiso   1.00
O125   O     0.57815   0.17403   0.19145   0.00000  Uiso   1.00
O126   O     0.52199   0.16874   0.31671   0.00000  Uiso   1.00
O127   O     0.47801   0.16460   0.18329   0.00000  Uiso   1.00
O128   O     0.34544   0.22647   0.27690   0.00000  Uiso   1.00
C129   C     0.84819   0.26661   0.25144   0.00000  Uiso   1.00
C130   C     0.87153   0.17067   0.16711   0.00000  Uiso   1.00
C131   C     0.77226   0.15888   0.38040   0.00000  Uiso   1.00
C132   C     0.89435   0.17813   0.12007   0.00000  Uiso   1.00
C133   C     0.69093   0.12825   0.44387   0.00000  Uiso   1.00
C134   C     0.97201   0.21965   0.05884   0.00000  Uiso   1.00
C135   C     0.70947   0.13740   0.39935   0.00000  Uiso   1.00
C136   C     0.95507   0.20587   0.10239   0.00000  Uiso   1.00
C137   C     0.81539   0.17372   0.40664   0.00000  Uiso   1.00
C138   C     0.85184   0.16226   0.09351   0.00000  Uiso   1.00
C139   C     0.79777   0.16592   0.45178   0.00000  Uiso   1.00
C140   C     0.81852   0.06673   0.24848   0.00000  Uiso   1.00
C141   C     0.86672   0.17750   0.04997   0.00000  Uiso   1.00
C142   C     0.73472   0.14133   0.46997   0.00000  Uiso   1.00
C143   C     0.92830   0.20617   0.03269   0.00000  Uiso   1.00
C144   C     0.84140   0.18013   0.47893   0.00000  Uiso   1.00
C145   C     0.82213   0.16572   0.02344   0.00000  Uiso   1.00
C146   C     0.98082   0.23488   0.32040   0.00000  Uiso   1.00
C147   C     0.69024   0.27664   0.34218   0.00000  Uiso   1.00
C148   C     0.68657   0.09908   0.17921   0.00000  Uiso   1.00
C149   C     0.97739   0.05810   0.15664   0.00000  Uiso   1.00
C150   C     0.75864   0.14115   0.04015   0.00000  Uiso   1.00
C151   C     0.90329   0.20896   0.46323   0.00000  Uiso   1.00
C152   C     0.71601   0.12946   0.01388   0.00000  Uiso   1.00
C153   C     0.94557   0.22178   0.48970   0.00000  Uiso   1.00
C154   C     0.85635   0.32258   0.25247   0.00000  Uiso   1.00
C155   C     0.81045   0.01075   0.24730   0.00000  Uiso   1.00
C156   C     0.79514   0.16304   0.33295   0.00000  Uiso   1.00
Cu157  Cu    0.77404   0.16108   0.24516   0.00000  Uiso   1.00
Cu158  Cu    0.89263   0.17225   0.25483   0.00000  Uiso   1.00
H159   H     0.66784   0.11080   0.02815   0.00000  Uiso   1.00
H160   H     0.92051   0.22370   0.43079   0.00000  Uiso   1.00
H161   H     0.90054   0.01288   0.25754   0.00000  Uiso   1.00
H162   H     0.76627   0.32046   0.24219   0.00000  Uiso   1.00
H163   H     0.96880   0.19822   0.33929   0.00000  Uiso   1.00
H164   H     0.93782   0.24966   0.32160   0.00000  Uiso   1.00
H165   H     0.70213   0.31426   0.32487   0.00000  Uiso   1.00
H166   H     0.99954   0.28360   0.37662   0.00000  Uiso   1.00
H167   H     0.73413   0.26339   0.34157   0.00000  Uiso   1.00
H168   H     0.72908   0.08370   0.17832   0.00000  Uiso   1.00
H169   H     0.69952   0.13604   0.16061   0.00000  Uiso   1.00
H170   H     0.99237   0.24408   0.47628   0.00000  Uiso   1.00
H171   H     0.93374   0.07169   0.15723   0.00000  Uiso   1.00
H172   H     0.66855   0.05184   0.12217   0.00000  Uiso   1.00
H173   H     0.96502   0.02006   0.17339   0.00000  Uiso   1.00
H174   H     0.80708   0.13843   0.10808   0.00000  Uiso   1.00
H175   H     0.86315   0.18952   0.39059   0.00000  Uiso   1.00
H176   H     0.98863   0.21843   0.12251   0.00000  Uiso   1.00
H177   H     0.67532   0.12585   0.37960   0.00000  Uiso   1.00
H178   H     0.97581   0.11015   0.45782   0.00000  Uiso   1.00
H179   H     0.68572   0.24166   0.04574   0.00000  Uiso   1.00
H180   H     0.73942   0.13136   0.07380   0.00000  Uiso   1.00
N181   N     0.98173   0.18068   0.26212   0.00000  Uiso   1.00
N182   N     0.68494   0.15265   0.23788   0.00000  Uiso   1.00
O183   O     0.79482   0.23809   0.24686   0.00000  Uiso   1.00
O184   O     0.98794   0.10717   0.22260   0.00000  Uiso   1.00
O185   O     0.87185   0.09524   0.25314   0.00000  Uiso   1.00
O186   O     0.89496   0.24753   0.25502   0.00000  Uiso   1.00
O187   O     0.77171   0.08580   0.24498   0.00000  Uiso   1.00
O188   O     0.75518   0.15930   0.30854   0.00000  Uiso   1.00
O189   O     0.91149   0.17403   0.19145   0.00000  Uiso   1.00
O190   O     0.85532   0.16874   0.31671   0.00000  Uiso   1.00
O191   O     0.81134   0.16460   0.18329   0.00000  Uiso   1.00
O192   O     0.67877   0.22647   0.27690   0.00000  Uiso   1.00
C193   C     0.18152   0.59994   0.25144   0.00000  Uiso   1.00
C194   C     0.20487   0.50400   0.16711   0.00000  Uiso   1.00
C195   C     0.10560   0.49222   0.38040   0.00000  Uiso   1.00
C196   C     0.22768   0.51146   0.12007   0.00000  Uiso   1.00
C197   C     0.02426   0.46158   0.44387   0.00000  Uiso   1.00
C198   C     0.30535   0.55298   0.05884   0.00000  Uiso   1.00
C199   C     0.04280   0.47073   0.39935   0.00000  Uiso   1.00
C200   C     0.28841   0.53920   0.10239   0.00000  Uiso   1.00
C201   C     0.14873   0.50706   0.40664   0.00000  Uiso   1.00
C202   C     0.18517   0.49560   0.09351   0.00000  Uiso   1.00
C203   C     0.13111   0.49925   0.45178   0.00000  Uiso   1.00
C204   C     0.15186   0.40006   0.24848   0.00000  Uiso   1.00
C205   C     0.20005   0.51083   0.04997   0.00000  Uiso   1.00
C206   C     0.06805   0.47466   0.46997   0.00000  Uiso   1.00
C207   C     0.26163   0.53951   0.03269   0.00000  Uiso   1.00
C208   C     0.17473   0.51346   0.47893   0.00000  Uiso   1.00
C209   C     0.15547   0.49905   0.02344   0.00000  Uiso   1.00
C210   C     0.31415   0.56821   0.32040   0.00000  Uiso   1.00
C211   C     0.02357   0.60997   0.34218   0.00000  Uiso   1.00
C212   C     0.01991   0.43241   0.17921   0.00000  Uiso   1.00
C213   C     0.31073   0.39143   0.15664   0.00000  Uiso   1.00
C214   C     0.09197   0.47449   0.04015   0.00000  Uiso   1.00
C215   C     0.23662   0.54229   0.46323   0.00000  Uiso   1.00
C216   C     0.04934   0.46279   0.01388   0.00000  Uiso   1.00
C217   C     0.27890   0.55511   0.48970   0.00000  Uiso   1.00
C218   C     0.18968   0.65592   0.25247   0.00000  Uiso   1.00
C219   C     0.14378   0.34409   0.24730   0.00000  Uiso   1.00
C220   C     0.12848   0.49637   0.33295   0.00000  Uiso   1.00
Cu221  Cu    0.10737   0.49441   0.24516   0.00000  Uiso   1.00
Cu222  Cu    0.22596   0.50559   0.25483   0.00000  Uiso   1.00
H223   H     0.00118   0.44414   0.02815   0.00000  Uiso   1.00
H224   H     0.25385   0.55703   0.43079   0.00000  Uiso   1.00
H225   H     0.23388   0.34621   0.25754   0.00000  Uiso   1.00
H226   H     0.09961   0.65379   0.24219   0.00000  Uiso   1.00
H227   H     0.30213   0.53155   0.33929   0.00000  Uiso   1.00
H228   H     0.27115   0.58300   0.32160   0.00000  Uiso   1.00
H229   H     0.03546   0.64759   0.32487   0.00000  Uiso   1.00
H230   H     0.33287   0.61693   0.37662   0.00000  Uiso   1.00
H231   H     0.06746   0.59673   0.34157   0.00000  Uiso   1.00
H232   H     0.06241   0.41703   0.17832   0.00000  Uiso   1.00
H233   H     0.03285   0.46937   0.16061   0.00000  Uiso   1.00
H234   H     0.32571   0.57741   0.47628   0.00000  Uiso   1.00
H235   H     0.26707   0.40503   0.15723   0.00000  Uiso   1.00
H236   H     0.00189   0.38517   0.12217   0.00000  Uiso   1.00
H237   H     0.29835   0.35339   0.17339   0.00000  Uiso   1.00
H238   H     0.14041   0.47176   0.10808   0.00000  Uiso   1.00
H239   H     0.19649   0.52286   0.39059   0.00000  Uiso   1.00
H240   H     0.32196   0.55176   0.12251   0.00000  Uiso   1.00
H241   H     0.00865   0.45918   0.37960   0.00000  Uiso   1.00
H242   H     0.30914   0.44349   0.45782   0.00000  Uiso   1.00
H243   H     0.01906   0.57499   0.04574   0.00000  Uiso   1.00
H244   H     0.07275   0.46469   0.07380   0.00000  Uiso   1.00
N245   N     0.31506   0.51401   0.26212   0.00000  Uiso   1.00
N246   N     0.01827   0.48599   0.23788   0.00000  Uiso   1.00
O247   O     0.12815   0.57142   0.24686   0.00000  Uiso   1.00
O248   O     0.32128   0.44051   0.22260   0.00000  Uiso   1.00
O249   O     0.20518   0.42858   0.25314   0.00000  Uiso   1.00
O250   O     0.22829   0.58086   0.25502   0.00000  Uiso   1.00
O251   O     0.10504   0.41914   0.24498   0.00000  Uiso   1.00
O252   O     0.08851   0.49263   0.30854   0.00000  Uiso   1.00
O253   O     0.24482   0.50737   0.19145   0.00000  Uiso   1.00
O254   O     0.18866   0.50207   0.31671   0.00000  Uiso   1.00
O255   O     0.14468   0.49793   0.18329   0.00000  Uiso   1.00
O256   O     0.01210   0.55980   0.27690   0.00000  Uiso   1.00
C257   C     0.51486   0.59994   0.25144   0.00000  Uiso   1.00
C258   C     0.53820   0.50400   0.16711   0.00000  Uiso   1.00
C259   C     0.43893   0.49222   0.38040   0.00000  Uiso   1.00
C260   C     0.56102   0.51146   0.12007   0.00000  Uiso   1.00
C261   C     0.35759   0.46158   0.44387   0.00000  Uiso   1.00
C262   C     0.63868   0.55298   0.05884   0.00000  Uiso   1.00
C263   C     0.37614   0.47073   0.39935   0.00000  Uiso   1.00
C264   C     0.62174   0.53920   0.10239   0.00000  Uiso   1.00
C265   C     0.48206   0.50706   0.40664   0.00000  Uiso   1.00
C266   C     0.51851   0.49560   0.09351   0.00000  Uiso   1.00
C267   C     0.46444   0.49925   0.45178   0.00000  Uiso   1.00
C268   C     0.48519   0.40006   0.24848   0.00000  Uiso   1.00
C269   C     0.53338   0.51083   0.04997   0.00000  Uiso   1.00
C270   C     0.40139   0.47466   0.46997   0.00000  Uiso   1.00
C271   C     0.59496   0.53951   0.03269   0.00000  Uiso   1.00
C272   C     0.50807   0.51346   0.47893   0.00000  Uiso   1.00
C273   C     0.48880   0.49905   0.02344   0.00000  Uiso   1.00
C274   C     0.64749   0.56821   0.32040   0.00000  Uiso   1.00
C275   C     0.35690   0.60997   0.34218   0.00000  Uiso   1.00
C276   C     0.35324   0.43241   0.17921   0.00000  Uiso   1.00
C277   C     0.64406   0.39143   0.15664   0.00000  Uiso   1.00
C278   C     0.42530   0.47449   0.04015   0.00000  Uiso   1.00
C279   C     0.56996   0.54229   0.46323   0.00000  Uiso   1.00
C280   C     0.38267   0.46279   0.01388   0.00000  Uiso   1.00
C281   C     0.61224   0.55511   0.48970   0.00000  Uiso   1.00
C282   C     0.52302   0.65592   0.25247   0.00000  Uiso   1.00
C283   C     0.47712   0.34409   0.24730   0.00000  Uiso   1.00
C284   C     0.46181   0.49637   0.33295   0.00000  Uiso   1.00
Cu285  Cu    0.44071   0.49441   0.24516   0.00000  Uiso   1.00
Cu286  Cu    0.55929   0.50559   0.25483   0.00000  Uiso   1.00
H287   H     0.33451   0.44414   0.02815   0.00000  Uiso   1.00
H288   H     0.58718   0.55703   0.43079   0.00000  Uiso   1.00
H289   H     0.56721   0.34621   0.25754   0.00000  Uiso   1.00
H290   H     0.43294   0.65379   0.24219   0.00000  Uiso   1.00
H291   H     0.63546   0.53155   0.33929   0.00000  Uiso   1.00
H292   H     0.60448   0.58300   0.32160   0.00000  Uiso   1.00
H293   H     0.36880   0.64759   0.32487   0.00000  Uiso   1.00
H294   H     0.66620   0.61693   0.37662   0.00000  Uiso   1.00
H295   H     0.40079   0.59673   0.34157   0.00000  Uiso   1.00
H296   H     0.39574   0.41703   0.17832   0.00000  Uiso   1.00
H297   H     0.36619   0.46937   0.16061   0.00000  Uiso   1.00
H298   H     0.65904   0.57741   0.47628   0.00000  Uiso   1.00
H299   H     0.60041   0.40503   0.15723   0.00000  Uiso   1.00
H300   H     0.33522   0.38517   0.12217   0.00000  Uiso   1.00
H301   H     0.63169   0.35339   0.17339   0.00000  Uiso   1.00
H302   H     0.47375   0.47176   0.10808   0.00000  Uiso   1.00
H303   H     0.52982   0.52286   0.39059   0.00000  Uiso   1.00
H304   H     0.65529   0.55176   0.12251   0.00000  Uiso   1.00
H305   H     0.34198   0.45918   0.37960   0.00000  Uiso   1.00
H306   H     0.64247   0.44349   0.45782   0.00000  Uiso   1.00
H307   H     0.35239   0.57499   0.04574   0.00000  Uiso   1.00
H308   H     0.40609   0.46469   0.07380   0.00000  Uiso   1.00
N309   N     0.64839   0.51401   0.26212   0.00000  Uiso   1.00
N310   N     0.35161   0.48599   0.23788   0.00000  Uiso   1.00
O311   O     0.46148   0.57142   0.24686   0.00000  Uiso   1.00
O312   O     0.65461   0.44051   0.22260   0.00000  Uiso   1.00
O313   O     0.53852   0.42858   0.25314   0.00000  Uiso   1.00
O314   O     0.56163   0.58086   0.25502   0.00000  Uiso   1.00
O315   O     0.43837   0.41914   0.24498   0.00000  Uiso   1.00
O316   O     0.42185   0.49263   0.30854   0.00000  Uiso   1.00
O317   O     0.57815   0.50737   0.19145   0.00000  Uiso   1.00
O318   O     0.52199   0.50207   0.31671   0.00000  Uiso   1.00
O319   O     0.47801   0.49793   0.18329   0.00000  Uiso   1.00
O320   O     0.34544   0.55980   0.27690   0.00000  Uiso   1.00
C321   C     0.84819   0.59994   0.25144   0.00000  Uiso   1.00
C322   C     0.87153   0.50400   0.16711   0.00000  Uiso   1.00
C323   C     0.77226   0.49222   0.38040   0.00000  Uiso   1.00
C324   C     0.89435   0.51146   0.12007   0.00000  Uiso   1.00
C325   C     0.69093   0.46158   0.44387   0.00000  Uiso   1.00
C326   C     0.97201   0.55298   0.05884   0.00000  Uiso   1.00
C327   C     0.70947   0.47073   0.39935   0.00000  Uiso   1.00
C328   C     0.95507   0.53920   0.10239   0.00000  Uiso   1.00
C329   C     0.81539   0.50706   0.40664   0.00000  Uiso   1.00
C330   C     0.85184   0.49560   0.09351   0.00000  Uiso   1.00
C331   C     0.79777   0.49925   0.45178   0.00000  Uiso   1.00
C332   C     0.81852   0.40006   0.24848   0.00000  Uiso   1.00
C333   C     0.86672   0.51083   0.04997   0.00000  Uiso   1.00
C334   C     0.73472   0.47466   0.46997   0.00000  Uiso   1.00
C335   C     0.92830   0.53951   0.03269   0.00000  Uiso   1.00
C336   C     0.84140   0.51346   0.47893   0.00000  Uiso   1.00
C337   C     0.82213   0.49905   0.02344   0.00000  Uiso   1.00
C338   C     0.98082   0.56821   0.32040   0.00000  Uiso   1.00
C339   C     0.69024   0.60997   0.34218   0.00000  Uiso   1.00
C340   C     0.68657   0.43241   0.17921   0.00000  Uiso   1.00
C341   C     0.97739   0.39143   0.15664   0.00000  Uiso   1.00
C342   C     0.75864   0.47449   0.04015   0.00000  Uiso   1.00
C343   C     0.90329   0.54229   0.46323   0.00000  Uiso   1.00
C344   C     0.71601   0.46279   0.01388   0.00000  Uiso   1.00
C345   C     0.94557   0.55511   0.48970   0.00000  Uiso   1.00
C346   C     0.85635   0.65592   0.25247   0.00000  Uiso   1.00
C347   C     0.81045   0.34409   0.24730   0.00000  Uiso   1.00
C348   C     0.79514   0.49637   0.33295   0.00000  Uiso   1.00
Cu349  Cu    0.77404   0.49441   0.24516   0.00000  Uiso   1.00
Cu350  Cu    0.89263   0.50559   0.25483   0.00000  Uiso   1.00
H351   H     0.66784   0.44414   0.02815   0.00000  Uiso   1.00
H352   H     0.92051   0.55703   0.43079   0.00000  Uiso   1.00
H353   H     0.90054   0.34621   0.25754   0.00000  Uiso   1.00
H354   H     0.76627   0.65379   0.24219   0.00000  Uiso   1.00
H355   H     0.96880   0.53155   0.33929   0.00000  Uiso   1.00
H356   H     0.93782   0.58300   0.32160   0.00000  Uiso   1.00
H357   H     0.70213   0.64759   0.32487   0.00000  Uiso   1.00
H358   H     0.99954   0.61693   0.37662   0.00000  Uiso   1.00
H359   H     0.73413   0.59673   0.34157   0.00000  Uiso   1.00
H360   H     0.72908   0.41703   0.17832   0.00000  Uiso   1.00
H361   H     0.69952   0.46937   0.16061   0.00000  Uiso   1.00
H362   H     0.99237   0.57741   0.47628   0.00000  Uiso   1.00
H363   H     0.93374   0.40503   0.15723   0.00000  Uiso   1.00
H364   H     0.66855   0.38517   0.12217   0.00000  Uiso   1.00
H365   H     0.96502   0.35339   0.17339   0.00000  Uiso   1.00
H366   H     0.80708   0.47176   0.10808   0.00000  Uiso   1.00
H367   H     0.86315   0.52286   0.39059   0.00000  Uiso   1.00
H368   H     0.98863   0.55176   0.12251   0.00000  Uiso   1.00
H369   H     0.67532   0.45918   0.37960   0.00000  Uiso   1.00
H370   H     0.97581   0.44349   0.45782   0.00000  Uiso   1.00
H371   H     0.68572   0.57499   0.04574   0.00000  Uiso   1.00
H372   H     0.73942   0.46469   0.07380   0.00000  Uiso   1.00
N373   N     0.98173   0.51401   0.26212   0.00000  Uiso   1.00
N374   N     0.68494   0.48599   0.23788   0.00000  Uiso   1.00
O375   O     0.79482   0.57142   0.24686   0.00000  Uiso   1.00
O376   O     0.98794   0.44051   0.22260   0.00000  Uiso   1.00
O377   O     0.87185   0.42858   0.25314   0.00000  Uiso   1.00
O378   O     0.89496   0.58086   0.25502   0.00000  Uiso   1.00
O379   O     0.77171   0.41914   0.24498   0.00000  Uiso   1.00
O380   O     0.75518   0.49263   0.30854   0.00000  Uiso   1.00
O381   O     0.91149   0.50737   0.19145   0.00000  Uiso   1.00
O382   O     0.85532   0.50207   0.31671   0.00000  Uiso   1.00
O383   O     0.81134   0.49793   0.18329   0.00000  Uiso   1.00
O384   O     0.67877   0.55980   0.27690   0.00000  Uiso   1.00
C385   C     0.18152   0.93327   0.25144   0.00000  Uiso   1.00
C386   C     0.20487   0.83734   0.16711   0.00000  Uiso   1.00
C387   C     0.10560   0.82555   0.38040   0.00000  Uiso   1.00
C388   C     0.22768   0.84480   0.12007   0.00000  Uiso   1.00
C389   C     0.02426   0.79492   0.44387   0.00000  Uiso   1.00
C390   C     0.30535   0.88631   0.05884   0.00000  Uiso   1.00
C391   C     0.04280   0.80407   0.39935   0.00000  Uiso   1.00
C392   C     0.28841   0.87254   0.10239   0.00000  Uiso   1.00
C393   C     0.14873   0.84039   0.40664   0.00000  Uiso   1.00
C394   C     0.18517   0.82893   0.09351   0.00000  Uiso   1.00
C395   C     0.13111   0.83258   0.45178   0.00000  Uiso   1.00
C396   C     0.15186   0.73340   0.24848   0.00000  Uiso   1.00
C397   C     0.20005   0.84416   0.04997   0.00000  Uiso   1.00
C398   C     0.06805   0.80800   0.46997   0.00000  Uiso   1.00
C399   C     0.26163   0.87284   0.03269   0.00000  Uiso   1.00
C400   C     0.17473   0.84679   0.47893   0.00000  Uiso   1.00
C401   C     0.15547   0.83239   0.02344   0.00000  Uiso   1.00
C402   C     0.31415   0.90154   0.32040   0.00000  Uiso   1.00
C403   C     0.02357   0.94330   0.34218   0.00000  Uiso   1.00
C404   C     0.01991   0.76575   0.17921   0.00000  Uiso   1.00
C405   C     0.31073   0.72476   0.15664   0.00000  Uiso   1.00
C406   C     0.09197   0.80782   0.04015   0.00000  Uiso   1.00
C407   C     0.23662   0.87563   0.46323   0.00000  Uiso   1.00
C408   C     0.04934   0.79613   0.01388   0.00000  Uiso   1.00
C409   C     0.27890   0.88845   0.48970   0.00000  Uiso   1.00
C410   C     0.18968   0.98925   0.25247   0.00000  Uiso   1.00
C411   C     0.14378   0.67742   0.24730   0.00000  Uiso   1.00
C412   C     0.12848   0.82971   0.33295   0.00000  Uiso   1.00
Cu413  Cu    0.10737   0.82775   0.24516   0.00000  Uiso   1.00
Cu414  Cu    0.22596   0.83892   0.25483   0.00000  Uiso   1.00
H415   H     0.00118   0.77747   0.02815   0.00000  Uiso   1.00
H416   H     0.25385   0.89036   0.43079   0.00000  Uiso   1.00
H417   H     0.23388   0.67954   0.25754   0.00000  Uiso   1.00
H418   H     0.09961   0.98713   0.24219   0.00000  Uiso   1.00
H419   H     0.30213   0.86488   0.33929   0.00000  Uiso   1.00
H420   H     0.27115   0.91633   0.32160   0.00000  Uiso   1.00
H421   H     0.03546   0.98092   0.32487   0.00000  Uiso   1.00
H422   H     0.33287   0.95027   0.37662   0.00000  Uiso   1.00
H423   H     0.06746   0.93006   0.34157   0.00000  Uiso   1.00
H424   H     0.06241   0.75037   0.17832   0.00000  Uiso   1.00
H425   H     0.03285   0.80270   0.16061   0.00000  Uiso   1.00
H426   H     0.32571   0.91075   0.47628   0.00000  Uiso   1.00
H427   H     0.26707   0.73836   0.15723   0.00000  Uiso   1.00
H428   H     0.00189   0.71851   0.12217   0.00000  Uiso   1.00
H429   H     0.29835   0.68673   0.17339   0.00000  Uiso   1.00
H430   H     0.14041   0.80509   0.10808   0.00000  Uiso   1.00
H431   H     0.19649   0.85619   0.39059   0.00000  Uiso   1.00
H432   H     0.32196   0.88510   0.12251   0.00000  Uiso   1.00
H433   H     0.00865   0.79252   0.37960   0.00000  Uiso   1.00
H434   H     0.30914   0.77682   0.45782   0.00000  Uiso   1.00
H435   H     0.01906   0.90832   0.04574   0.00000  Uiso   1.00
H436   H     0.07275   0.79802   0.07380   0.00000  Uiso   1.00
N437   N     0.31506   0.84735   0.26212   0.00000  Uiso   1.00
N438   N     0.01827   0.81932   0.23788   0.00000  Uiso   1.00
O439   O     0.12815   0.90476   0.24686   0.00000  Uiso   1.00
O440   O     0.32128   0.77384   0.22260   0.00000  Uiso   1.00
O441   O     0.20518   0.76191   0.25314   0.00000  Uiso   1.00
O442   O     0.22829   0.91420   0.25502   0.00000  Uiso   1.00
O443   O     0.10504   0.75247   0.24498   0.00000  Uiso   1.00
O444   O     0.08851   0.82597   0.30854   0.00000  Uiso   1.00
O445   O     0.24482   0.84070   0.19145   0.00000  Uiso   1.00
O446   O     0.18866   0.83540   0.31671   0.00000  Uiso   1.00
O447   O     0.14468   0.83126   0.18329   0.00000  Uiso   1.00
O448   O     0.01210   0.89313   0.27690   0.00000  Uiso   1.00
C449   C     0.51486   0.93327   0.25144   0.00000  Uiso   1.00
C450   C     0.53820   0.83734   0.16711   0.00000  Uiso   1.00
C451   C     0.43893   0.82555   0.38040   0.00000  Uiso   1.00
C452   C     0.56102   0.84480   0.12007   0.00000  Uiso   1.00
C453   C     0.35759   0.79492   0.44387   0.00000  Uiso   1.00
C454   C     0.63868   0.88631   0.05884   0.00000  Uiso   1.00
C455   C     0.37614   0.80407   0.39935   0.00000  Uiso   1.00
C456   C     0.62174   0.87254   0.10239   0.00000  Uiso   1.00
C457   C     0.48206   0.84039   0.40664   0.00000  Uiso   1.00
C458   C     0.51851   0.82893   0.09351   0.00000  Uiso   1.00
C459   C     0.46444   0.83258   0.45178   0.00000  Uiso   1.00
C460   C     0.48519   0.73340   0.24848   0.00000  Uiso   1.00
C461   C     0.53338   0.84416   0.04997   0.00000  Uiso   1.00
C462   C     0.40139   0.80800   0.46997   0.00000  Uiso   1.00
C463   C     0.59496   0.87284   0.03269   0.00000  Uiso   1.00
C464   C     0.50807   0.84679   0.47893   0.00000  Uiso   1.00
C465   C     0.48880   0.83239   0.02344   0.00000  Uiso   1.00
C466   C     0.64749   0.90154   0.32040   0.00000  Uiso   1.00
C467   C     0.35690   0.94330   0.34218   0.00000  Uiso   1.00
C468   C     0.35324   0.76575   0.17921   0.00000  Uiso   1.00
C469   C     0.64406   0.72476   0.15664   0.00000  Uiso   1.00
C470   C     0.42530   0.80782   0.04015   0.00000  Uiso   1.00
C471   C     0.56996   0.87563   0.46323   0.00000  Uiso   1.00
C472   C     0.38267   0.79613   0.01388   0.00000  Uiso   1.00
C473   C     0.61224   0.88845   0.48970   0.00000  Uiso   1.00
C474   C     0.52302   0.98925   0.25247   0.00000  Uiso   1.00
C475   C     0.47712   0.67742   0.24730   0.00000  Uiso   1.00
C476   C     0.46181   0.82971   0.33295   0.00000  Uiso   1.00
Cu477  Cu    0.44071   0.82775   0.24516   0.00000  Uiso   1.00
Cu478  Cu    0.55929   0.83892   0.25483   0.00000  Uiso   1.00
H479   H     0.33451   0.77747   0.02815   0.00000  Uiso   1.00
H480   H     0.58718   0.89036   0.43079   0.00000  Uiso   1.00
H481   H     0.56721   0.67954   0.25754   0.00000  Uiso   1.00
H482   H     0.43294   0.98713   0.24219   0.00000  Uiso   1.00
H483   H     0.63546   0.86488   0.33929   0.00000  Uiso   1.00
H484   H     0.60448   0.91633   0.32160   0.00000  Uiso   1.00
H485   H     0.36880   0.98092   0.32487   0.00000  Uiso   1.00
H486   H     0.66620   0.95027   0.37662   0.00000  Uiso   1.00
H487   H     0.40079   0.93006   0.34157   0.00000  Uiso   1.00
H488   H     0.39574   0.75037   0.17832   0.00000  Uiso   1.00
H489   H     0.36619   0.80270   0.16061   0.00000  Uiso   1.00
H490   H     0.65904   0.91075   0.47628   0.00000  Uiso   1.00
H491   H     0.60041   0.73836   0.15723   0.00000  Uiso   1.00
H492   H     0.33522   0.71851   0.12217   0.00000  Uiso   1.00
H493   H     0.63169   0.68673   0.17339   0.00000  Uiso   1.00
H494   H     0.47375   0.80509   0.10808   0.00000  Uiso   1.00
H495   H     0.52982   0.85619   0.39059   0.00000  Uiso   1.00
H496   H     0.65529   0.88510   0.12251   0.00000  Uiso   1.00
H497   H     0.34198   0.79252   0.37960   0.00000  Uiso   1.00
H498   H     0.64247   0.77682   0.45782   0.00000  Uiso   1.00
H499   H     0.35239   0.90832   0.04574   0.00000  Uiso   1.00
H500   H     0.40609   0.79802   0.07380   0.00000  Uiso   1.00
N501   N     0.64839   0.84735   0.26212   0.00000  Uiso   1.00
N502   N     0.35161   0.81932   0.23788   0.00000  Uiso   1.00
O503   O     0.46148   0.90476   0.24686   0.00000  Uiso   1.00
O504   O     0.65461   0.77384   0.22260   0.00000  Uiso   1.00
O505   O     0.53852   0.76191   0.25314   0.00000  Uiso   1.00
O506   O     0.56163   0.91420   0.25502   0.00000  Uiso   1.00
O507   O     0.43837   0.75247   0.24498   0.00000  Uiso   1.00
O508   O     0.42185   0.82597   0.30854   0.00000  Uiso   1.00
O509   O     0.57815   0.84070   0.19145   0.00000  Uiso   1.00
O510   O     0.52199   0.83540   0.31671   0.00000  Uiso   1.00
O511   O     0.47801   0.83126   0.18329   0.00000  Uiso   1.00
O512   O     0.34544   0.89313   0.27690   0.00000  Uiso   1.00
C513   C     0.84819   0.93327   0.25144   0.00000  Uiso   1.00
C514   C     0.87153   0.83734   0.16711   0.00000  Uiso   1.00
C515   C     0.77226   0.82555   0.38040   0.00000  Uiso   1.00
C516   C     0.89435   0.84480   0.12007   0.00000  Uiso   1.00
C517   C     0.69093   0.79492   0.44387   0.00000  Uiso   1.00
C518   C     0.97201   0.88631   0.05884   0.00000  Uiso   1.00
C519   C     0.70947   0.80407   0.39935   0.00000  Uiso   1.00
C520   C     0.95507   0.87254   0.10239   0.00000  Uiso   1.00
C521   C     0.81539   0.84039   0.40664   0.00000  Uiso   1.00
C522   C     0.85184   0.82893   0.09351   0.00000  Uiso   1.00
C523   C     0.79777   0.83258   0.45178   0.00000  Uiso   1.00
C524   C     0.81852   0.73340   0.24848   0.00000  Uiso   1.00
C525   C     0.86672   0.84416   0.04997   0.00000  Uiso   1.00
C526   C     0.73472   0.80800   0.46997   0.00000  Uiso   1.00
C527   C     0.92830   0.87284   0.03269   0.00000  Uiso   1.00
C528   C     0.84140   0.84679   0.47893   0.00000  Uiso   1.00
C529   C     0.82213   0.83239   0.02344   0.00000  Uiso   1.00
C530   C     0.98082   0.90154   0.32040   0.00000  Uiso   1.00
C531   C     0.69024   0.94330   0.34218   0.00000  Uiso   1.00
C532   C     0.68657   0.76575   0.17921   0.00000  Uiso   1.00
C533   C     0.97739   0.72476   0.15664   0.00000  Uiso   1.00
C534   C     0.75864   0.80782   0.04015   0.00000  Uiso   1.00
C535   C     0.90329   0.87563   0.46323   0.00000  Uiso   1.00
C536   C     0.71601   0.79613   0.01388   0.00000  Uiso   1.00
C537   C     0.94557   0.88845   0.48970   0.00000  Uiso   1.00
C538   C     0.85635   0.98925   0.25247   0.00000  Uiso   1.00
C539   C     0.81045   0.67742   0.24730   0.00000  Uiso   1.00
C540   C     0.79514   0.82971   0.33295   0.00000  Uiso   1.00
Cu541  Cu    0.77404   0.82775   0.24516   0.00000  Uiso   1.00
Cu542  Cu    0.89263   0.83892   0.25483   0.00000  Uiso   1.00
H543   H     0.66784   0.77747   0.02815   0.00000  Uiso   1.00
H544   H     0.92051   0.89036   0.43079   0.00000  Uiso   1.00
H545   H     0.90054   0.67954   0.25754   0.00000  Uiso   1.00
H546   H     0.76627   0.98713   0.24219   0.00000  Uiso   1.00
H547   H     0.96880   0.86488   0.33929   0.00000  Uiso   1.00
H548   H     0.93782   0.91633   0.32160   0.00000  Uiso   1.00
H549   H     0.70213   0.98092   0.32487   0.00000  Uiso   1.00
H550   H     0.99954   0.95027   0.37662   0.00000  Uiso   1.00
H551   H     0.73413   0.93006   0.34157   0.00000  Uiso   1.00
H552   H     0.72908   0.75037   0.17832   0.00000  Uiso   1.00
H553   H     0.69952   0.80270   0.16061   0.00000  Uiso   1.00
H554   H     0.99237   0.91075   0.47628   0.00000  Uiso   1.00
H555   H     0.93374   0.73836   0.15723   0.00000  Uiso   1.00
H556   H     0.66855   0.71851   0.12217   0.00000  Uiso   1.00
H557   H     0.96502   0.68673   0.17339   0.00000  Uiso   1.00
H558   H     0.80708   0.80509   0.10808   0.00000  Uiso   1.00
H559   H     0.86315   0.85619   0.39059   0.00000  Uiso   1.00
H560   H     0.98863   0.88510   0.12251   0.00000  Uiso   1.00
H561   H     0.67532   0.79252   0.37960   0.00000  Uiso   1.00
H562   H     0.97581   0.77682   0.45782   0.00000  Uiso   1.00
H563   H     0.68572   0.90832   0.04574   0.00000  Uiso   1.00
H564   H     0.73942   0.79802   0.07380   0.00000  Uiso   1.00
N565   N     0.98173   0.84735   0.26212   0.00000  Uiso   1.00
N566   N     0.68494   0.81932   0.23788   0.00000  Uiso   1.00
O567   O     0.79482   0.90476   0.24686   0.00000  Uiso   1.00
O568   O     0.98794   0.77384   0.22260   0.00000  Uiso   1.00
O569   O     0.87185   0.76191   0.25314   0.00000  Uiso   1.00
O570   O     0.89496   0.91420   0.25502   0.00000  Uiso   1.00
O571   O     0.77171   0.75247   0.24498   0.00000  Uiso   1.00
O572   O     0.75518   0.82597   0.30854   0.00000  Uiso   1.00
O573   O     0.91149   0.84070   0.19145   0.00000  Uiso   1.00
O574   O     0.85532   0.83540   0.31671   0.00000  Uiso   1.00
O575   O     0.81134   0.83126   0.18329   0.00000  Uiso   1.00
O576   O     0.67877   0.89313   0.27690   0.00000  Uiso   1.00
C577   C     0.18152   0.26661   0.75144   0.00000  Uiso   1.00
C578   C     0.20487   0.17067   0.66711   0.00000  Uiso   1.00
C579   C     0.10560   0.15888   0.88040   0.00000  Uiso   1.00
C580   C     0.22768   0.17813   0.62007   0.00000  Uiso   1.00
C581   C     0.02426   0.12825   0.94387   0.00000  Uiso   1.00
C582   C     0.30535   0.21965   0.55884   0.00000  Uiso   1.00
C583   C     0.04280   0.13740   0.89935   0.00000  Uiso   1.00
C584   C     0.28841   0.20587   0.60239   0.00000  Uiso   1.00
C585   C     0.14873   0.17372   0.90664   0.00000  Uiso   1.00
C586   C     0.18517   0.16226   0.59351   0.00000  Uiso   1.00
C587   C     0.13111   0.16592   0.95178   0.00000  Uiso   1.00
C588   C     0.15186   0.06673   0.74848   0.00000  Uiso   1.00
C589   C     0.20005   0.17750   0.54997   0.00000  Uiso   1.00
C590   C     0.06805   0.14133   0.96997   0.00000  Uiso   1.00
C591   C     0.26163   0.20617   0.53269   0.00000  Uiso   1.00
C592   C     0.17473   0.18013   0.97893   0.00000  Uiso   1.00
C593   C     0.15547   0.16572   0.52344   0.00000  Uiso   1.00
C594   C     0.31415   0.23488   0.82040   0.00000  Uiso   1.00
C595   C     0.02357   0.27664   0.84218   0.00000  Uiso   1.00
C596   C     0.01991   0.09908   0.67921   0.00000  Uiso   1.00
C597   C     0.31073   0.05810   0.65664   0.00000  Uiso   1.00
C598   C     0.09197   0.14115   0.54015   0.00000  Uiso   1.00
C599   C     0.23662   0.20896   0.96323   0.00000  Uiso   1.00
C600   C     0.04934   0.12946   0.51388   0.00000  Uiso   1.00
C601   C     0.27890   0.22178   0.98970   0.00000  Uiso   1.00
C602   C     0.18968   0.32258   0.75247   0.00000  Uiso   1.00
C603   C     0.14378   0.01075   0.74730   0.00000  Uiso   1.00
C604   C     0.12848   0.16304   0.83295   0.00000  Uiso   1.00
Cu605  Cu    0.10737   0.16108   0.74516   0.00000  Uiso   1.00
Cu606  Cu    0.22596   0.17225   0.75483   0.00000  Uiso   1.00
H607   H     0.00118   0.11080   0.52815   0.00000  Uiso   1.00
H608   H     0.25385   0.22370   0.93079   0.00000  Uiso   1.00
H609   H     0.23388   0.01288   0.75754   0.00000  Uiso   1.00
H610   H     0.09961   0.32046   0.74219   0.00000  Uiso   1.00
H611   H     0.30213   0.19822   0.83929   0.00000  Uiso   1.00
H612   H     0.27115   0.24966   0.82160   0.00000  Uiso   1.00
H613   H     0.03546   0.31426   0.82487   0.00000  Uiso   1.00
H614   H     0.33287   0.28360   0.87662   0.00000  Uiso   1.00
H615   H     0.06746   0.26339   0.84157   0.00000  Uiso   1.00
H616   H     0.06241   0.08370   0.67832   0.00000  Uiso   1.00
H617   H     0.03285   0.13604   0.66061   0.00000  Uiso   1.00
H618   H     0.32571   0.24408   0.97628   0.00000  Uiso   1.00
H619   H     0.26707   0.07169   0.65723   0.00000  Uiso   1.00
H620   H     0.00189   0.05184   0.62217   0.00000  Uiso   1.00
H621   H     0.29835   0.02006   0.67339   0.00000  Uiso   1.00
H622   H     0.14041   0.13843   0.60808   0.00000  Uiso   1.00
H623   H     0.19649   0.18952   0.89059   0.00000  Uiso   1.00
H624   H     0.32196   0.21843   0.62251   0.00000  Uiso   1.00
H625   H     0.00865   0.12585   0.87960   0.00000  Uiso   1.00
H626   H     0.30914   0.11015   0.95782   0.00000  Uiso   1.00
H627   H     0.01906   0.24166   0.54574   0.00000  Uiso   1.00
H628   H     0.07275   0.13136   0.57380   0.00000  Uiso   1.00
N629   N     0.31506   0.18068   0.76212   0.00000  Uiso   1.00
N630   N     0.01827   0.15265   0.73788   0.00000  Uiso   1.00
O631   O     0.12815   0.23809   0.74686   0.00000  Uiso   1.00
O632   O     0.32128   0.10717   0.72260   0.00000  Uiso   1.00
O633   O     0.20518   0.09524   0.75314   0.00000  Uiso   1.00
O634   O     0.22829   0.24753   0.75502   0.00000  Uiso   1.00
O635   O     0.10504   0.08580   0.74498   0.00000  Uiso   1.00
O636   O     0.08851   0.15930   0.80854   0.00000  Uiso   1.00
O637   O     0.24482   0.17403   0.69145   0.00000  Uiso   1.00
O638   O     0.18866   0.16874   0.81671   0.00000  Uiso   1.00
O639   O     0.14468   0.16460   0.68329   0.00000  Uiso   1.00
O640   O     0.01210   0.22647   0.77690   0.00000  Uiso   1.00
C641   C     0.51486   0.26661   0.75144   0.00000  Uiso   1.00
C642   C     0.53820   0.17067   0.66711   0.00000  Uiso   1.00
C643   C     0.43893   0.15888   0.88040   0.00000  Uiso   1.00
C644   C     0.56102   0.17813   0.62007   0.00000  Uiso   1.00
C645   C     0.35759   0.12825   0.94387   0.00000  Uiso   1.00
C646   C     0.63868   0.21965   0.55884   0.00000  Uiso   1.00
C647   C     0.37614   0.13740   0.89935   0.00000  Uiso   1.00
C648   C     0.62174   0.20587   0.60239   0.00000  Uiso   1.00
C649   C     0.48206   0.17372   0.90664   0.00000  Uiso   1.00
C650   C     0.51851   0.16226   0.59351   0.00000  Uiso   1.00
C651   C     0.46444   0.16592   0.95178   0.00000  Uiso   1.00
C652   C     0.48519   0.06673   0.74848   0.00000  Uiso   1.00
C653   C     0.53338   0.17750   0.54997   0.00000  Uiso   1.00
C654   C     0.40139   0.14133   0.96997   0.00000  Uiso   1.00
C655   C     0.59496   0.20617   0.53269   0.00000  Uiso   1.00
C656   C     0.50807   0.18013   0.97893   0.00000  Uiso   1.00
C657   C     0.48880   0.16572   0.52344   0.00000  Uiso   1.00
C658   C     0.64749   0.23488   0.82040   0.00000  Uiso   1.00
C659   C     0.35690   0.27664   0.84218   0.00000  Uiso   1.00
C660   C     0.35324   0.09908   0.67921   0.00000  Uiso   1.00
C661   C     0.64406   0.05810   0.65664   0.00000  Uiso   1.00
C662   C     0.42530   0.14115   0.54015   0.00000  Uiso   1.00
C663   C     0.56996   0.20896   0.96323   0.00000  Uiso   1.00
C664   C     0.38267   0.12946   0.51388   0.00000  Uiso   1.00
C665   C     0.61224   0.22178   0.98970   0.00000  Uiso   1.00
C666   C     0.52302   0.32258   0.75247   0.00000  Uiso   1.00
C667   C     0.47712   0.01075   0.74730   0.00000  Uiso   1.00
C668   C     0.46181   0.16304   0.83295   0.00000  Uiso   1.00
Cu669  Cu    0.44071   0.16108   0.74516   0.00000  Uiso   1.00
Cu670  Cu    0.55929   0.17225   0.75483   0.00000  Uiso   1.00
H671   H     0.33451   0.11080   0.52815   0.00000  Uiso   1.00
H672   H     0.58718   0.22370   0.93079   0.00000  Uiso   1.00
H673   H     0.56721   0.01288   0.75754   0.00000  Uiso   1.00
H674   H     0.43294   0.32046   0.74219   0.00000  Uiso   1.00
H675   H     0.63546   0.19822   0.83929   0.00000  Uiso   1.00
H676   H     0.60448   0.24966   0.82160   0.00000  Uiso   1.00
H677   H     0.36880   0.31426   0.82487   0.00000  Uiso   1.00
H678   H     0.66620   0.28360   0.87662   0.00000  Uiso   1.00
H679   H     0.40079   0.26339   0.84157   0.00000  Uiso   1.00
H680   H     0.39574   0.08370   0.67832   0.00000  Uiso   1.00
H681   H     0.36619   0.13604   0.66061   0.00000  Uiso   1.00
H682   H     0.65904   0.24408   0.97628   0.00000  Uiso   1.00
H683   H     0.60041   0.07169   0.65723   0.00000  Uiso   1.00
H684   H     0.33522   0.05184   0.62217   0.00000  Uiso   1.00
H685   H     0.63169   0.02006   0.67339   0.00000  Uiso   1.00
H686   H     0.47375   0.13843   0.60808   0.00000  Uiso   1.00
H687   H     0.52982   0.18952   0.89059   0.00000  Uiso   1.00
H688   H     0.65529   0.21843   0.62251   0.00000  Uiso   1.00
H689   H     0.34198   0.12585   0.87960   0.00000  Uiso   1.00
H690   H     0.64247   0.11015   0.95782   0.00000  Uiso   1.00
H691   H     0.35239   0.24166   0.54574   0.00000  Uiso   1.00
H692   H     0.40609   0.13136   0.57380   0.00000  Uiso   1.00
N693   N     0.64839   0.18068   0.76212   0.00000  Uiso   1.00
N694   N     0.35161   0.15265   0.73788   0.00000  Uiso   1.00
O695   O     0.46148   0.23809   0.74686   0.00000  Uiso   1.00
O696   O     0.65461   0.10717   0.72260   0.00000  Uiso   1.00
O697   O     0.53852   0.09524   0.75314   0.00000  Uiso   1.00
O698   O     0.56163   0.24753   0.75502   0.00000  Uiso   1.00
O699   O     0.43837   0.08580   0.74498   0.00000  Uiso   1.00
O700   O     0.42185   0.15930   0.80854   0.00000  Uiso   1.00
O701   O     0.57815   0.17403   0.69145   0.00000  Uiso   1.00
O702   O     0.52199   0.16874   0.81671   0.00000  Uiso   1.00
O703   O     0.47801   0.16460   0.68329   0.00000  Uiso   1.00
O704   O     0.34544   0.22647   0.77690   0.00000  Uiso   1.00
C705   C     0.84819   0.26661   0.75144   0.00000  Uiso   1.00
C706   C     0.87153   0.17067   0.66711   0.00000  Uiso   1.00
C707   C     0.77226   0.15888   0.88040   0.00000  Uiso   1.00
C708   C     0.89435   0.17813   0.62007   0.00000  Uiso   1.00
C709   C     0.69093   0.12825   0.94387   0.00000  Uiso   1.00
C710   C     0.97201   0.21965   0.55884   0.00000  Uiso   1.00
C711   C     0.70947   0.13740   0.89935   0.00000  Uiso   1.00
C712   C     0.95507   0.20587   0.60239   0.00000  Uiso   1.00
C713   C     0.81539   0.17372   0.90664   0.00000  Uiso   1.00
C714   C     0.85184   0.16226   0.59351   0.00000  Uiso   1.00
C715   C     0.79777   0.16592   0.95178   0.00000  Uiso   1.00
C716   C     0.81852   0.06673   0.74848   0.00000  Uiso   1.00
C717   C     0.86672   0.17750   0.54997   0.00000  Uiso   1.00
C718   C     0.73472   0.14133   0.96997   0.00000  Uiso   1.00
C719   C     0.92830   0.20617   0.53269   0.00000  Uiso   1.00
C720   C     0.84140   0.18013   0.97893   0.00000  Uiso   1.00
C721   C     0.82213   0.16572   0.52344   0.00000  Uiso   1.00
C722   C     0.98082   0.23488   0.82040   0.00000  Uiso   1.00
C723   C     0.69024   0.27664   0.84218   0.00000  Uiso   1.00
C724   C     0.68657   0.09908   0.67921   0.00000  Uiso   1.00
C725   C     0.97739   0.05810   0.65664   0.00000  Uiso   1.00
C726   C     0.75864   0.14115   0.54015   0.00000  Uiso   1.00
C727   C     0.90329   0.20896   0.96323   0.00000  Uiso   1.00
C728   C     0.71601   0.12946   0.51388   0.00000  Uiso   1.00
C729   C     0.94557   0.22178   0.98970   0.00000  Uiso   1.00
C730   C     0.85635   0.32258   0.75247   0.00000  Uiso   1.00
C731   C     0.81045   0.01075   0.74730   0.00000  Uiso   1.00
C732   C     0.79514   0.16304   0.83295   0.00000  Uiso   1.00
Cu733  Cu    0.77404   0.16108   0.74516   0.00000  Uiso   1.00
Cu734  Cu    0.89263   0.17225   0.75483   0.00000  Uiso   1.00
H735   H     0.66784   0.11080   0.52815   0.00000  Uiso   1.00
H736   H     0.92051   0.22370   0.93079   0.00000  Uiso   1.00
H737   H     0.90054   0.01288   0.75754   0.00000  Uiso   1.00
H738   H     0.76627   0.32046   0.74219   0.00000  Uiso   1.00
H739   H     0.96880   0.19822   0.83929   0.00000  Uiso   1.00
H740   H     0.93782   0.24966   0.82160   0.00000  Uiso   1.00
H741   H     0.70213   0.31426   0.82487   0.00000  Uiso   1.00
H742   H     0.99954   0.28360   0.87662   0.00000  Uiso   1.00
H743   H     0.73413   0.26339   0.84157   0.00000  Uiso   1.00
H744   H     0.72908   0.08370   0.67832   0.00000  Uiso   1.00
H745   H     0.69952   0.13604   0.66061   0.00000  Uiso   1.00
H746   H     0.99237   0.24408   0.97628   0.00000  Uiso   1.00
H747   H     0.93374   0.07169   0.65723   0.00000  Uiso   1.00
H748   H     0.66855   0.05184   0.62217   0.00000  Uiso   1.00
H749   H     0.96502   0.02006   0.67339   0.00000  Uiso   1.00
H750   H     0.80708   0.13843   0.60808   0.00000  Uiso   1.00
H751   H     0.86315   0.18952   0.89059   0.00000  Uiso   1.00
H752   H     0.98863   0.21843   0.62251   0.00000  Uiso   1.00
H753   H     0.67532   0.12585   0.87960   0.00000  Uiso   1.00
H754   H     0.97581   0.11015   0.95782   0.00000  Uiso   1.00
H755   H     0.68572   0.24166   0.54574   0.00000  Uiso   1.00
H756   H     0.73942   0.13136   0.57380   0.00000  Uiso   1.00
N757   N     0.98173   0.18068   0.76212   0.00000  Uiso   1.00
N758   N     0.68494   0.15265   0.73788   0.00000  Uiso   1.00
O759   O     0.79482   0.23809   0.74686   0.00000  Uiso   1.00
O760   O     0.98794   0.10717   0.72260   0.00000  Uiso   1.00
O761   O     0.87185   0.09524   0.75314   0.00000  Uiso   1.00
O762   O     0.89496   0.24753   0.75502   0.00000  Uiso   1.00
O763   O     0.77171   0.08580   0.74498   0.00000  Uiso   1.00
O764   O     0.75518   0.15930   0.80854   0.00000  Uiso   1.00
O765   O     0.91149   0.17403   0.69145   0.00000  Uiso   1.00
O766   O     0.85532   0.16874   0.81671   0.00000  Uiso   1.00
O767   O     0.81134   0.16460   0.68329   0.00000  Uiso   1.00
O768   O     0.67877   0.22647   0.77690   0.00000  Uiso   1.00
C769   C     0.18152   0.59994   0.75144   0.00000  Uiso   1.00
C770   C     0.20487   0.50400   0.66711   0.00000  Uiso   1.00
C771   C     0.10560   0.49222   0.88040   0.00000  Uiso   1.00
C772   C     0.22768   0.51146   0.62007   0.00000  Uiso   1.00
C773   C     0.02426   0.46158   0.94387   0.00000  Uiso   1.00
C774   C     0.30535   0.55298   0.55884   0.00000  Uiso   1.00
C775   C     0.04280   0.47073   0.89935   0.00000  Uiso   1.00
C776   C     0.28841   0.53920   0.60239   0.00000  Uiso   1.00
C777   C     0.14873   0.50706   0.90664   0.00000  Uiso   1.00
C778   C     0.18517   0.49560   0.59351   0.00000  Uiso   1.00
C779   C     0.13111   0.49925   0.95178   0.00000  Uiso   1.00
C780   C     0.15186   0.40006   0.74848   0.00000  Uiso   1.00
C781   C     0.20005   0.51083   0.54997   0.00000  Uiso   1.00
C782   C     0.06805   0.47466   0.96997   0.00000  Uiso   1.00
C783   C     0.26163   0.53951   0.53269   0.00000  Uiso   1.00
C784   C     0.17473   0.51346   0.97893   0.00000  Uiso   1.00
C785   C     0.15547   0.49905   0.52344   0.00000  Uiso   1.00
C786   C     0.31415   0.56821   0.82040   0.00000  Uiso   1.00
C787   C     0.02357   0.60997   0.84218   0.00000  Uiso   1.00
C788   C     0.01991   0.43241   0.67921   0.00000  Uiso   1.00
C789   C     0.31073   0.39143   0.65664   0.00000  Uiso   1.00
C790   C     0.09197   0.47449   0.54015   0.00000  Uiso   1.00
C791   C     0.23662   0.54229   0.96323   0.00000  Uiso   1.00
C792   C     0.04934   0.46279   0.51388   0.00000  Uiso   1.00
C793   C     0.27890   0.55511   0.98970   0.00000  Uiso   1.00
C794   C     0.18968   0.65592   0.75247   0.00000  Uiso   1.00
C795   C     0.14378   0.34409   0.74730   0.00000  Uiso   1.00
C796   C     0.12848   0.49637   0.83295   0.00000  Uiso   1.00
Cu797  Cu    0.10737   0.49441   0.74516   0.00000  Uiso   1.00
Cu798  Cu    0.22596   0.50559   0.75483   0.00000  Uiso   1.00
H799   H     0.00118   0.44414   0.52815   0.00000  Uiso   1.00
H800   H     0.25385   0.55703   0.93079   0.00000  Uiso   1.00
H801   H     0.23388   0.34621   0.75754   0.00000  Uiso   1.00
H802   H     0.09961   0.65379   0.74219   0.00000  Uiso   1.00
H803   H     0.30213   0.53155   0.83929   0.00000  Uiso   1.00
H804   H     0.27115   0.58300   0.82160   0.00000  Uiso   1.00
H805   H     0.03546   0.64759   0.82487   0.00000  Uiso   1.00
H806   H     0.33287   0.61693   0.87662   0.00000  Uiso   1.00
H807   H     0.06746   0.59673   0.84157   0.00000  Uiso   1.00
H808   H     0.06241   0.41703   0.67832   0.00000  Uiso   1.00
H809   H     0.03285   0.46937   0.66061   0.00000  Uiso   1.00
H810   H     0.32571   0.57741   0.97628   0.00000  Uiso   1.00
H811   H     0.26707   0.40503   0.65723   0.00000  Uiso   1.00
H812   H     0.00189   0.38517   0.62217   0.00000  Uiso   1.00
H813   H     0.29835   0.35339   0.67339   0.00000  Uiso   1.00
H814   H     0.14041   0.47176   0.60808   0.00000  Uiso   1.00
H815   H     0.19649   0.52286   0.89059   0.00000  Uiso   1.00
H816   H     0.32196   0.55176   0.62251   0.00000  Uiso   1.00
H817   H     0.00865   0.45918   0.87960   0.00000  Uiso   1.00
H818   H     0.30914   0.44349   0.95782   0.00000  Uiso   1.00
H819   H     0.01906   0.57499   0.54574   0.00000  Uiso   1.00
H820   H     0.07275   0.46469   0.57380   0.00000  Uiso   1.00
N821   N     0.31506   0.51401   0.76212   0.00000  Uiso   1.00
N822   N     0.01827   0.48599   0.73788   0.00000  Uiso   1.00
O823   O     0.12815   0.57142   0.74686   0.00000  Uiso   1.00
O824   O     0.32128   0.44051   0.72260   0.00000  Uiso   1.00
O825   O     0.20518   0.42858   0.75314   0.00000  Uiso   1.00
O826   O     0.22829   0.58086   0.75502   0.00000  Uiso   1.00
O827   O     0.10504   0.41914   0.74498   0.00000  Uiso   1.00
O828   O     0.08851   0.49263   0.80854   0.00000  Uiso   1.00
O829   O     0.24482   0.50737   0.69145   0.00000  Uiso   1.00
O830   O     0.18866   0.50207   0.81671   0.00000  Uiso   1.00
O831   O     0.14468   0.49793   0.68329   0.00000  Uiso   1.00
O832   O     0.01210   0.55980   0.77690   0.00000  Uiso   1.00
C833   C     0.51486   0.59994   0.75144   0.00000  Uiso   1.00
C834   C     0.53820   0.50400   0.66711   0.00000  Uiso   1.00
C835   C     0.43893   0.49222   0.88040   0.00000  Uiso   1.00
C836   C     0.56102   0.51146   0.62007   0.00000  Uiso   1.00
C837   C     0.35759   0.46158   0.94387   0.00000  Uiso   1.00
C838   C     0.63868   0.55298   0.55884   0.00000  Uiso   1.00
C839   C     0.37614   0.47073   0.89935   0.00000  Uiso   1.00
C840   C     0.62174   0.53920   0.60239   0.00000  Uiso   1.00
C841   C     0.48206   0.50706   0.90664   0.00000  Uiso   1.00
C842   C     0.51851   0.49560   0.59351   0.00000  Uiso   1.00
C843   C     0.46444   0.49925   0.95178   0.00000  Uiso   1.00
C844   C     0.48519   0.40006   0.74848   0.00000  Uiso   1.00
C845   C     0.53338   0.51083   0.54997   0.00000  Uiso   1.00
C846   C     0.40139   0.47466   0.96997   0.00000  Uiso   1.00
C847   C     0.59496   0.53951   0.53269   0.00000  Uiso   1.00
C848   C     0.50807   0.51346   0.97893   0.00000  Uiso   1.00
C849   C     0.48880   0.49905   0.52344   0.00000  Uiso   1.00
C850   C     0.64749   0.56821   0.82040   0.00000  Uiso   1.00
C851   C     0.35690   0.60997   0.84218   0.00000  Uiso   1.00
C852   C     0.35324   0.43241   0.67921   0.00000  Uiso   1.00
C853   C     0.64406   0.39143   0.65664   0.00000  Uiso   1.00
C854   C     0.42530   0.47449   0.54015   0.00000  Uiso   1.00
C855   C     0.56996   0.54229   0.96323   0.00000  Uiso   1.00
C856   C     0.38267   0.46279   0.51388   0.00000  Uiso   1.00
C857   C     0.61224   0.55511   0.98970   0.00000  Uiso   1.00
C858   C     0.52302   0.65592   0.75247   0.00000  Uiso   1.00
C859   C     0.47712   0.34409   0.74730   0.00000  Uiso   1.00
C860   C     0.46181   0.49637   0.83295   0.00000  Uiso   1.00
Cu861  Cu    0.44071   0.49441   0.74516   0.00000  Uiso   1.00
Cu862  Cu    0.55929   0.50559   0.75483   0.00000  Uiso   1.00
H863   H     0.33451   0.44414   0.52815   0.00000  Uiso   1.00
H864   H     0.58718   0.55703   0.93079   0.00000  Uiso   1.00
H865   H     0.56721   0.34621   0.75754   0.00000  Uiso   1.00
H866   H     0.43294   0.65379   0.74219   0.00000  Uiso   1.00
H867   H     0.63546   0.53155   0.83929   0.00000  Uiso   1.00
H868   H     0.60448   0.58300   0.82160   0.00000  Uiso   1.00
H869   H     0.36880   0.64759   0.82487   0.00000  Uiso   1.00
H870   H     0.66620   0.61693   0.87662   0.00000  Uiso   1.00
H871   H     0.40079   0.59673   0.84157   0.00000  Uiso   1.00
H872   H     0.39574   0.41703   0.67832   0.00000  Uiso   1.00
H873   H     0.36619   0.46937   0.66061   0.00000  Uiso   1.00
H874   H     0.65904   0.57741   0.97628   0.00000  Uiso   1.00
H875   H     0.60041   0.40503   0.65723   0.00000  Uiso   1.00
H876   H     0.33522   0.38517   0.62217   0.00000  Uiso   1.00
H877   H     0.63169   0.35339   0.67339   0.00000  Uiso   1.00
H878   H     0.47375   0.47176   0.60808   0.00000  Uiso   1.00
H879   H     0.52982   0.52286   0.89059   0.00000  Uiso   1.00
H880   H     0.65529   0.55176   0.62251   0.00000  Uiso   1.00
H881   H     0.34198   0.45918   0.87960   0.00000  Uiso   1.00
H882   H     0.64247   0.44349   0.95782   0.00000  Uiso   1.00
H883   H     0.35239   0.57499   0.54574   0.00000  Uiso   1.00
H884   H     0.40609   0.46469   0.57380   0.00000  Uiso   1.00
N885   N     0.64839   0.51401   0.76212   0.00000  Uiso   1.00
N886   N     0.35161   0.48599   0.73788   0.00000  Uiso   1.00
O887   O     0.46148   0.57142   0.74686   0.00000  Uiso   1.00
O888   O     0.65461   0.44051   0.72260   0.00000  Uiso   1.00
O889   O     0.53852   0.42858   0.75314   0.00000  Uiso   1.00
O890   O     0.56163   0.58086   0.75502   0.00000  Uiso   1.00
O891   O     0.43837   0.41914   0.74498   0.00000  Uiso   1.00
O892   O     0.42185   0.49263   0.80854   0.00000  Uiso   1.00
O893   O     0.57815   0.50737   0.69145   0.00000  Uiso   1.00
O894   O     0.52199   0.50207   0.81671   0.00000  Uiso   1.00
O895   O     0.47801   0.49793   0.68329   0.00000  Uiso   1.00
O896   O     0.34544   0.55980   0.77690   0.00000  Uiso   1.00
C897   C     0.84819   0.59994   0.75144   0.00000  Uiso   1.00
C898   C     0.87153   0.50400   0.66711   0.00000  Uiso   1.00
C899   C     0.77226   0.49222   0.88040   0.00000  Uiso   1.00
C900   C     0.89435   0.51146   0.62007   0.00000  Uiso   1.00
C901   C     0.69093   0.46158   0.94387   0.00000  Uiso   1.00
C902   C     0.97201   0.55298   0.55884   0.00000  Uiso   1.00
C903   C     0.70947   0.47073   0.89935   0.00000  Uiso   1.00
C904   C     0.95507   0.53920   0.60239   0.00000  Uiso   1.00
C905   C     0.81539   0.50706   0.90664   0.00000  Uiso   1.00
C906   C     0.85184   0.49560   0.59351   0.00000  Uiso   1.00
C907   C     0.79777   0.49925   0.95178   0.00000  Uiso   1.00
C908   C     0.81852   0.40006   0.74848   0.00000  Uiso   1.00
C909   C     0.86672   0.51083   0.54997   0.00000  Uiso   1.00
C910   C     0.73472   0.47466   0.96997   0.00000  Uiso   1.00
C911   C     0.92830   0.53951   0.53269   0.00000  Uiso   1.00
C912   C     0.84140   0.51346   0.97893   0.00000  Uiso   1.00
C913   C     0.82213   0.49905   0.52344   0.00000  Uiso   1.00
C914   C     0.98082   0.56821   0.82040   0.00000  Uiso   1.00
C915   C     0.69024   0.60997   0.84218   0.00000  Uiso   1.00
C916   C     0.68657   0.43241   0.67921   0.00000  Uiso   1.00
C917   C     0.97739   0.39143   0.65664   0.00000  Uiso   1.00
C918   C     0.75864   0.47449   0.54015   0.00000  Uiso   1.00
C919   C     0.90329   0.54229   0.96323   0.00000  Uiso   1.00
C920   C     0.71601   0.46279   0.51388   0.00000  Uiso   1.00
C921   C     0.94557   0.55511   0.98970   0.00000  Uiso   1.00
C922   C     0.85635   0.65592   0.75247   0.00000  Uiso   1.00
C923   C     0.81045   0.34409   0.74730   0.00000  Uiso   1.00
C924   C     0.79514   0.49637   0.83295   0.00000  Uiso   1.00
Cu925  Cu    0.77404   0.49441   0.74516   0.00000  Uiso   1.00
Cu926  Cu    0.89263   0.50559   0.75483   0.00000  Uiso   1.00
H927   H     0.66784   0.44414   0.52815   0.00000  Uiso   1.00
H928   H     0.92051   0.55703   0.93079   0.00000  Uiso   1.00
H929   H     0.90054   0.34621   0.75754   0.00000  Uiso   1.00
H930   H     0.76627   0.65379   0.74219   0.00000  Uiso   1.00
H931   H     0.96880   0.53155   0.83929   0.00000  Uiso   1.00
H932   H     0.93782   0.58300   0.82160   0.00000  Uiso   1.00
H933   H     0.70213   0.64759   0.82487   0.00000  Uiso   1.00
H934   H     0.99954   0.61693   0.87662   0.00000  Uiso   1.00
H935   H     0.73413   0.59673   0.84157   0.00000  Uiso   1.00
H936   H     0.72908   0.41703   0.67832   0.00000  Uiso   1.00
H937   H     0.69952   0.46937   0.66061   0.00000  Uiso   1.00
H938   H     0.99237   0.57741   0.97628   0.00000  Uiso   1.00
H939   H     0.93374   0.40503   0.65723   0.00000  Uiso   1.00
H940   H     0.66855   0.38517   0.62217   0.00000  Uiso   1.00
H941   H     0.96502   0.35339   0.67339   0.00000  Uiso   1.00
H942   H     0.80708   0.47176   0.60808   0.00000  Uiso   1.00
H943   H     0.86315   0.52286   0.89059   0.00000  Uiso   1.00
H944   H     0.98863   0.55176   0.62251   0.00000  Uiso   1.00
H945   H     0.67532   0.45918   0.87960   0.00000  Uiso   1.00
H946   H     0.97581   0.44349   0.95782   0.00000  Uiso   1.00
H947   H     0.68572   0.57499   0.54574   0.00000  Uiso   1.00
H948   H     0.73942   0.46469   0.57380   0.00000  Uiso   1.00
N949   N     0.98173   0.51401   0.76212   0.00000  Uiso   1.00
N950   N     0.68494   0.48599   0.73788   0.00000  Uiso   1.00
O951   O     0.79482   0.57142   0.74686   0.00000  Uiso   1.00
O952   O     0.98794   0.44051   0.72260   0.00000  Uiso   1.00
O953   O     0.87185   0.42858   0.75314   0.00000  Uiso   1.00
O954   O     0.89496   0.58086   0.75502   0.00000  Uiso   1.00
O955   O     0.77171   0.41914   0.74498   0.00000  Uiso   1.00
O956   O     0.75518   0.49263   0.80854   0.00000  Uiso   1.00
O957   O     0.91149   0.50737   0.69145   0.00000  Uiso   1.00
O958   O     0.85532   0.50207   0.81671   0.00000  Uiso   1.00
O959   O     0.81134   0.49793   0.68329   0.00000  Uiso   1.00
O960   O     0.67877   0.55980   0.77690   0.00000  Uiso   1.00
C961   C     0.18152   0.93327   0.75144   0.00000  Uiso   1.00
C962   C     0.20487   0.83734   0.66711   0.00000  Uiso   1.00
C963   C     0.10560   0.82555   0.88040   0.00000  Uiso   1.00
C964   C     0.22768   0.84480   0.62007   0.00000  Uiso   1.00
C965   C     0.02426   0.79492   0.94387   0.00000  Uiso   1.00
C966   C     0.30535   0.88631   0.55884   0.00000  Uiso   1.00
C967   C     0.04280   0.80407   0.89935   0.00000  Uiso   1.00
C968   C     0.28841   0.87254   0.60239   0.00000  Uiso   1.00
C969   C     0.14873   0.84039   0.90664   0.00000  Uiso   1.00
C970   C     0.18517   0.82893   0.59351   0.00000  Uiso   1.00
C971   C     0.13111   0.83258   0.95178   0.00000  Uiso   1.00
C972   C     0.15186   0.73340   0.74848   0.00000  Uiso   1.00
C973   C     0.20005   0.84416   0.54997   0.00000  Uiso   1.00
C974   C     0.06805   0.80800   0.96997   0.00000  Uiso   1.00
C975   C     0.26163   0.87284   0.53269   0.00000  Uiso   1.00
C976   C     0.17473   0.84679   0.97893   0.00000  Uiso   1.00
C977   C     0.15547   0.83239   0.52344   0.00000  Uiso   1.00
C978   C     0.31415   0.90154   0.82040   0.00000  Uiso   1.00
C979   C     0.02357   0.94330   0.84218   0.00000  Uiso   1.00
C980   C     0.01991   0.76575   0.67921   0.00000  Uiso   1.00
C981   C     0.31073   0.72476   0.65664   0.00000  Uiso   1.00
C982   C     0.09197   0.80782   0.54015   0.00000  Uiso   1.00
C983   C     0.23662   0.87563   0.96323   0.00000  Uiso   1.00
C984   C     0.04934   0.79613   0.51388   0.00000  Uiso   1.00
C985   C     0.27890   0.88845   0.98970   0.00000  Uiso   1.00
C986   C     0.18968   0.98925   0.75247   0.00000  Uiso   1.00
C987   C     0.14378   0.67742   0.74730   0.00000  Uiso   1.00
C988   C     0.12848   0.82971   0.83295   0.00000  Uiso   1.00
Cu989  Cu    0.10737   0.82775   0.74516   0.00000  Uiso   1.00
Cu990  Cu    0.22596   0.83892   0.75483   0.00000  Uiso   1.00
H991   H     0.00118   0.77747   0.52815   0.00000  Uiso   1.00
H992   H     0.25385   0.89036   0.93079   0.00000  Uiso   1.00
H993   H     0.23388   0.67954   0.75754   0.00000  Uiso   1.00
H994   H     0.09961   0.98713   0.74219   0.00000  Uiso   1.00
H995   H     0.30213   0.86488   0.83929   0.00000  Uiso   1.00
H996   H     0.27115   0.91633   0.82160   0.00000  Uiso   1.00
H997   H     0.03546   0.98092   0.82487   0.00000  Uiso   1.00
H998   H     0.33287   0.95027   0.87662   0.00000  Uiso   1.00
H999   H     0.06746   0.93006   0.84157   0.00000  Uiso   1.00
H1000  H     0.06241   0.75037   0.67832   0.00000  Uiso   1.00
H1001  H     0.03285   0.80270   0.66061   0.00000  Uiso   1.00
H1002  H     0.32571   0.91075   0.97628   0.00000  Uiso   1.00
H1003  H     0.26707   0.73836   0.65723   0.00000  Uiso   1.00
H1004  H     0.00189   0.71851   0.62217   0.00000  Uiso   1.00
H1005  H     0.29835   0.68673   0.67339   0.00000  Uiso   1.00
H1006  H     0.14041   0.80509   0.60808   0.00000  Uiso   1.00
H1007  H     0.19649   0.85619   0.89059   0.00000  Uiso   1.00
H1008  H     0.32196   0.88510   0.62251   0.00000  Uiso   1.00
H1009  H     0.00865   0.79252   0.87960   0.00000  Uiso   1.00
H1010  H     0.30914   0.77682   0.95782   0.00000  Uiso   1.00
H1011  H     0.01906   0.90832   0.54574   0.00000  Uiso   1.00
H1012  H     0.07275   0.79802   0.57380   0.00000  Uiso   1.00
N1013  N     0.31506   0.84735   0.76212   0.00000  Uiso   1.00
N1014  N     0.01827   0.81932   0.73788   0.00000  Uiso   1.00
O1015  O     0.12815   0.90476   0.74686   0.00000  Uiso   1.00
O1016  O     0.32128   0.77384   0.72260   0.00000  Uiso   1.00
O1017  O     0.20518   0.76191   0.75314   0.00000  Uiso   1.00
O1018  O     0.22829   0.91420   0.75502   0.00000  Uiso   1.00
O1019  O     0.10504   0.75247   0.74498   0.00000  Uiso   1.00
O1020  O     0.08851   0.82597   0.80854   0.00000  Uiso   1.00
O1021  O     0.24482   0.84070   0.69145   0.00000  Uiso   1.00
O1022  O     0.18866   0.83540   0.81671   0.00000  Uiso   1.00
O1023  O     0.14468   0.83126   0.68329   0.00000  Uiso   1.00
O1024  O     0.01210   0.89313   0.77690   0.00000  Uiso   1.00
C1025  C     0.51486   0.93327   0.75144   0.00000  Uiso   1.00
C1026  C     0.53820   0.83734   0.66711   0.00000  Uiso   1.00
C1027  C     0.43893   0.82555   0.88040   0.00000  Uiso   1.00
C1028  C     0.56102   0.84480   0.62007   0.00000  Uiso   1.00
C1029  C     0.35759   0.79492   0.94387   0.00000  Uiso   1.00
C1030  C     0.63868   0.88631   0.55884   0.00000  Uiso   1.00
C1031  C     0.37614   0.80407   0.89935   0.00000  Uiso   1.00
C1032  C     0.62174   0.87254   0.60239   0.00000  Uiso   1.00
C1033  C     0.48206   0.84039   0.90664   0.00000  Uiso   1.00
C1034  C     0.51851   0.82893   0.59351   0.00000  Uiso   1.00
C1035  C     0.46444   0.83258   0.95178   0.00000  Uiso   1.00
C1036  C     0.48519   0.73340   0.74848   0.00000  Uiso   1.00
C1037  C     0.53338   0.84416   0.54997   0.00000  Uiso   1.00
C1038  C     0.40139   0.80800   0.96997   0.00000  Uiso   1.00
C1039  C     0.59496   0.87284   0.53269   0.00000  Uiso   1.00
C1040  C     0.50807   0.84679   0.97893   0.00000  Uiso   1.00
C1041  C     0.48880   0.83239   0.52344   0.00000  Uiso   1.00
C1042  C     0.64749   0.90154   0.82040   0.00000  Uiso   1.00
C1043  C     0.35690   0.94330   0.84218   0.00000  Uiso   1.00
C1044  C     0.35324   0.76575   0.67921   0.00000  Uiso   1.00
C1045  C     0.64406   0.72476   0.65664   0.00000  Uiso   1.00
C1046  C     0.42530   0.80782   0.54015   0.00000  Uiso   1.00
C1047  C     0.56996   0.87563   0.96323   0.00000  Uiso   1.00
C1048  C     0.38267   0.79613   0.51388   0.00000  Uiso   1.00
C1049  C     0.61224   0.88845   0.98970   0.00000  Uiso   1.00
C1050  C     0.52302   0.98925   0.75247   0.00000  Uiso   1.00
C1051  C     0.47712   0.67742   0.74730   0.00000  Uiso   1.00
C1052  C     0.46181   0.82971   0.83295   0.00000  Uiso   1.00
Cu1053 Cu    0.44071   0.82775   0.74516   0.00000  Uiso   1.00
Cu1054 Cu    0.55929   0.83892   0.75483   0.00000  Uiso   1.00
H1055  H     0.33451   0.77747   0.52815   0.00000  Uiso   1.00
H1056  H     0.58718   0.89036   0.93079   0.00000  Uiso   1.00
H1057  H     0.56721   0.67954   0.75754   0.00000  Uiso   1.00
H1058  H     0.43294   0.98713   0.74219   0.00000  Uiso   1.00
H1059  H     0.63546   0.86488   0.83929   0.00000  Uiso   1.00
H1060  H     0.60448   0.91633   0.82160   0.00000  Uiso   1.00
H1061  H     0.36880   0.98092   0.82487   0.00000  Uiso   1.00
H1062  H     0.66620   0.95027   0.87662   0.00000  Uiso   1.00
H1063  H     0.40079   0.93006   0.84157   0.00000  Uiso   1.00
H1064  H     0.39574   0.75037   0.67832   0.00000  Uiso   1.00
H1065  H     0.36619   0.80270   0.66061   0.00000  Uiso   1.00
H1066  H     0.65904   0.91075   0.97628   0.00000  Uiso   1.00
H1067  H     0.60041   0.73836   0.65723   0.00000  Uiso   1.00
H1068  H     0.33522   0.71851   0.62217   0.00000  Uiso   1.00
H1069  H     0.63169   0.68673   0.67339   0.00000  Uiso   1.00
H1070  H     0.47375   0.80509   0.60808   0.00000  Uiso   1.00
H1071  H     0.52982   0.85619   0.89059   0.00000  Uiso   1.00
H1072  H     0.65529   0.88510   0.62251   0.00000  Uiso   1.00
H1073  H     0.34198   0.79252   0.87960   0.00000  Uiso   1.00
H1074  H     0.64247   0.77682   0.95782   0.00000  Uiso   1.00
H1075  H     0.35239   0.90832   0.54574   0.00000  Uiso   1.00
H1076  H     0.40609   0.79802   0.57380   0.00000  Uiso   1.00
N1077  N     0.64839   0.84735   0.76212   0.00000  Uiso   1.00
N1078  N     0.35161   0.81932   0.73788   0.00000  Uiso   1.00
O1079  O     0.46148   0.90476   0.74686   0.00000  Uiso   1.00
O1080  O     0.65461   0.77384   0.72260   0.00000  Uiso   1.00
O1081  O     0.53852   0.76191   0.75314   0.00000  Uiso   1.00
O1082  O     0.56163   0.91420   0.75502   0.00000  Uiso   1.00
O1083  O     0.43837   0.75247   0.74498   0.00000  Uiso   1.00
O1084  O     0.42185   0.82597   0.80854   0.00000  Uiso   1.00
O1085  O     0.57815   0.84070   0.69145   0.00000  Uiso   1.00
O1086  O     0.52199   0.83540   0.81671   0.00000  Uiso   1.00
O1087  O     0.47801   0.83126   0.68329   0.00000  Uiso   1.00
O1088  O     0.34544   0.89313   0.77690   0.00000  Uiso   1.00
C1089  C     0.84819   0.93327   0.75144   0.00000  Uiso   1.00
C1090  C     0.87153   0.83734   0.66711   0.00000  Uiso   1.00
C1091  C     0.77226   0.82555   0.88040   0.00000  Uiso   1.00
C1092  C     0.89435   0.84480   0.62007   0.00000  Uiso   1.00
C1093  C     0.69093   0.79492   0.94387   0.00000  Uiso   1.00
C1094  C     0.97201   0.88631   0.55884   0.00000  Uiso   1.00
C1095  C     0.70947   0.80407   0.89935   0.00000  Uiso   1.00
C1096  C     0.95507   0.87254   0.60239   0.00000  Uiso   1.00
C1097  C     0.81539   0.84039   0.90664   0.00000  Uiso   1.00
C1098  C     0.85184   0.82893   0.59351   0.00000  Uiso   1.00
C1099  C     0.79777   0.83258   0.95178   0.00000  Uiso   1.00
C1100  C     0.81852   0.73340   0.74848   0.00000  Uiso   1.00
C1101  C     0.86672   0.84416   0.54997   0.00000  Uiso   1.00
C1102  C     0.73472   0.80800   0.96997   0.00000  Uiso   1.00
C1103  C     0.92830   0.87284   0.53269   0.00000  Uiso   1.00
C1104  C     0.84140   0.84679   0.97893   0.00000  Uiso   1.00
C1105  C     0.82213   0.83239   0.52344   0.00000  Uiso   1.00
C1106  C     0.98082   0.90154   0.82040   0.00000  Uiso   1.00
C1107  C     0.69024   0.94330   0.84218   0.00000  Uiso   1.00
C1108  C     0.68657   0.76575   0.67921   0.00000  Uiso   1.00
C1109  C     0.97739   0.72476   0.65664   0.00000  Uiso   1.00
C1110  C     0.75864   0.80782   0.54015   0.00000  Uiso   1.00
C1111  C     0.90329   0.87563   0.96323   0.00000  Uiso   1.00
C1112  C     0.71601   0.79613   0.51388   0.00000  Uiso   1.00
C1113  C     0.94557   0.88845   0.98970   0.00000  Uiso   1.00
C1114  C     0.85635   0.98925   0.75247   0.00000  Uiso   1.00
C1115  C     0.81045   0.67742   0.74730   0.00000  Uiso   1.00
C1116  C     0.79514   0.82971   0.83295   0.00000  Uiso   1.00
Cu1117 Cu    0.77404   0.82775   0.74516   0.00000  Uiso   1.00
Cu1118 Cu    0.89263   0.83892   0.75483   0.00000  Uiso   1.00
H1119  H     0.66784   0.77747   0.52815   0.00000  Uiso   1.00
H1120  H     0.92051   0.89036   0.93079   0.00000  Uiso   1.00
H1121  H     0.90054   0.67954   0.75754   0.00000  Uiso   1.00
H1122  H     0.76627   0.98713   0.74219   0.00000  Uiso   1.00
H1123  H     0.96880   0.86488   0.83929   0.00000  Uiso   1.00
H1124  H     0.93782   0.91633   0.82160   0.00000  Uiso   1.00
H1125  H     0.70213   0.98092   0.82487   0.00000  Uiso   1.00
H1126  H     0.99954   0.95027   0.87662   0.00000  Uiso   1.00
H1127  H     0.73413   0.93006   0.84157   0.00000  Uiso   1.00
H1128  H     0.72908   0.75037   0.67832   0.00000  Uiso   1.00
H1129  H     0.69952   0.80270   0.66061   0.00000  Uiso   1.00
H1130  H     0.99237   0.91075   0.97628   0.00000  Uiso   1.00
H1131  H     0.93374   0.73836   0.65723   0.00000  Uiso   1.00
H1132  H     0.66855   0.71851   0.62217   0.00000  Uiso   1.00
H1133  H     0.96502   0.68673   0.67339   0.00000  Uiso   1.00
H1134  H     0.80708   0.80509   0.60808   0.00000  Uiso   1.00
H1135  H     0.86315   0.85619   0.89059   0.00000  Uiso   1.00
H1136  H     0.98863   0.88510   0.62251   0.00000  Uiso   1.00
H1137  H     0.67532   0.79252   0.87960   0.00000  Uiso   1.00
H1138  H     0.97581   0.77682   0.95782   0.00000  Uiso   1.00
H1139  H     0.68572   0.90832   0.54574   0.00000  Uiso   1.00
H1140  H     0.73942   0.79802   0.57380   0.00000  Uiso   1.00
N1141  N     0.98173   0.84735   0.76212   0.00000  Uiso   1.00
N1142  N     0.68494   0.81932   0.73788   0.00000  Uiso   1.00
O1143  O     0.79482   0.90476   0.74686   0.00000  Uiso   1.00
O1144  O     0.98794   0.77384   0.72260   0.00000  Uiso   1.00
O1145  O     0.87185   0.76191   0.75314   0.00000  Uiso   1.00
O1146  O     0.89496   0.91420   0.75502   0.00000  Uiso   1.00
O1147  O     0.77171   0.75247   0.74498   0.00000  Uiso   1.00
O1148  O     0.75518   0.82597   0.80854   0.00000  Uiso   1.00
O1149  O     0.91149   0.84070   0.69145   0.00000  Uiso   1.00
O1150  O     0.85532   0.83540   0.81671   0.00000  Uiso   1.00
O1151  O     0.81134   0.83126   0.68329   0.00000  Uiso   1.00
O1152  O     0.67877   0.89313   0.77690   0.00000  Uiso   1.00
loop_
_geom_bond_atom_site_label_1
_geom_bond_atom_site_label_2
_geom_bond_distance
_geom_bond_site_symmetry_2
_ccdc_geom_bond_type
C1     O55     1.298   .     A
C1     C26     1.426   .     S
C1     O58     1.290   .     A
C2     C4      1.465   .     S
C2     O63     1.303   .     A
C2     O61     1.305   .     A
C3     C9      1.398   .     A
C3     C28     1.467   .     S
C3     C7      1.399   .     A
C4     C10     1.397   .     A
C4     C8      1.398   .     A
C5     C14     1.404   .     A
C5     C7      1.392   .     A
C5     H178    1.084   1_455 S
C6     C8      1.392   .     A
C6     C15     1.404   .     A
C6     H115    1.084   .     S
C7     H49     1.083   .     S
C8     H48     1.083   .     S
C9     C11     1.405   .     A
C9     H47     1.073   .     S
C10    H46     1.074   .     S
C10    C13     1.405   .     A
C11    C14     1.418   .     A
C11    C16     1.427   .     A
C12    O57     1.298   .     A
C12    C27     1.426   .     S
C12    O59     1.291   .     A
C13    C17     1.428   .     A
C13    C15     1.419   .     A
C14    C600    1.389   .     S
C15    C601    1.389   1_554 S
C16    C23     1.417   .     A
C16    C593    1.425   .     S
C17    C22     1.417   .     A
C17    C592    1.425   1_554 S
C18    H35     1.115   .     S
C18    H36     1.109   .     S
C18    C83     1.522   .     S
C18    O128    1.406   .     S
C19    H39     1.111   .     S
C19    H37     1.111   .     S
C19    C146    1.522   1_455 S
C19    H166    1.110   1_455 S
C20    H41     1.115   .     S
C20    H40     1.109   .     S
C20    C149    1.522   1_455 S
C20    O184    1.406   1_455 S
C21    H45     1.110   .     S
C21    H43     1.110   .     S
C21    C84     1.522   .     S
C21    H108    1.110   .     S
C22    C24     1.386   .     A
C22    H52     1.075   .     S
C23    H32     1.075   .     S
C23    C25     1.386   .     A
C24    H31     1.085   .     S
C24    C590    1.389   1_554 S
C25    H42     1.085   .     S
C25    C591    1.389   .     S
C26    C219    1.327   .     S
C26    H225    1.087   .     S
C27    C410    1.327   1_545 S
C27    H418    1.087   1_545 S
C28    O60     1.305   .     A
C28    O62     1.304   .     A
Cu29   Cu30    2.708   .     S
Cu29   O55     1.954   .     S
Cu29   O60     1.947   .     S
Cu29   O63     1.932   .     S
Cu29   N54     2.035   .     S
Cu29   O59     1.948   .     S
Cu30   O58     1.948   .     S
Cu30   N53     2.035   .     S
Cu30   O62     1.932   .     S
Cu30   O57     1.954   .     S
Cu30   O61     1.947   .     S
H33    C410    1.087   1_545 S
H34    C219    1.087   .     S
H38    C83     1.110   .     S
H44    C149    1.110   1_455 S
H50    C69     1.084   .     S
H51    C134    1.084   1_455 S
N53    N118    1.287   .     S
N53    O128    1.344   .     S
N54    N181    1.287   1_455 S
N54    O184    1.344   1_455 S
O56    N118    1.344   .     S
O56    C84     1.406   .     S
O64    N181    1.344   1_455 S
O64    C146    1.406   1_455 S
C65    O119    1.298   .     A
C65    C90     1.426   .     S
C65    O122    1.290   .     A
C66    C68     1.465   .     S
C66    O127    1.303   .     A
C66    O125    1.305   .     A
C67    C73     1.398   .     A
C67    C92     1.467   .     S
C67    C71     1.399   .     A
C68    C74     1.397   .     A
C68    C72     1.398   .     A
C69    C78     1.404   .     A
C69    C71     1.392   .     A
C70    C72     1.392   .     A
C70    C79     1.404   .     A
C70    H179    1.084   .     S
C71    H113    1.083   .     S
C72    H112    1.083   .     S
C73    C75     1.405   .     A
C73    H111    1.073   .     S
C74    H110    1.074   .     S
C74    C77     1.405   .     A
C75    C78     1.418   .     A
C75    C80     1.427   .     A
C76    O121    1.298   .     A
C76    C91     1.426   .     S
C76    O123    1.291   .     A
C77    C81     1.428   .     A
C77    C79     1.419   .     A
C78    C664    1.389   .     S
C79    C665    1.389   1_554 S
C80    C87     1.417   .     A
C80    C657    1.425   .     S
C81    C86     1.417   .     A
C81    C656    1.425   1_554 S
C82    H99     1.115   .     S
C82    H100    1.109   .     S
C82    C147    1.522   .     S
C82    O192    1.406   .     S
C83    H103    1.111   .     S
C83    H101    1.111   .     S
C84    H105    1.115   .     S
C84    H104    1.109   .     S
C85    H109    1.110   .     S
C85    H107    1.110   .     S
C85    C148    1.522   .     S
C85    H172    1.110   .     S
C86    C88     1.386   .     A
C86    H116    1.075   .     S
C87    H96     1.075   .     S
C87    C89     1.386   .     A
C88    H95     1.085   .     S
C88    C654    1.389   1_554 S
C89    H106    1.085   .     S
C89    C655    1.389   .     S
C90    C283    1.327   .     S
C90    H289    1.087   .     S
C91    C474    1.327   1_545 S
C91    H482    1.087   1_545 S
C92    O124    1.305   .     A
C92    O126    1.304   .     A
Cu93   Cu94    2.708   .     S
Cu93   O119    1.954   .     S
Cu93   O124    1.947   .     S
Cu93   O127    1.932   .     S
Cu93   N118    2.035   .     S
Cu93   O123    1.948   .     S
Cu94   O122    1.948   .     S
Cu94   N117    2.035   .     S
Cu94   O126    1.932   .     S
Cu94   O121    1.954   .     S
Cu94   O125    1.947   .     S
H97    C474    1.087   1_545 S
H98    C283    1.087   .     S
H102   C147    1.110   .     S
H114   C133    1.084   .     S
N117   N182    1.287   .     S
N117   O192    1.344   .     S
O120   N182    1.344   .     S
O120   C148    1.406   .     S
C129   O183    1.298   .     A
C129   C154    1.426   .     S
C129   O186    1.290   .     A
C130   C132    1.465   .     S
C130   O191    1.303   .     A
C130   O189    1.305   .     A
C131   C137    1.398   .     A
C131   C156    1.467   .     S
C131   C135    1.399   .     A
C132   C138    1.397   .     A
C132   C136    1.398   .     A
C133   C142    1.404   .     A
C133   C135    1.392   .     A
C134   C136    1.392   .     A
C134   C143    1.404   .     A
C134   H51     1.084   1_655 S
C135   H177    1.083   .     S
C136   H176    1.083   .     S
C137   C139    1.405   .     A
C137   H175    1.073   .     S
C138   H174    1.074   .     S
C138   C141    1.405   .     A
C139   C142    1.418   .     A
C139   C144    1.427   .     A
C140   O185    1.298   .     A
C140   C155    1.426   .     S
C140   O187    1.291   .     A
C141   C145    1.428   .     A
C141   C143    1.419   .     A
C142   C728    1.389   .     S
C143   C729    1.389   1_554 S
C144   C151    1.417   .     A
C144   C721    1.425   .     S
C145   C150    1.417   .     A
C145   C720    1.425   1_554 S
C146   H163    1.115   .     S
C146   H164    1.109   .     S
C146   C19     1.522   1_655 S
C146   O64     1.406   1_655 S
C147   H167    1.111   .     S
C147   H165    1.111   .     S
C148   H169    1.115   .     S
C148   H168    1.109   .     S
C149   H173    1.110   .     S
C149   H171    1.110   .     S
C149   C20     1.522   1_655 S
C149   H44     1.110   1_655 S
C150   C152    1.386   .     A
C150   H180    1.075   .     S
C151   H160    1.075   .     S
C151   C153    1.386   .     A
C152   H159    1.085   .     S
C152   C718    1.389   1_554 S
C153   H170    1.085   .     S
C153   C719    1.389   .     S
C154   C347    1.327   .     S
C154   H353    1.087   .     S
C155   C538    1.327   1_545 S
C155   H546    1.087   1_545 S
C156   O188    1.305   .     A
C156   O190    1.304   .     A
Cu157  Cu158   2.708   .     S
Cu157  O183    1.954   .     S
Cu157  O188    1.947   .     S
Cu157  O191    1.932   .     S
Cu157  N182    2.035   .     S
Cu157  O187    1.948   .     S
Cu158  O186    1.948   .     S
Cu158  N181    2.035   .     S
Cu158  O190    1.932   .     S
Cu158  O185    1.954   .     S
Cu158  O189    1.947   .     S
H161   C538    1.087   1_545 S
H162   C347    1.087   .     S
H166   C19     1.110   1_655 S
H178   C5      1.084   1_655 S
N181   N54     1.287   1_655 S
N181   O64     1.344   1_655 S
O184   N54     1.344   1_655 S
O184   C20     1.406   1_655 S
C193   O247    1.298   .     A
C193   C218    1.426   .     S
C193   O250    1.290   .     A
C194   C196    1.465   .     S
C194   O255    1.303   .     A
C194   O253    1.305   .     A
C195   C201    1.398   .     A
C195   C220    1.467   .     S
C195   C199    1.399   .     A
C196   C202    1.397   .     A
C196   C200    1.398   .     A
C197   C206    1.404   .     A
C197   C199    1.392   .     A
C197   H370    1.084   1_455 S
C198   C200    1.392   .     A
C198   C207    1.404   .     A
C198   H307    1.084   .     S
C199   H241    1.083   .     S
C200   H240    1.083   .     S
C201   C203    1.405   .     A
C201   H239    1.073   .     S
C202   H238    1.074   .     S
C202   C205    1.405   .     A
C203   C206    1.418   .     A
C203   C208    1.427   .     A
C204   O249    1.298   .     A
C204   C219    1.426   .     S
C204   O251    1.291   .     A
C205   C209    1.428   .     A
C205   C207    1.419   .     A
C206   C792    1.389   .     S
C207   C793    1.389   1_554 S
C208   C215    1.417   .     A
C208   C785    1.425   .     S
C209   C214    1.417   .     A
C209   C784    1.425   1_554 S
C210   H227    1.115   .     S
C210   H228    1.109   .     S
C210   C275    1.522   .     S
C210   O320    1.406   .     S
C211   H231    1.111   .     S
C211   H229    1.111   .     S
C211   C338    1.522   1_455 S
C211   H358    1.110   1_455 S
C212   H233    1.115   .     S
C212   H232    1.109   .     S
C212   C341    1.522   1_455 S
C212   O376    1.406   1_455 S
C213   H237    1.110   .     S
C213   H235    1.110   .     S
C213   C276    1.522   .     S
C213   H300    1.110   .     S
C214   C216    1.386   .     A
C214   H244    1.075   .     S
C215   H224    1.075   .     S
C215   C217    1.386   .     A
C216   H223    1.085   .     S
C216   C782    1.389   1_554 S
C217   H234    1.085   .     S
C217   C783    1.389   .     S
C218   C411    1.327   .     S
C218   H417    1.087   .     S
C220   O252    1.305   .     A
C220   O254    1.304   .     A
Cu221  Cu222   2.708   .     S
Cu221  O247    1.954   .     S
Cu221  O252    1.947   .     S
Cu221  O255    1.932   .     S
Cu221  N246    2.035   .     S
Cu221  O251    1.948   .     S
Cu222  O250    1.948   .     S
Cu222  N245    2.035   .     S
Cu222  O254    1.932   .     S
Cu222  O249    1.954   .     S
Cu222  O253    1.947   .     S
H226   C411    1.087   .     S
H230   C275    1.110   .     S
H236   C341    1.110   1_455 S
H242   C261    1.084   .     S
H243   C326    1.084   1_455 S
N245   N310    1.287   .     S
N245   O320    1.344   .     S
N246   N373    1.287   1_455 S
N246   O376    1.344   1_455 S
O248   N310    1.344   .     S
O248   C276    1.406   .     S
O256   N373    1.344   1_455 S
O256   C338    1.406   1_455 S
C257   O311    1.298   .     A
C257   C282    1.426   .     S
C257   O314    1.290   .     A
C258   C260    1.465   .     S
C258   O319    1.303   .     A
C258   O317    1.305   .     A
C259   C265    1.398   .     A
C259   C284    1.467   .     S
C259   C263    1.399   .     A
C260   C266    1.397   .     A
C260   C264    1.398   .     A
C261   C270    1.404   .     A
C261   C263    1.392   .     A
C262   C264    1.392   .     A
C262   C271    1.404   .     A
C262   H371    1.084   .     S
C263   H305    1.083   .     S
C264   H304    1.083   .     S
C265   C267    1.405   .     A
C265   H303    1.073   .     S
C266   H302    1.074   .     S
C266   C269    1.405   .     A
C267   C270    1.418   .     A
C267   C272    1.427   .     A
C268   O313    1.298   .     A
C268   C283    1.426   .     S
C268   O315    1.291   .     A
C269   C273    1.428   .     A
C269   C271    1.419   .     A
C270   C856    1.389   .     S
C271   C857    1.389   1_554 S
C272   C279    1.417   .     A
C272   C849    1.425   .     S
C273   C278    1.417   .     A
C273   C848    1.425   1_554 S
C274   H291    1.115   .     S
C274   H292    1.109   .     S
C274   C339    1.522   .     S
C274   O384    1.406   .     S
C275   H295    1.111   .     S
C275   H293    1.111   .     S
C276   H297    1.115   .     S
C276   H296    1.109   .     S
C277   H301    1.110   .     S
C277   H299    1.110   .     S
C277   C340    1.522   .     S
C277   H364    1.110   .     S
C278   C280    1.386   .     A
C278   H308    1.075   .     S
C279   H288    1.075   .     S
C279   C281    1.386   .     A
C280   H287    1.085   .     S
C280   C846    1.389   1_554 S
C281   H298    1.085   .     S
C281   C847    1.389   .     S
C282   C475    1.327   .     S
C282   H481    1.087   .     S
C284   O316    1.305   .     A
C284   O318    1.304   .     A
Cu285  Cu286   2.708   .     S
Cu285  O311    1.954   .     S
Cu285  O316    1.947   .     S
Cu285  O319    1.932   .     S
Cu285  N310    2.035   .     S
Cu285  O315    1.948   .     S
Cu286  O314    1.948   .     S
Cu286  N309    2.035   .     S
Cu286  O318    1.932   .     S
Cu286  O313    1.954   .     S
Cu286  O317    1.947   .     S
H290   C475    1.087   .     S
H294   C339    1.110   .     S
H306   C325    1.084   .     S
N309   N374    1.287   .     S
N309   O384    1.344   .     S
O312   N374    1.344   .     S
O312   C340    1.406   .     S
C321   O375    1.298   .     A
C321   C346    1.426   .     S
C321   O378    1.290   .     A
C322   C324    1.465   .     S
C322   O383    1.303   .     A
C322   O381    1.305   .     A
C323   C329    1.398   .     A
C323   C348    1.467   .     S
C323   C327    1.399   .     A
C324   C330    1.397   .     A
C324   C328    1.398   .     A
C325   C334    1.404   .     A
C325   C327    1.392   .     A
C326   C328    1.392   .     A
C326   C335    1.404   .     A
C326   H243    1.084   1_655 S
C327   H369    1.083   .     S
C328   H368    1.083   .     S
C329   C331    1.405   .     A
C329   H367    1.073   .     S
C330   H366    1.074   .     S
C330   C333    1.405   .     A
C331   C334    1.418   .     A
C331   C336    1.427   .     A
C332   O377    1.298   .     A
C332   C347    1.426   .     S
C332   O379    1.291   .     A
C333   C337    1.428   .     A
C333   C335    1.419   .     A
C334   C920    1.389   .     S
C335   C921    1.389   1_554 S
C336   C343    1.417   .     A
C336   C913    1.425   .     S
C337   C342    1.417   .     A
C337   C912    1.425   1_554 S
C338   H355    1.115   .     S
C338   H356    1.109   .     S
C338   C211    1.522   1_655 S
C338   O256    1.406   1_655 S
C339   H359    1.111   .     S
C339   H357    1.111   .     S
C340   H361    1.115   .     S
C340   H360    1.109   .     S
C341   H365    1.110   .     S
C341   H363    1.110   .     S
C341   C212    1.522   1_655 S
C341   H236    1.110   1_655 S
C342   C344    1.386   .     A
C342   H372    1.075   .     S
C343   H352    1.075   .     S
C343   C345    1.386   .     A
C344   H351    1.085   .     S
C344   C910    1.389   1_554 S
C345   H362    1.085   .     S
C345   C911    1.389   .     S
C346   C539    1.327   .     S
C346   H545    1.087   .     S
C348   O380    1.305   .     A
C348   O382    1.304   .     A
Cu349  Cu350   2.708   .     S
Cu349  O375    1.954   .     S
Cu349  O380    1.947   .     S
Cu349  O383    1.932   .     S
Cu349  N374    2.035   .     S
Cu349  O379    1.948   .     S
Cu350  O378    1.948   .     S
Cu350  N373    2.035   .     S
Cu350  O382    1.932   .     S
Cu350  O377    1.954   .     S
Cu350  O381    1.947   .     S
H354   C539    1.087   .     S
H358   C211    1.110   1_655 S
H370   C197    1.084   1_655 S
N373   N246    1.287   1_655 S
N373   O256    1.344   1_655 S
O376   N246    1.344   1_655 S
O376   C212    1.406   1_655 S
C385   O439    1.298   .     A
C385   C410    1.426   .     S
C385   O442    1.290   .     A
C386   C388    1.465   .     S
C386   O447    1.303   .     A
C386   O445    1.305   .     A
C387   C393    1.398   .     A
C387   C412    1.467   .     S
C387   C391    1.399   .     A
C388   C394    1.397   .     A
C388   C392    1.398   .     A
C389   C398    1.404   .     A
C389   C391    1.392   .     A
C389   H562    1.084   1_455 S
C390   C392    1.392   .     A
C390   C399    1.404   .     A
C390   H499    1.084   .     S
C391   H433    1.083   .     S
C392   H432    1.083   .     S
C393   C395    1.405   .     A
C393   H431    1.073   .     S
C394   H430    1.074   .     S
C394   C397    1.405   .     A
C395   C398    1.418   .     A
C395   C400    1.427   .     A
C396   O441    1.298   .     A
C396   C411    1.426   .     S
C396   O443    1.291   .     A
C397   C401    1.428   .     A
C397   C399    1.419   .     A
C398   C984    1.389   .     S
C399   C985    1.389   1_554 S
C400   C407    1.417   .     A
C400   C977    1.425   .     S
C401   C406    1.417   .     A
C401   C976    1.425   1_554 S
C402   H419    1.115   .     S
C402   H420    1.109   .     S
C402   C467    1.522   .     S
C402   O512    1.406   .     S
C403   H423    1.111   .     S
C403   H421    1.111   .     S
C403   C530    1.522   1_455 S
C403   H550    1.110   1_455 S
C404   H425    1.115   .     S
C404   H424    1.109   .     S
C404   C533    1.522   1_455 S
C404   O568    1.406   1_455 S
C405   H429    1.110   .     S
C405   H427    1.110   .     S
C405   C468    1.522   .     S
C405   H492    1.110   .     S
C406   C408    1.386   .     A
C406   H436    1.075   .     S
C407   H416    1.075   .     S
C407   C409    1.386   .     A
C408   H415    1.085   .     S
C408   C974    1.389   1_554 S
C409   H426    1.085   .     S
C409   C975    1.389   .     S
C410   C27     1.327   1_565 S
C410   H33     1.087   1_565 S
C412   O444    1.305   .     A
C412   O446    1.304   .     A
Cu413  Cu414   2.708   .     S
Cu413  O439    1.954   .     S
Cu413  O444    1.947   .     S
Cu413  O447    1.932   .     S
Cu413  N438    2.035   .     S
Cu413  O443    1.948   .     S
Cu414  O442    1.948   .     S
Cu414  N437    2.035   .     S
Cu414  O446    1.932   .     S
Cu414  O441    1.954   .     S
Cu414  O445    1.947   .     S
H418   C27     1.087   1_565 S
H422   C467    1.110   .     S
H428   C533    1.110   1_455 S
H434   C453    1.084   .     S
H435   C518    1.084   1_455 S
N437   N502    1.287   .     S
N437   O512    1.344   .     S
N438   N565    1.287   1_455 S
N438   O568    1.344   1_455 S
O440   N502    1.344   .     S
O440   C468    1.406   .     S
O448   N565    1.344   1_455 S
O448   C530    1.406   1_455 S
C449   O503    1.298   .     A
C449   C474    1.426   .     S
C449   O506    1.290   .     A
C450   C452    1.465   .     S
C450   O511    1.303   .     A
C450   O509    1.305   .     A
C451   C457    1.398   .     A
C451   C476    1.467   .     S
C451   C455    1.399   .     A
C452   C458    1.397   .     A
C452   C456    1.398   .     A
C453   C462    1.404   .     A
C453   C455    1.392   .     A
C454   C456    1.392   .     A
C454   C463    1.404   .     A
C454   H563    1.084   .     S
C455   H497    1.083   .     S
C456   H496    1.083   .     S
C457   C459    1.405   .     A
C457   H495    1.073   .     S
C458   H494    1.074   .     S
C458   C461    1.405   .     A
C459   C462    1.418   .     A
C459   C464    1.427   .     A
C460   O505    1.298   .     A
C460   C475    1.426   .     S
C460   O507    1.291   .     A
C461   C465    1.428   .     A
C461   C463    1.419   .     A
C462   C1048   1.389   .     S
C463   C1049   1.389   1_554 S
C464   C471    1.417   .     A
C464   C1041   1.425   .     S
C465   C470    1.417   .     A
C465   C1040   1.425   1_554 S
C466   H483    1.115   .     S
C466   H484    1.109   .     S
C466   C531    1.522   .     S
C466   O576    1.406   .     S
C467   H487    1.111   .     S
C467   H485    1.111   .     S
C468   H489    1.115   .     S
C468   H488    1.109   .     S
C469   H493    1.110   .     S
C469   H491    1.110   .     S
C469   C532    1.522   .     S
C469   H556    1.110   .     S
C470   C472    1.386   .     A
C470   H500    1.075   .     S
C471   H480    1.075   .     S
C471   C473    1.386   .     A
C472   H479    1.085   .     S
C472   C1038   1.389   1_554 S
C473   H490    1.085   .     S
C473   C1039   1.389   .     S
C474   C91     1.327   1_565 S
C474   H97     1.087   1_565 S
C476   O508    1.305   .     A
C476   O510    1.304   .     A
Cu477  Cu478   2.708   .     S
Cu477  O503    1.954   .     S
Cu477  O508    1.947   .     S
Cu477  O511    1.932   .     S
Cu477  N502    2.035   .     S
Cu477  O507    1.948   .     S
Cu478  O506    1.948   .     S
Cu478  N501    2.035   .     S
Cu478  O510    1.932   .     S
Cu478  O505    1.954   .     S
Cu478  O509    1.947   .     S
H482   C91     1.087   1_565 S
H486   C531    1.110   .     S
H498   C517    1.084   .     S
N501   N566    1.287   .     S
N501   O576    1.344   .     S
O504   N566    1.344   .     S
O504   C532    1.406   .     S
C513   O567    1.298   .     A
C513   C538    1.426   .     S
C513   O570    1.290   .     A
C514   C516    1.465   .     S
C514   O575    1.303   .     A
C514   O573    1.305   .     A
C515   C521    1.398   .     A
C515   C540    1.467   .     S
C515   C519    1.399   .     A
C516   C522    1.397   .     A
C516   C520    1.398   .     A
C517   C526    1.404   .     A
C517   C519    1.392   .     A
C518   C520    1.392   .     A
C518   C527    1.404   .     A
C518   H435    1.084   1_655 S
C519   H561    1.083   .     S
C520   H560    1.083   .     S
C521   C523    1.405   .     A
C521   H559    1.073   .     S
C522   H558    1.074   .     S
C522   C525    1.405   .     A
C523   C526    1.418   .     A
C523   C528    1.427   .     A
C524   O569    1.298   .     A
C524   C539    1.426   .     S
C524   O571    1.291   .     A
C525   C529    1.428   .     A
C525   C527    1.419   .     A
C526   C1112   1.389   .     S
C527   C1113   1.389   1_554 S
C528   C535    1.417   .     A
C528   C1105   1.425   .     S
C529   C534    1.417   .     A
C529   C1104   1.425   1_554 S
C530   H547    1.115   .     S
C530   H548    1.109   .     S
C530   C403    1.522   1_655 S
C530   O448    1.406   1_655 S
C531   H551    1.111   .     S
C531   H549    1.111   .     S
C532   H553    1.115   .     S
C532   H552    1.109   .     S
C533   H557    1.110   .     S
C533   H555    1.110   .     S
C533   C404    1.522   1_655 S
C533   H428    1.110   1_655 S
C534   C536    1.386   .     A
C534   H564    1.075   .     S
C535   H544    1.075   .     S
C535   C537    1.386   .     A
C536   H543    1.085   .     S
C536   C1102   1.389   1_554 S
C537   H554    1.085   .     S
C537   C1103   1.389   .     S
C538   C155    1.327   1_565 S
C538   H161    1.087   1_565 S
C540   O572    1.305   .     A
C540   O574    1.304   .     A
Cu541  Cu542   2.708   .     S
Cu541  O567    1.954   .     S
Cu541  O572    1.947   .     S
Cu541  O575    1.932   .     S
Cu541  N566    2.035   .     S
Cu541  O571    1.948   .     S
Cu542  O570    1.948   .     S
Cu542  N565    2.035   .     S
Cu542  O574    1.932   .     S
Cu542  O569    1.954   .     S
Cu542  O573    1.947   .     S
H546   C155    1.087   1_565 S
H550   C403    1.110   1_655 S
H562   C389    1.084   1_655 S
N565   N438    1.287   1_655 S
N565   O448    1.344   1_655 S
O568   N438    1.344   1_655 S
O568   C404    1.406   1_655 S
C577   O631    1.298   .     A
C577   C602    1.426   .     S
C577   O634    1.290   .     A
C578   C580    1.465   .     S
C578   O639    1.303   .     A
C578   O637    1.305   .     A
C579   C585    1.398   .     A
C579   C604    1.467   .     S
C579   C583    1.399   .     A
C580   C586    1.397   .     A
C580   C584    1.398   .     A
C581   C590    1.404   .     A
C581   C583    1.392   .     A
C581   H754    1.084   1_455 S
C582   C584    1.392   .     A
C582   C591    1.404   .     A
C582   H691    1.084   .     S
C583   H625    1.083   .     S
C584   H624    1.083   .     S
C585   C587    1.405   .     A
C585   H623    1.073   .     S
C586   H622    1.074   .     S
C586   C589    1.405   .     A
C587   C590    1.418   .     A
C587   C592    1.427   .     A
C588   O633    1.298   .     A
C588   C603    1.426   .     S
C588   O635    1.291   .     A
C589   C593    1.428   .     A
C589   C591    1.419   .     A
C590   C24     1.389   1_556 S
C592   C599    1.417   .     A
C592   C17     1.425   1_556 S
C593   C598    1.417   .     A
C594   H611    1.115   .     S
C594   H612    1.109   .     S
C594   C659    1.522   .     S
C594   O704    1.406   .     S
C595   H615    1.111   .     S
C595   H613    1.111   .     S
C595   C722    1.522   1_455 S
C595   H742    1.110   1_455 S
C596   H617    1.115   .     S
C596   H616    1.109   .     S
C596   C725    1.522   1_455 S
C596   O760    1.406   1_455 S
C597   H621    1.110   .     S
C597   H619    1.110   .     S
C597   C660    1.522   .     S
C597   H684    1.110   .     S
C598   C600    1.386   .     A
C598   H628    1.075   .     S
C599   H608    1.075   .     S
C599   C601    1.386   .     A
C600   H607    1.085   .     S
C601   H618    1.085   .     S
C601   C15     1.389   1_556 S
C602   C795    1.327   .     S
C602   H801    1.087   .     S
C603   C986    1.327   1_545 S
C603   H994    1.087   1_545 S
C604   O636    1.305   .     A
C604   O638    1.304   .     A
Cu605  Cu606   2.708   .     S
Cu605  O631    1.954   .     S
Cu605  O636    1.947   .     S
Cu605  O639    1.932   .     S
Cu605  N630    2.035   .     S
Cu605  O635    1.948   .     S
Cu606  O634    1.948   .     S
Cu606  N629    2.035   .     S
Cu606  O638    1.932   .     S
Cu606  O633    1.954   .     S
Cu606  O637    1.947   .     S
H609   C986    1.087   1_545 S
H610   C795    1.087   .     S
H614   C659    1.110   .     S
H620   C725    1.110   1_455 S
H626   C645    1.084   .     S
H627   C710    1.084   1_455 S
N629   N694    1.287   .     S
N629   O704    1.344   .     S
N630   N757    1.287   1_455 S
N630   O760    1.344   1_455 S
O632   N694    1.344   .     S
O632   C660    1.406   .     S
O640   N757    1.344   1_455 S
O640   C722    1.406   1_455 S
C641   O695    1.298   .     A
C641   C666    1.426   .     S
C641   O698    1.290   .     A
C642   C644    1.465   .     S
C642   O703    1.303   .     A
C642   O701    1.305   .     A
C643   C649    1.398   .     A
C643   C668    1.467   .     S
C643   C647    1.399   .     A
C644   C650    1.397   .     A
C644   C648    1.398   .     A
C645   C654    1.404   .     A
C645   C647    1.392   .     A
C646   C648    1.392   .     A
C646   C655    1.404   .     A
C646   H755    1.084   .     S
C647   H689    1.083   .     S
C648   H688    1.083   .     S
C649   C651    1.405   .     A
C649   H687    1.073   .     S
C650   H686    1.074   .     S
C650   C653    1.405   .     A
C651   C654    1.418   .     A
C651   C656    1.427   .     A
C652   O697    1.298   .     A
C652   C667    1.426   .     S
C652   O699    1.291   .     A
C653   C657    1.428   .     A
C653   C655    1.419   .     A
C654   C88     1.389   1_556 S
C656   C663    1.417   .     A
C656   C81     1.425   1_556 S
C657   C662    1.417   .     A
C658   H675    1.115   .     S
C658   H676    1.109   .     S
C658   C723    1.522   .     S
C658   O768    1.406   .     S
C659   H679    1.111   .     S
C659   H677    1.111   .     S
C660   H681    1.115   .     S
C660   H680    1.109   .     S
C661   H685    1.110   .     S
C661   H683    1.110   .     S
C661   C724    1.522   .     S
C661   H748    1.110   .     S
C662   C664    1.386   .     A
C662   H692    1.075   .     S
C663   H672    1.075   .     S
C663   C665    1.386   .     A
C664   H671    1.085   .     S
C665   H682    1.085   .     S
C665   C79     1.389   1_556 S
C666   C859    1.327   .     S
C666   H865    1.087   .     S
C667   C1050   1.327   1_545 S
C667   H1058   1.087   1_545 S
C668   O700    1.305   .     A
C668   O702    1.304   .     A
Cu669  Cu670   2.708   .     S
Cu669  O695    1.954   .     S
Cu669  O700    1.947   .     S
Cu669  O703    1.932   .     S
Cu669  N694    2.035   .     S
Cu669  O699    1.948   .     S
Cu670  O698    1.948   .     S
Cu670  N693    2.035   .     S
Cu670  O702    1.932   .     S
Cu670  O697    1.954   .     S
Cu670  O701    1.947   .     S
H673   C1050   1.087   1_545 S
H674   C859    1.087   .     S
H678   C723    1.110   .     S
H690   C709    1.084   .     S
N693   N758    1.287   .     S
N693   O768    1.344   .     S
O696   N758    1.344   .     S
O696   C724    1.406   .     S
C705   O759    1.298   .     A
C705   C730    1.426   .     S
C705   O762    1.290   .     A
C706   C708    1.465   .     S
C706   O767    1.303   .     A
C706   O765    1.305   .     A
C707   C713    1.398   .     A
C707   C732    1.467   .     S
C707   C711    1.399   .     A
C708   C714    1.397   .     A
C708   C712    1.398   .     A
C709   C718    1.404   .     A
C709   C711    1.392   .     A
C710   C712    1.392   .     A
C710   C719    1.404   .     A
C710   H627    1.084   1_655 S
C711   H753    1.083   .     S
C712   H752    1.083   .     S
C713   C715    1.405   .     A
C713   H751    1.073   .     S
C714   H750    1.074   .     S
C714   C717    1.405   .     A
C715   C718    1.418   .     A
C715   C720    1.427   .     A
C716   O761    1.298   .     A
C716   C731    1.426   .     S
C716   O763    1.291   .     A
C717   C721    1.428   .     A
C717   C719    1.419   .     A
C718   C152    1.389   1_556 S
C720   C727    1.417   .     A
C720   C145    1.425   1_556 S
C721   C726    1.417   .     A
C722   H739    1.115   .     S
C722   H740    1.109   .     S
C722   C595    1.522   1_655 S
C722   O640    1.406   1_655 S
C723   H743    1.111   .     S
C723   H741    1.111   .     S
C724   H745    1.115   .     S
C724   H744    1.109   .     S
C725   H749    1.110   .     S
C725   H747    1.110   .     S
C725   C596    1.522   1_655 S
C725   H620    1.110   1_655 S
C726   C728    1.386   .     A
C726   H756    1.075   .     S
C727   H736    1.075   .     S
C727   C729    1.386   .     A
C728   H735    1.085   .     S
C729   H746    1.085   .     S
C729   C143    1.389   1_556 S
C730   C923    1.327   .     S
C730   H929    1.087   .     S
C731   C1114   1.327   1_545 S
C731   H1122   1.087   1_545 S
C732   O764    1.305   .     A
C732   O766    1.304   .     A
Cu733  Cu734   2.708   .     S
Cu733  O759    1.954   .     S
Cu733  O764    1.947   .     S
Cu733  O767    1.932   .     S
Cu733  N758    2.035   .     S
Cu733  O763    1.948   .     S
Cu734  O762    1.948   .     S
Cu734  N757    2.035   .     S
Cu734  O766    1.932   .     S
Cu734  O761    1.954   .     S
Cu734  O765    1.947   .     S
H737   C1114   1.087   1_545 S
H738   C923    1.087   .     S
H742   C595    1.110   1_655 S
H754   C581    1.084   1_655 S
N757   N630    1.287   1_655 S
N757   O640    1.344   1_655 S
O760   N630    1.344   1_655 S
O760   C596    1.406   1_655 S
C769   O823    1.298   .     A
C769   C794    1.426   .     S
C769   O826    1.290   .     A
C770   C772    1.465   .     S
C770   O831    1.303   .     A
C770   O829    1.305   .     A
C771   C777    1.398   .     A
C771   C796    1.467   .     S
C771   C775    1.399   .     A
C772   C778    1.397   .     A
C772   C776    1.398   .     A
C773   C782    1.404   .     A
C773   C775    1.392   .     A
C773   H946    1.084   1_455 S
C774   C776    1.392   .     A
C774   C783    1.404   .     A
C774   H883    1.084   .     S
C775   H817    1.083   .     S
C776   H816    1.083   .     S
C777   C779    1.405   .     A
C777   H815    1.073   .     S
C778   H814    1.074   .     S
C778   C781    1.405   .     A
C779   C782    1.418   .     A
C779   C784    1.427   .     A
C780   O825    1.298   .     A
C780   C795    1.426   .     S
C780   O827    1.291   .     A
C781   C785    1.428   .     A
C781   C783    1.419   .     A
C782   C216    1.389   1_556 S
C784   C791    1.417   .     A
C784   C209    1.425   1_556 S
C785   C790    1.417   .     A
C786   H803    1.115   .     S
C786   H804    1.109   .     S
C786   C851    1.522   .     S
C786   O896    1.406   .     S
C787   H807    1.111   .     S
C787   H805    1.111   .     S
C787   C914    1.522   1_455 S
C787   H934    1.110   1_455 S
C788   H809    1.115   .     S
C788   H808    1.109   .     S
C788   C917    1.522   1_455 S
C788   O952    1.406   1_455 S
C789   H813    1.110   .     S
C789   H811    1.110   .     S
C789   C852    1.522   .     S
C789   H876    1.110   .     S
C790   C792    1.386   .     A
C790   H820    1.075   .     S
C791   H800    1.075   .     S
C791   C793    1.386   .     A
C792   H799    1.085   .     S
C793   H810    1.085   .     S
C793   C207    1.389   1_556 S
C794   C987    1.327   .     S
C794   H993    1.087   .     S
C796   O828    1.305   .     A
C796   O830    1.304   .     A
Cu797  Cu798   2.708   .     S
Cu797  O823    1.954   .     S
Cu797  O828    1.947   .     S
Cu797  O831    1.932   .     S
Cu797  N822    2.035   .     S
Cu797  O827    1.948   .     S
Cu798  O826    1.948   .     S
Cu798  N821    2.035   .     S
Cu798  O830    1.932   .     S
Cu798  O825    1.954   .     S
Cu798  O829    1.947   .     S
H802   C987    1.087   .     S
H806   C851    1.110   .     S
H812   C917    1.110   1_455 S
H818   C837    1.084   .     S
H819   C902    1.084   1_455 S
N821   N886    1.287   .     S
N821   O896    1.344   .     S
N822   N949    1.287   1_455 S
N822   O952    1.344   1_455 S
O824   N886    1.344   .     S
O824   C852    1.406   .     S
O832   N949    1.344   1_455 S
O832   C914    1.406   1_455 S
C833   O887    1.298   .     A
C833   C858    1.426   .     S
C833   O890    1.290   .     A
C834   C836    1.465   .     S
C834   O895    1.303   .     A
C834   O893    1.305   .     A
C835   C841    1.398   .     A
C835   C860    1.467   .     S
C835   C839    1.399   .     A
C836   C842    1.397   .     A
C836   C840    1.398   .     A
C837   C846    1.404   .     A
C837   C839    1.392   .     A
C838   C840    1.392   .     A
C838   C847    1.404   .     A
C838   H947    1.084   .     S
C839   H881    1.083   .     S
C840   H880    1.083   .     S
C841   C843    1.405   .     A
C841   H879    1.073   .     S
C842   H878    1.074   .     S
C842   C845    1.405   .     A
C843   C846    1.418   .     A
C843   C848    1.427   .     A
C844   O889    1.298   .     A
C844   C859    1.426   .     S
C844   O891    1.291   .     A
C845   C849    1.428   .     A
C845   C847    1.419   .     A
C846   C280    1.389   1_556 S
C848   C855    1.417   .     A
C848   C273    1.425   1_556 S
C849   C854    1.417   .     A
C850   H867    1.115   .     S
C850   H868    1.109   .     S
C850   C915    1.522   .     S
C850   O960    1.406   .     S
C851   H871    1.111   .     S
C851   H869    1.111   .     S
C852   H873    1.115   .     S
C852   H872    1.109   .     S
C853   H877    1.110   .     S
C853   H875    1.110   .     S
C853   C916    1.522   .     S
C853   H940    1.110   .     S
C854   C856    1.386   .     A
C854   H884    1.075   .     S
C855   H864    1.075   .     S
C855   C857    1.386   .     A
C856   H863    1.085   .     S
C857   H874    1.085   .     S
C857   C271    1.389   1_556 S
C858   C1051   1.327   .     S
C858   H1057   1.087   .     S
C860   O892    1.305   .     A
C860   O894    1.304   .     A
Cu861  Cu862   2.708   .     S
Cu861  O887    1.954   .     S
Cu861  O892    1.947   .     S
Cu861  O895    1.932   .     S
Cu861  N886    2.035   .     S
Cu861  O891    1.948   .     S
Cu862  O890    1.948   .     S
Cu862  N885    2.035   .     S
Cu862  O894    1.932   .     S
Cu862  O889    1.954   .     S
Cu862  O893    1.947   .     S
H866   C1051   1.087   .     S
H870   C915    1.110   .     S
H882   C901    1.084   .     S
N885   N950    1.287   .     S
N885   O960    1.344   .     S
O888   N950    1.344   .     S
O888   C916    1.406   .     S
C897   O951    1.298   .     A
C897   C922    1.426   .     S
C897   O954    1.290   .     A
C898   C900    1.465   .     S
C898   O959    1.303   .     A
C898   O957    1.305   .     A
C899   C905    1.398   .     A
C899   C924    1.467   .     S
C899   C903    1.399   .     A
C900   C906    1.397   .     A
C900   C904    1.398   .     A
C901   C910    1.404   .     A
C901   C903    1.392   .     A
C902   C904    1.392   .     A
C902   C911    1.404   .     A
C902   H819    1.084   1_655 S
C903   H945    1.083   .     S
C904   H944    1.083   .     S
C905   C907    1.405   .     A
C905   H943    1.073   .     S
C906   H942    1.074   .     S
C906   C909    1.405   .     A
C907   C910    1.418   .     A
C907   C912    1.427   .     A
C908   O953    1.298   .     A
C908   C923    1.426   .     S
C908   O955    1.291   .     A
C909   C913    1.428   .     A
C909   C911    1.419   .     A
C910   C344    1.389   1_556 S
C912   C919    1.417   .     A
C912   C337    1.425   1_556 S
C913   C918    1.417   .     A
C914   H931    1.115   .     S
C914   H932    1.109   .     S
C914   C787    1.522   1_655 S
C914   O832    1.406   1_655 S
C915   H935    1.111   .     S
C915   H933    1.111   .     S
C916   H937    1.115   .     S
C916   H936    1.109   .     S
C917   H941    1.110   .     S
C917   H939    1.110   .     S
C917   C788    1.522   1_655 S
C917   H812    1.110   1_655 S
C918   C920    1.386   .     A
C918   H948    1.075   .     S
C919   H928    1.075   .     S
C919   C921    1.386   .     A
C920   H927    1.085   .     S
C921   H938    1.085   .     S
C921   C335    1.389   1_556 S
C922   C1115   1.327   .     S
C922   H1121   1.087   .     S
C924   O956    1.305   .     A
C924   O958    1.304   .     A
Cu925  Cu926   2.708   .     S
Cu925  O951    1.954   .     S
Cu925  O956    1.947   .     S
Cu925  O959    1.932   .     S
Cu925  N950    2.035   .     S
Cu925  O955    1.948   .     S
Cu926  O954    1.948   .     S
Cu926  N949    2.035   .     S
Cu926  O958    1.932   .     S
Cu926  O953    1.954   .     S
Cu926  O957    1.947   .     S
H930   C1115   1.087   .     S
H934   C787    1.110   1_655 S
H946   C773    1.084   1_655 S
N949   N822    1.287   1_655 S
N949   O832    1.344   1_655 S
O952   N822    1.344   1_655 S
O952   C788    1.406   1_655 S
C961   O1015   1.298   .     A
C961   C986    1.426   .     S
C961   O1018   1.290   .     A
C962   C964    1.465   .     S
C962   O1023   1.303   .     A
C962   O1021   1.305   .     A
C963   C969    1.398   .     A
C963   C988    1.467   .     S
C963   C967    1.399   .     A
C964   C970    1.397   .     A
C964   C968    1.398   .     A
C965   C974    1.404   .     A
C965   C967    1.392   .     A
C965   H1138   1.084   1_455 S
C966   C968    1.392   .     A
C966   C975    1.404   .     A
C966   H1075   1.084   .     S
C967   H1009   1.083   .     S
C968   H1008   1.083   .     S
C969   C971    1.405   .     A
C969   H1007   1.073   .     S
C970   H1006   1.074   .     S
C970   C973    1.405   .     A
C971   C974    1.418   .     A
C971   C976    1.427   .     A
C972   O1017   1.298   .     A
C972   C987    1.426   .     S
C972   O1019   1.291   .     A
C973   C977    1.428   .     A
C973   C975    1.419   .     A
C974   C408    1.389   1_556 S
C976   C983    1.417   .     A
C976   C401    1.425   1_556 S
C977   C982    1.417   .     A
C978   H995    1.115   .     S
C978   H996    1.109   .     S
C978   C1043   1.522   .     S
C978   O1088   1.406   .     S
C979   H999    1.111   .     S
C979   H997    1.111   .     S
C979   C1106   1.522   1_455 S
C979   H1126   1.110   1_455 S
C980   H1001   1.115   .     S
C980   H1000   1.109   .     S
C980   C1109   1.522   1_455 S
C980   O1144   1.406   1_455 S
C981   H1005   1.110   .     S
C981   H1003   1.110   .     S
C981   C1044   1.522   .     S
C981   H1068   1.110   .     S
C982   C984    1.386   .     A
C982   H1012   1.075   .     S
C983   H992    1.075   .     S
C983   C985    1.386   .     A
C984   H991    1.085   .     S
C985   H1002   1.085   .     S
C985   C399    1.389   1_556 S
C986   C603    1.327   1_565 S
C986   H609    1.087   1_565 S
C988   O1020   1.305   .     A
C988   O1022   1.304   .     A
Cu989  Cu990   2.708   .     S
Cu989  O1015   1.954   .     S
Cu989  O1020   1.947   .     S
Cu989  O1023   1.932   .     S
Cu989  N1014   2.035   .     S
Cu989  O1019   1.948   .     S
Cu990  O1018   1.948   .     S
Cu990  N1013   2.035   .     S
Cu990  O1022   1.932   .     S
Cu990  O1017   1.954   .     S
Cu990  O1021   1.947   .     S
H994   C603    1.087   1_565 S
H998   C1043   1.110   .     S
H1004  C1109   1.110   1_455 S
H1010  C1029   1.084   .     S
H1011  C1094   1.084   1_455 S
N1013  N1078   1.287   .     S
N1013  O1088   1.344   .     S
N1014  N1141   1.287   1_455 S
N1014  O1144   1.344   1_455 S
O1016  N1078   1.344   .     S
O1016  C1044   1.406   .     S
O1024  N1141   1.344   1_455 S
O1024  C1106   1.406   1_455 S
C1025  O1079   1.298   .     A
C1025  C1050   1.426   .     S
C1025  O1082   1.290   .     A
C1026  C1028   1.465   .     S
C1026  O1087   1.303   .     A
C1026  O1085   1.305   .     A
C1027  C1033   1.398   .     A
C1027  C1052   1.467   .     S
C1027  C1031   1.399   .     A
C1028  C1034   1.397   .     A
C1028  C1032   1.398   .     A
C1029  C1038   1.404   .     A
C1029  C1031   1.392   .     A
C1030  C1032   1.392   .     A
C1030  C1039   1.404   .     A
C1030  H1139   1.084   .     S
C1031  H1073   1.083   .     S
C1032  H1072   1.083   .     S
C1033  C1035   1.405   .     A
C1033  H1071   1.073   .     S
C1034  H1070   1.074   .     S
C1034  C1037   1.405   .     A
C1035  C1038   1.418   .     A
C1035  C1040   1.427   .     A
C1036  O1081   1.298   .     A
C1036  C1051   1.426   .     S
C1036  O1083   1.291   .     A
C1037  C1041   1.428   .     A
C1037  C1039   1.419   .     A
C1038  C472    1.389   1_556 S
C1040  C1047   1.417   .     A
C1040  C465    1.425   1_556 S
C1041  C1046   1.417   .     A
C1042  H1059   1.115   .     S
C1042  H1060   1.109   .     S
C1042  C1107   1.522   .     S
C1042  O1152   1.406   .     S
C1043  H1063   1.111   .     S
C1043  H1061   1.111   .     S
C1044  H1065   1.115   .     S
C1044  H1064   1.109   .     S
C1045  H1069   1.110   .     S
C1045  H1067   1.110   .     S
C1045  C1108   1.522   .     S
C1045  H1132   1.110   .     S
C1046  C1048   1.386   .     A
C1046  H1076   1.075   .     S
C1047  H1056   1.075   .     S
C1047  C1049   1.386   .     A
C1048  H1055   1.085   .     S
C1049  H1066   1.085   .     S
C1049  C463    1.389   1_556 S
C1050  C667    1.327   1_565 S
C1050  H673    1.087   1_565 S
C1052  O1084   1.305   .     A
C1052  O1086   1.304   .     A
Cu1053 Cu1054  2.708   .     S
Cu1053 O1079   1.954   .     S
Cu1053 O1084   1.947   .     S
Cu1053 O1087   1.932   .     S
Cu1053 N1078   2.035   .     S
Cu1053 O1083   1.948   .     S
Cu1054 O1082   1.948   .     S
Cu1054 N1077   2.035   .     S
Cu1054 O1086   1.932   .     S
Cu1054 O1081   1.954   .     S
Cu1054 O1085   1.947   .     S
H1058  C667    1.087   1_565 S
H1062  C1107   1.110   .     S
H1074  C1093   1.084   .     S
N1077  N1142   1.287   .     S
N1077  O1152   1.344   .     S
O1080  N1142   1.344   .     S
O1080  C1108   1.406   .     S
C1089  O1143   1.298   .     A
C1089  C1114   1.426   .     S
C1089  O1146   1.290   .     A
C1090  C1092   1.465   .     S
C1090  O1151   1.303   .     A
C1090  O1149   1.305   .     A
C1091  C1097   1.398   .     A
C1091  C1116   1.467   .     S
C1091  C1095   1.399   .     A
C1092  C1098   1.397   .     A
C1092  C1096   1.398   .     A
C1093  C1102   1.404   .     A
C1093  C1095   1.392   .     A
C1094  C1096   1.392   .     A
C1094  C1103   1.404   .     A
C1094  H1011   1.084   1_655 S
C1095  H1137   1.083   .     S
C1096  H1136   1.083   .     S
C1097  C1099   1.405   .     A
C1097  H1135   1.073   .     S
C1098  H1134   1.074   .     S
C1098  C1101   1.405   .     A
C1099  C1102   1.418   .     A
C1099  C1104   1.427   .     A
C1100  O1145   1.298   .     A
C1100  C1115   1.426   .     S
C1100  O1147   1.291   .     A
C1101  C1105   1.428   .     A
C1101  C1103   1.419   .     A
C1102  C536    1.389   1_556 S
C1104  C1111   1.417   .     A
C1104  C529    1.425   1_556 S
C1105  C1110   1.417   .     A
C1106  H1123   1.115   .     S
C1106  H1124   1.109   .     S
C1106  C979    1.522   1_655 S
C1106  O1024   1.406   1_655 S
C1107  H1127   1.111   .     S
C1107  H1125   1.111   .     S
C1108  H1129   1.115   .     S
C1108  H1128   1.109   .     S
C1109  H1133   1.110   .     S
C1109  H1131   1.110   .     S
C1109  C980    1.522   1_655 S
C1109  H1004   1.110   1_655 S
C1110  C1112   1.386   .     A
C1110  H1140   1.075   .     S
C1111  H1120   1.075   .     S
C1111  C1113   1.386   .     A
C1112  H1119   1.085   .     S
C1113  H1130   1.085   .     S
C1113  C527    1.389   1_556 S
C1114  C731    1.327   1_565 S
C1114  H737    1.087   1_565 S
C1116  O1148   1.305   .     A
C1116  O1150   1.304   .     A
Cu1117 Cu1118  2.708   .     S
Cu1117 O1143   1.954   .     S
Cu1117 O1148   1.947   .     S
Cu1117 O1151   1.932   .     S
Cu1117 N1142   2.035   .     S
Cu1117 O1147   1.948   .     S
Cu1118 O1146   1.948   .     S
Cu1118 N1141   2.035   .     S
Cu1118 O1150   1.932   .     S
Cu1118 O1145   1.954   .     S
Cu1118 O1149   1.947   .     S
H1122  C731    1.087   1_565 S
H1126  C979    1.110   1_655 S
H1138  C965    1.084   1_655 S
N1141  N1014   1.287   1_655 S
N1141  O1024   1.344   1_655 S
O1144  N1014   1.344   1_655 S
O1144  C980    1.406   1_655 S
