data_str_m2_o1_o5_pcu_sym.81
_audit_creation_date              2020-01-03
_audit_creation_method            'Materials Studio'
_symmetry_space_group_name_H-M    'P1'
_symmetry_Int_Tables_number       1
_symmetry_cell_setting            triclinic
loop_
_symmetry_equiv_pos_as_xyz
  x,y,z
_cell_length_a                    32.4741
_cell_length_b                    29.0397
_cell_length_c                    27.1520
_cell_angle_alpha                 90.1567
_cell_angle_beta                  93.8951
_cell_angle_gamma                 90.4934
loop_
_atom_site_label
_atom_site_type_symbol
_atom_site_fract_x
_atom_site_fract_y
_atom_site_fract_z
_atom_site_U_iso_or_equiv
_atom_site_adp_type
_atom_site_occupancy
C1     C     0.08779   0.16644   0.17123   0.00000  Uiso   1.00
C2     C     0.02162   0.20784   0.17702   0.00000  Uiso   1.00
C3     C     0.29042   0.16735   0.15785   0.00000  Uiso   1.00
C4     C     0.04291   0.16599   0.17548   0.00000  Uiso   1.00
C5     C     0.14092   0.02434   0.13378   0.00000  Uiso   1.00
C6     C     0.19242   0.30899   0.19956   0.00000  Uiso   1.00
C7     C     0.19257   0.02499   0.19938   0.00000  Uiso   1.00
C8     C     0.14076   0.30834   0.13395   0.00000  Uiso   1.00
C9     C     0.24554   0.16689   0.16210   0.00000  Uiso   1.00
C10    C     0.16662   0.16663   0.07371   0.00000  Uiso   1.00
C11    C     0.16671   0.16670   0.25963   0.00000  Uiso   1.00
C12    C     0.16666   0.16661   0.02190   0.00000  Uiso   1.00
C13    C     0.16667   0.16672   0.31144   0.00000  Uiso   1.00
C14    C     0.02036   0.12443   0.17030   0.00000  Uiso   1.00
C15    C     0.31297   0.20890   0.16303   0.00000  Uiso   1.00
C16    C     0.31171   0.12549   0.15631   0.00000  Uiso   1.00
Cu17   Cu    0.16667   0.21355   0.16667   0.00000  Uiso   1.00
Cu18   Cu    0.16667   0.11978   0.16667   0.00000  Uiso   1.00
I19    I     0.04391   0.06157   0.20075   0.00000  Uiso   1.00
I20    I     0.28943   0.27177   0.13259   0.00000  Uiso   1.00
I21    I     0.28523   0.06723   0.11729   0.00000  Uiso   1.00
I22    I     0.04811   0.26611   0.21604   0.00000  Uiso   1.00
I23    I     0.09990   0.05845   0.08025   0.00000  Uiso   1.00
I24    I     0.23343   0.27488   0.25309   0.00000  Uiso   1.00
I25    I     0.23500   0.06012   0.25132   0.00000  Uiso   1.00
I26    I     0.09834   0.27322   0.08201   0.00000  Uiso   1.00
N27    N     0.16667   0.28402   0.16667   0.00000  Uiso   1.00
N28    N     0.16667   0.04931   0.16667   0.00000  Uiso   1.00
O29    O     0.10655   0.20625   0.16666   0.00000  Uiso   1.00
O30    O     0.22679   0.12709   0.16667   0.00000  Uiso   1.00
O31    O     0.22679   0.20625   0.16667   0.00000  Uiso   1.00
O32    O     0.10655   0.12709   0.16666   0.00000  Uiso   1.00
O33    O     0.16667   0.20625   0.09613   0.00000  Uiso   1.00
O34    O     0.16667   0.12708   0.23720   0.00000  Uiso   1.00
O35    O     0.16667   0.20625   0.23720   0.00000  Uiso   1.00
O36    O     0.16667   0.12708   0.09613   0.00000  Uiso   1.00
C37    C     0.42113   0.16644   0.17123   0.00000  Uiso   1.00
C38    C     0.35496   0.20784   0.17702   0.00000  Uiso   1.00
C39    C     0.62376   0.16735   0.15785   0.00000  Uiso   1.00
C40    C     0.37624   0.16599   0.17548   0.00000  Uiso   1.00
C41    C     0.47425   0.02434   0.13378   0.00000  Uiso   1.00
C42    C     0.52575   0.30899   0.19956   0.00000  Uiso   1.00
C43    C     0.52590   0.02499   0.19938   0.00000  Uiso   1.00
C44    C     0.47410   0.30834   0.13395   0.00000  Uiso   1.00
C45    C     0.57887   0.16689   0.16210   0.00000  Uiso   1.00
C46    C     0.49996   0.16663   0.07371   0.00000  Uiso   1.00
C47    C     0.50004   0.16670   0.25963   0.00000  Uiso   1.00
C48    C     0.49999   0.16661   0.02190   0.00000  Uiso   1.00
C49    C     0.50001   0.16672   0.31144   0.00000  Uiso   1.00
C50    C     0.35370   0.12443   0.17030   0.00000  Uiso   1.00
C51    C     0.64630   0.20890   0.16303   0.00000  Uiso   1.00
C52    C     0.64504   0.12549   0.15631   0.00000  Uiso   1.00
Cu53   Cu    0.50000   0.21355   0.16667   0.00000  Uiso   1.00
Cu54   Cu    0.50000   0.11978   0.16667   0.00000  Uiso   1.00
I55    I     0.37724   0.06157   0.20075   0.00000  Uiso   1.00
I56    I     0.62276   0.27177   0.13259   0.00000  Uiso   1.00
I57    I     0.61856   0.06723   0.11729   0.00000  Uiso   1.00
I58    I     0.38144   0.26611   0.21604   0.00000  Uiso   1.00
I59    I     0.43324   0.05845   0.08025   0.00000  Uiso   1.00
I60    I     0.56676   0.27488   0.25309   0.00000  Uiso   1.00
I61    I     0.56833   0.06012   0.25132   0.00000  Uiso   1.00
I62    I     0.43167   0.27322   0.08201   0.00000  Uiso   1.00
N63    N     0.50000   0.28402   0.16667   0.00000  Uiso   1.00
N64    N     0.50000   0.04931   0.16667   0.00000  Uiso   1.00
O65    O     0.43988   0.20625   0.16666   0.00000  Uiso   1.00
O66    O     0.56012   0.12709   0.16667   0.00000  Uiso   1.00
O67    O     0.56012   0.20625   0.16667   0.00000  Uiso   1.00
O68    O     0.43988   0.12709   0.16666   0.00000  Uiso   1.00
O69    O     0.50000   0.20625   0.09613   0.00000  Uiso   1.00
O70    O     0.50000   0.12708   0.23720   0.00000  Uiso   1.00
O71    O     0.50000   0.20625   0.23720   0.00000  Uiso   1.00
O72    O     0.50000   0.12708   0.09613   0.00000  Uiso   1.00
C73    C     0.75446   0.16644   0.17123   0.00000  Uiso   1.00
C74    C     0.68829   0.20784   0.17702   0.00000  Uiso   1.00
C75    C     0.95709   0.16735   0.15785   0.00000  Uiso   1.00
C76    C     0.70958   0.16599   0.17548   0.00000  Uiso   1.00
C77    C     0.80758   0.02434   0.13378   0.00000  Uiso   1.00
C78    C     0.85908   0.30899   0.19956   0.00000  Uiso   1.00
C79    C     0.85924   0.02499   0.19938   0.00000  Uiso   1.00
C80    C     0.80743   0.30834   0.13395   0.00000  Uiso   1.00
C81    C     0.91221   0.16689   0.16210   0.00000  Uiso   1.00
C82    C     0.83329   0.16663   0.07371   0.00000  Uiso   1.00
C83    C     0.83338   0.16670   0.25963   0.00000  Uiso   1.00
C84    C     0.83333   0.16661   0.02190   0.00000  Uiso   1.00
C85    C     0.83334   0.16672   0.31144   0.00000  Uiso   1.00
C86    C     0.68703   0.12443   0.17030   0.00000  Uiso   1.00
C87    C     0.97964   0.20890   0.16303   0.00000  Uiso   1.00
C88    C     0.97838   0.12549   0.15631   0.00000  Uiso   1.00
Cu89   Cu    0.83333   0.21355   0.16667   0.00000  Uiso   1.00
Cu90   Cu    0.83333   0.11978   0.16667   0.00000  Uiso   1.00
I91    I     0.71057   0.06157   0.20075   0.00000  Uiso   1.00
I92    I     0.95609   0.27177   0.13259   0.00000  Uiso   1.00
I93    I     0.95189   0.06723   0.11729   0.00000  Uiso   1.00
I94    I     0.71477   0.26611   0.21604   0.00000  Uiso   1.00
I95    I     0.76657   0.05845   0.08025   0.00000  Uiso   1.00
I96    I     0.90010   0.27488   0.25309   0.00000  Uiso   1.00
I97    I     0.90166   0.06012   0.25132   0.00000  Uiso   1.00
I98    I     0.76500   0.27322   0.08201   0.00000  Uiso   1.00
N99    N     0.83333   0.28402   0.16667   0.00000  Uiso   1.00
N100   N     0.83333   0.04931   0.16667   0.00000  Uiso   1.00
O101   O     0.77321   0.20625   0.16666   0.00000  Uiso   1.00
O102   O     0.89345   0.12709   0.16667   0.00000  Uiso   1.00
O103   O     0.89345   0.20625   0.16667   0.00000  Uiso   1.00
O104   O     0.77321   0.12709   0.16666   0.00000  Uiso   1.00
O105   O     0.83333   0.20625   0.09613   0.00000  Uiso   1.00
O106   O     0.83333   0.12708   0.23720   0.00000  Uiso   1.00
O107   O     0.83333   0.20625   0.23720   0.00000  Uiso   1.00
O108   O     0.83333   0.12708   0.09613   0.00000  Uiso   1.00
C109   C     0.08779   0.49977   0.17123   0.00000  Uiso   1.00
C110   C     0.02162   0.54117   0.17702   0.00000  Uiso   1.00
C111   C     0.29042   0.50068   0.15785   0.00000  Uiso   1.00
C112   C     0.04291   0.49932   0.17548   0.00000  Uiso   1.00
C113   C     0.14092   0.35767   0.13378   0.00000  Uiso   1.00
C114   C     0.19242   0.64233   0.19956   0.00000  Uiso   1.00
C115   C     0.19257   0.35832   0.19938   0.00000  Uiso   1.00
C116   C     0.14076   0.64168   0.13395   0.00000  Uiso   1.00
C117   C     0.24554   0.50023   0.16210   0.00000  Uiso   1.00
C118   C     0.16662   0.49996   0.07371   0.00000  Uiso   1.00
C119   C     0.16671   0.50004   0.25963   0.00000  Uiso   1.00
C120   C     0.16666   0.49995   0.02190   0.00000  Uiso   1.00
C121   C     0.16667   0.50005   0.31144   0.00000  Uiso   1.00
C122   C     0.02036   0.45776   0.17030   0.00000  Uiso   1.00
C123   C     0.31297   0.54224   0.16303   0.00000  Uiso   1.00
C124   C     0.31171   0.45883   0.15631   0.00000  Uiso   1.00
Cu125  Cu    0.16667   0.54689   0.16667   0.00000  Uiso   1.00
Cu126  Cu    0.16667   0.45311   0.16667   0.00000  Uiso   1.00
I127   I     0.04391   0.39490   0.20075   0.00000  Uiso   1.00
I128   I     0.28943   0.60510   0.13259   0.00000  Uiso   1.00
I129   I     0.28523   0.40056   0.11729   0.00000  Uiso   1.00
I130   I     0.04811   0.59944   0.21604   0.00000  Uiso   1.00
I131   I     0.09990   0.39178   0.08025   0.00000  Uiso   1.00
I132   I     0.23343   0.60822   0.25309   0.00000  Uiso   1.00
I133   I     0.23500   0.39345   0.25132   0.00000  Uiso   1.00
I134   I     0.09834   0.60655   0.08201   0.00000  Uiso   1.00
N135   N     0.16667   0.61736   0.16667   0.00000  Uiso   1.00
N136   N     0.16667   0.38264   0.16667   0.00000  Uiso   1.00
O137   O     0.10655   0.53958   0.16666   0.00000  Uiso   1.00
O138   O     0.22679   0.46042   0.16667   0.00000  Uiso   1.00
O139   O     0.22679   0.53958   0.16667   0.00000  Uiso   1.00
O140   O     0.10655   0.46042   0.16666   0.00000  Uiso   1.00
O141   O     0.16667   0.53959   0.09613   0.00000  Uiso   1.00
O142   O     0.16667   0.46041   0.23720   0.00000  Uiso   1.00
O143   O     0.16667   0.53959   0.23720   0.00000  Uiso   1.00
O144   O     0.16667   0.46041   0.09613   0.00000  Uiso   1.00
C145   C     0.42113   0.49977   0.17123   0.00000  Uiso   1.00
C146   C     0.35496   0.54117   0.17702   0.00000  Uiso   1.00
C147   C     0.62376   0.50068   0.15785   0.00000  Uiso   1.00
C148   C     0.37624   0.49932   0.17548   0.00000  Uiso   1.00
C149   C     0.47425   0.35767   0.13378   0.00000  Uiso   1.00
C150   C     0.52575   0.64233   0.19956   0.00000  Uiso   1.00
C151   C     0.52590   0.35832   0.19938   0.00000  Uiso   1.00
C152   C     0.47410   0.64168   0.13395   0.00000  Uiso   1.00
C153   C     0.57887   0.50023   0.16210   0.00000  Uiso   1.00
C154   C     0.49996   0.49996   0.07371   0.00000  Uiso   1.00
C155   C     0.50004   0.50004   0.25963   0.00000  Uiso   1.00
C156   C     0.49999   0.49995   0.02190   0.00000  Uiso   1.00
C157   C     0.50001   0.50005   0.31144   0.00000  Uiso   1.00
C158   C     0.35370   0.45776   0.17030   0.00000  Uiso   1.00
C159   C     0.64630   0.54224   0.16303   0.00000  Uiso   1.00
C160   C     0.64504   0.45883   0.15631   0.00000  Uiso   1.00
Cu161  Cu    0.50000   0.54689   0.16667   0.00000  Uiso   1.00
Cu162  Cu    0.50000   0.45311   0.16667   0.00000  Uiso   1.00
I163   I     0.37724   0.39490   0.20075   0.00000  Uiso   1.00
I164   I     0.62276   0.60510   0.13259   0.00000  Uiso   1.00
I165   I     0.61856   0.40056   0.11729   0.00000  Uiso   1.00
I166   I     0.38144   0.59944   0.21604   0.00000  Uiso   1.00
I167   I     0.43324   0.39178   0.08025   0.00000  Uiso   1.00
I168   I     0.56676   0.60822   0.25309   0.00000  Uiso   1.00
I169   I     0.56833   0.39345   0.25132   0.00000  Uiso   1.00
I170   I     0.43167   0.60655   0.08201   0.00000  Uiso   1.00
N171   N     0.50000   0.61736   0.16667   0.00000  Uiso   1.00
N172   N     0.50000   0.38264   0.16667   0.00000  Uiso   1.00
O173   O     0.43988   0.53958   0.16666   0.00000  Uiso   1.00
O174   O     0.56012   0.46042   0.16667   0.00000  Uiso   1.00
O175   O     0.56012   0.53958   0.16667   0.00000  Uiso   1.00
O176   O     0.43988   0.46042   0.16666   0.00000  Uiso   1.00
O177   O     0.50000   0.53959   0.09613   0.00000  Uiso   1.00
O178   O     0.50000   0.46041   0.23720   0.00000  Uiso   1.00
O179   O     0.50000   0.53959   0.23720   0.00000  Uiso   1.00
O180   O     0.50000   0.46041   0.09613   0.00000  Uiso   1.00
C181   C     0.75446   0.49977   0.17123   0.00000  Uiso   1.00
C182   C     0.68829   0.54117   0.17702   0.00000  Uiso   1.00
C183   C     0.95709   0.50068   0.15785   0.00000  Uiso   1.00
C184   C     0.70958   0.49932   0.17548   0.00000  Uiso   1.00
C185   C     0.80758   0.35767   0.13378   0.00000  Uiso   1.00
C186   C     0.85908   0.64233   0.19956   0.00000  Uiso   1.00
C187   C     0.85924   0.35832   0.19938   0.00000  Uiso   1.00
C188   C     0.80743   0.64168   0.13395   0.00000  Uiso   1.00
C189   C     0.91221   0.50023   0.16210   0.00000  Uiso   1.00
C190   C     0.83329   0.49996   0.07371   0.00000  Uiso   1.00
C191   C     0.83338   0.50004   0.25963   0.00000  Uiso   1.00
C192   C     0.83333   0.49995   0.02190   0.00000  Uiso   1.00
C193   C     0.83334   0.50005   0.31144   0.00000  Uiso   1.00
C194   C     0.68703   0.45776   0.17030   0.00000  Uiso   1.00
C195   C     0.97964   0.54224   0.16303   0.00000  Uiso   1.00
C196   C     0.97838   0.45883   0.15631   0.00000  Uiso   1.00
Cu197  Cu    0.83333   0.54689   0.16667   0.00000  Uiso   1.00
Cu198  Cu    0.83333   0.45311   0.16667   0.00000  Uiso   1.00
I199   I     0.71057   0.39490   0.20075   0.00000  Uiso   1.00
I200   I     0.95609   0.60510   0.13259   0.00000  Uiso   1.00
I201   I     0.95189   0.40056   0.11729   0.00000  Uiso   1.00
I202   I     0.71477   0.59944   0.21604   0.00000  Uiso   1.00
I203   I     0.76657   0.39178   0.08025   0.00000  Uiso   1.00
I204   I     0.90010   0.60822   0.25309   0.00000  Uiso   1.00
I205   I     0.90166   0.39345   0.25132   0.00000  Uiso   1.00
I206   I     0.76500   0.60655   0.08201   0.00000  Uiso   1.00
N207   N     0.83333   0.61736   0.16667   0.00000  Uiso   1.00
N208   N     0.83333   0.38264   0.16667   0.00000  Uiso   1.00
O209   O     0.77321   0.53958   0.16666   0.00000  Uiso   1.00
O210   O     0.89345   0.46042   0.16667   0.00000  Uiso   1.00
O211   O     0.89345   0.53958   0.16667   0.00000  Uiso   1.00
O212   O     0.77321   0.46042   0.16666   0.00000  Uiso   1.00
O213   O     0.83333   0.53959   0.09613   0.00000  Uiso   1.00
O214   O     0.83333   0.46041   0.23720   0.00000  Uiso   1.00
O215   O     0.83333   0.53959   0.23720   0.00000  Uiso   1.00
O216   O     0.83333   0.46041   0.09613   0.00000  Uiso   1.00
C217   C     0.08779   0.83311   0.17123   0.00000  Uiso   1.00
C218   C     0.02162   0.87451   0.17702   0.00000  Uiso   1.00
C219   C     0.29042   0.83401   0.15785   0.00000  Uiso   1.00
C220   C     0.04291   0.83265   0.17548   0.00000  Uiso   1.00
C221   C     0.14092   0.69101   0.13378   0.00000  Uiso   1.00
C222   C     0.19242   0.97566   0.19956   0.00000  Uiso   1.00
C223   C     0.19257   0.69166   0.19938   0.00000  Uiso   1.00
C224   C     0.14076   0.97501   0.13395   0.00000  Uiso   1.00
C225   C     0.24554   0.83356   0.16210   0.00000  Uiso   1.00
C226   C     0.16662   0.83330   0.07371   0.00000  Uiso   1.00
C227   C     0.16671   0.83337   0.25963   0.00000  Uiso   1.00
C228   C     0.16666   0.83328   0.02190   0.00000  Uiso   1.00
C229   C     0.16667   0.83339   0.31144   0.00000  Uiso   1.00
C230   C     0.02036   0.79110   0.17030   0.00000  Uiso   1.00
C231   C     0.31297   0.87557   0.16303   0.00000  Uiso   1.00
C232   C     0.31171   0.79216   0.15631   0.00000  Uiso   1.00
Cu233  Cu    0.16667   0.88022   0.16667   0.00000  Uiso   1.00
Cu234  Cu    0.16667   0.78645   0.16667   0.00000  Uiso   1.00
I235   I     0.04391   0.72823   0.20075   0.00000  Uiso   1.00
I236   I     0.28943   0.93844   0.13259   0.00000  Uiso   1.00
I237   I     0.28523   0.73389   0.11729   0.00000  Uiso   1.00
I238   I     0.04811   0.93277   0.21604   0.00000  Uiso   1.00
I239   I     0.09990   0.72512   0.08025   0.00000  Uiso   1.00
I240   I     0.23343   0.94155   0.25309   0.00000  Uiso   1.00
I241   I     0.23500   0.72678   0.25132   0.00000  Uiso   1.00
I242   I     0.09834   0.93988   0.08201   0.00000  Uiso   1.00
N243   N     0.16667   0.95069   0.16667   0.00000  Uiso   1.00
N244   N     0.16667   0.71598   0.16667   0.00000  Uiso   1.00
O245   O     0.10655   0.87291   0.16666   0.00000  Uiso   1.00
O246   O     0.22679   0.79375   0.16667   0.00000  Uiso   1.00
O247   O     0.22679   0.87291   0.16667   0.00000  Uiso   1.00
O248   O     0.10655   0.79375   0.16666   0.00000  Uiso   1.00
O249   O     0.16667   0.87292   0.09613   0.00000  Uiso   1.00
O250   O     0.16667   0.79375   0.23720   0.00000  Uiso   1.00
O251   O     0.16667   0.87292   0.23720   0.00000  Uiso   1.00
O252   O     0.16667   0.79375   0.09613   0.00000  Uiso   1.00
C253   C     0.42113   0.83311   0.17123   0.00000  Uiso   1.00
C254   C     0.35496   0.87451   0.17702   0.00000  Uiso   1.00
C255   C     0.62376   0.83401   0.15785   0.00000  Uiso   1.00
C256   C     0.37624   0.83265   0.17548   0.00000  Uiso   1.00
C257   C     0.47425   0.69101   0.13378   0.00000  Uiso   1.00
C258   C     0.52575   0.97566   0.19956   0.00000  Uiso   1.00
C259   C     0.52590   0.69166   0.19938   0.00000  Uiso   1.00
C260   C     0.47410   0.97501   0.13395   0.00000  Uiso   1.00
C261   C     0.57887   0.83356   0.16210   0.00000  Uiso   1.00
C262   C     0.49996   0.83330   0.07371   0.00000  Uiso   1.00
C263   C     0.50004   0.83337   0.25963   0.00000  Uiso   1.00
C264   C     0.49999   0.83328   0.02190   0.00000  Uiso   1.00
C265   C     0.50001   0.83339   0.31144   0.00000  Uiso   1.00
C266   C     0.35370   0.79110   0.17030   0.00000  Uiso   1.00
C267   C     0.64630   0.87557   0.16303   0.00000  Uiso   1.00
C268   C     0.64504   0.79216   0.15631   0.00000  Uiso   1.00
Cu269  Cu    0.50000   0.88022   0.16667   0.00000  Uiso   1.00
Cu270  Cu    0.50000   0.78645   0.16667   0.00000  Uiso   1.00
I271   I     0.37724   0.72823   0.20075   0.00000  Uiso   1.00
I272   I     0.62276   0.93844   0.13259   0.00000  Uiso   1.00
I273   I     0.61856   0.73389   0.11729   0.00000  Uiso   1.00
I274   I     0.38144   0.93277   0.21604   0.00000  Uiso   1.00
I275   I     0.43324   0.72512   0.08025   0.00000  Uiso   1.00
I276   I     0.56676   0.94155   0.25309   0.00000  Uiso   1.00
I277   I     0.56833   0.72678   0.25132   0.00000  Uiso   1.00
I278   I     0.43167   0.93988   0.08201   0.00000  Uiso   1.00
N279   N     0.50000   0.95069   0.16667   0.00000  Uiso   1.00
N280   N     0.50000   0.71598   0.16667   0.00000  Uiso   1.00
O281   O     0.43988   0.87291   0.16666   0.00000  Uiso   1.00
O282   O     0.56012   0.79375   0.16667   0.00000  Uiso   1.00
O283   O     0.56012   0.87291   0.16667   0.00000  Uiso   1.00
O284   O     0.43988   0.79375   0.16666   0.00000  Uiso   1.00
O285   O     0.50000   0.87292   0.09613   0.00000  Uiso   1.00
O286   O     0.50000   0.79375   0.23720   0.00000  Uiso   1.00
O287   O     0.50000   0.87292   0.23720   0.00000  Uiso   1.00
O288   O     0.50000   0.79375   0.09613   0.00000  Uiso   1.00
C289   C     0.75446   0.83311   0.17123   0.00000  Uiso   1.00
C290   C     0.68829   0.87451   0.17702   0.00000  Uiso   1.00
C291   C     0.95709   0.83401   0.15785   0.00000  Uiso   1.00
C292   C     0.70958   0.83265   0.17548   0.00000  Uiso   1.00
C293   C     0.80758   0.69101   0.13378   0.00000  Uiso   1.00
C294   C     0.85908   0.97566   0.19956   0.00000  Uiso   1.00
C295   C     0.85924   0.69166   0.19938   0.00000  Uiso   1.00
C296   C     0.80743   0.97501   0.13395   0.00000  Uiso   1.00
C297   C     0.91221   0.83356   0.16210   0.00000  Uiso   1.00
C298   C     0.83329   0.83330   0.07371   0.00000  Uiso   1.00
C299   C     0.83338   0.83337   0.25963   0.00000  Uiso   1.00
C300   C     0.83333   0.83328   0.02190   0.00000  Uiso   1.00
C301   C     0.83334   0.83339   0.31144   0.00000  Uiso   1.00
C302   C     0.68703   0.79110   0.17030   0.00000  Uiso   1.00
C303   C     0.97964   0.87557   0.16303   0.00000  Uiso   1.00
C304   C     0.97838   0.79216   0.15631   0.00000  Uiso   1.00
Cu305  Cu    0.83333   0.88022   0.16667   0.00000  Uiso   1.00
Cu306  Cu    0.83333   0.78645   0.16667   0.00000  Uiso   1.00
I307   I     0.71057   0.72823   0.20075   0.00000  Uiso   1.00
I308   I     0.95609   0.93844   0.13259   0.00000  Uiso   1.00
I309   I     0.95189   0.73389   0.11729   0.00000  Uiso   1.00
I310   I     0.71477   0.93277   0.21604   0.00000  Uiso   1.00
I311   I     0.76657   0.72512   0.08025   0.00000  Uiso   1.00
I312   I     0.90010   0.94155   0.25309   0.00000  Uiso   1.00
I313   I     0.90166   0.72678   0.25132   0.00000  Uiso   1.00
I314   I     0.76500   0.93988   0.08201   0.00000  Uiso   1.00
N315   N     0.83333   0.95069   0.16667   0.00000  Uiso   1.00
N316   N     0.83333   0.71598   0.16667   0.00000  Uiso   1.00
O317   O     0.77321   0.87291   0.16666   0.00000  Uiso   1.00
O318   O     0.89345   0.79375   0.16667   0.00000  Uiso   1.00
O319   O     0.89345   0.87291   0.16667   0.00000  Uiso   1.00
O320   O     0.77321   0.79375   0.16666   0.00000  Uiso   1.00
O321   O     0.83333   0.87292   0.09613   0.00000  Uiso   1.00
O322   O     0.83333   0.79375   0.23720   0.00000  Uiso   1.00
O323   O     0.83333   0.87292   0.23720   0.00000  Uiso   1.00
O324   O     0.83333   0.79375   0.09613   0.00000  Uiso   1.00
C325   C     0.08779   0.16644   0.50457   0.00000  Uiso   1.00
C326   C     0.02162   0.20784   0.51035   0.00000  Uiso   1.00
C327   C     0.29042   0.16735   0.49119   0.00000  Uiso   1.00
C328   C     0.04291   0.16599   0.50881   0.00000  Uiso   1.00
C329   C     0.14092   0.02434   0.46711   0.00000  Uiso   1.00
C330   C     0.19242   0.30899   0.53289   0.00000  Uiso   1.00
C331   C     0.19257   0.02499   0.53272   0.00000  Uiso   1.00
C332   C     0.14076   0.30834   0.46728   0.00000  Uiso   1.00
C333   C     0.24554   0.16689   0.49544   0.00000  Uiso   1.00
C334   C     0.16662   0.16663   0.40704   0.00000  Uiso   1.00
C335   C     0.16671   0.16670   0.59296   0.00000  Uiso   1.00
C336   C     0.16666   0.16661   0.35523   0.00000  Uiso   1.00
C337   C     0.16667   0.16672   0.64477   0.00000  Uiso   1.00
C338   C     0.02036   0.12443   0.50364   0.00000  Uiso   1.00
C339   C     0.31297   0.20890   0.49636   0.00000  Uiso   1.00
C340   C     0.31171   0.12549   0.48965   0.00000  Uiso   1.00
Cu341  Cu    0.16667   0.21355   0.50000   0.00000  Uiso   1.00
Cu342  Cu    0.16667   0.11978   0.50000   0.00000  Uiso   1.00
I343   I     0.04391   0.06157   0.53408   0.00000  Uiso   1.00
I344   I     0.28943   0.27177   0.46592   0.00000  Uiso   1.00
I345   I     0.28523   0.06723   0.45063   0.00000  Uiso   1.00
I346   I     0.04811   0.26611   0.54938   0.00000  Uiso   1.00
I347   I     0.09990   0.05845   0.41358   0.00000  Uiso   1.00
I348   I     0.23343   0.27488   0.58642   0.00000  Uiso   1.00
I349   I     0.23500   0.06012   0.58466   0.00000  Uiso   1.00
I350   I     0.09834   0.27322   0.41534   0.00000  Uiso   1.00
N351   N     0.16667   0.28402   0.50000   0.00000  Uiso   1.00
N352   N     0.16667   0.04931   0.50000   0.00000  Uiso   1.00
O353   O     0.10655   0.20625   0.50000   0.00000  Uiso   1.00
O354   O     0.22679   0.12709   0.50000   0.00000  Uiso   1.00
O355   O     0.22679   0.20625   0.50000   0.00000  Uiso   1.00
O356   O     0.10655   0.12709   0.50000   0.00000  Uiso   1.00
O357   O     0.16667   0.20625   0.42946   0.00000  Uiso   1.00
O358   O     0.16667   0.12708   0.57054   0.00000  Uiso   1.00
O359   O     0.16667   0.20625   0.57054   0.00000  Uiso   1.00
O360   O     0.16667   0.12708   0.42946   0.00000  Uiso   1.00
C361   C     0.42113   0.16644   0.50457   0.00000  Uiso   1.00
C362   C     0.35496   0.20784   0.51035   0.00000  Uiso   1.00
C363   C     0.62376   0.16735   0.49119   0.00000  Uiso   1.00
C364   C     0.37624   0.16599   0.50881   0.00000  Uiso   1.00
C365   C     0.47425   0.02434   0.46711   0.00000  Uiso   1.00
C366   C     0.52575   0.30899   0.53289   0.00000  Uiso   1.00
C367   C     0.52590   0.02499   0.53272   0.00000  Uiso   1.00
C368   C     0.47410   0.30834   0.46728   0.00000  Uiso   1.00
C369   C     0.57887   0.16689   0.49544   0.00000  Uiso   1.00
C370   C     0.49996   0.16663   0.40704   0.00000  Uiso   1.00
C371   C     0.50004   0.16670   0.59296   0.00000  Uiso   1.00
C372   C     0.49999   0.16661   0.35523   0.00000  Uiso   1.00
C373   C     0.50001   0.16672   0.64477   0.00000  Uiso   1.00
C374   C     0.35370   0.12443   0.50364   0.00000  Uiso   1.00
C375   C     0.64630   0.20890   0.49636   0.00000  Uiso   1.00
C376   C     0.64504   0.12549   0.48965   0.00000  Uiso   1.00
Cu377  Cu    0.50000   0.21355   0.50000   0.00000  Uiso   1.00
Cu378  Cu    0.50000   0.11978   0.50000   0.00000  Uiso   1.00
I379   I     0.37724   0.06157   0.53408   0.00000  Uiso   1.00
I380   I     0.62276   0.27177   0.46592   0.00000  Uiso   1.00
I381   I     0.61856   0.06723   0.45063   0.00000  Uiso   1.00
I382   I     0.38144   0.26611   0.54938   0.00000  Uiso   1.00
I383   I     0.43324   0.05845   0.41358   0.00000  Uiso   1.00
I384   I     0.56676   0.27488   0.58642   0.00000  Uiso   1.00
I385   I     0.56833   0.06012   0.58466   0.00000  Uiso   1.00
I386   I     0.43167   0.27322   0.41534   0.00000  Uiso   1.00
N387   N     0.50000   0.28402   0.50000   0.00000  Uiso   1.00
N388   N     0.50000   0.04931   0.50000   0.00000  Uiso   1.00
O389   O     0.43988   0.20625   0.50000   0.00000  Uiso   1.00
O390   O     0.56012   0.12709   0.50000   0.00000  Uiso   1.00
O391   O     0.56012   0.20625   0.50000   0.00000  Uiso   1.00
O392   O     0.43988   0.12709   0.50000   0.00000  Uiso   1.00
O393   O     0.50000   0.20625   0.42946   0.00000  Uiso   1.00
O394   O     0.50000   0.12708   0.57054   0.00000  Uiso   1.00
O395   O     0.50000   0.20625   0.57054   0.00000  Uiso   1.00
O396   O     0.50000   0.12708   0.42946   0.00000  Uiso   1.00
C397   C     0.75446   0.16644   0.50457   0.00000  Uiso   1.00
C398   C     0.68829   0.20784   0.51035   0.00000  Uiso   1.00
C399   C     0.95709   0.16735   0.49119   0.00000  Uiso   1.00
C400   C     0.70958   0.16599   0.50881   0.00000  Uiso   1.00
C401   C     0.80758   0.02434   0.46711   0.00000  Uiso   1.00
C402   C     0.85908   0.30899   0.53289   0.00000  Uiso   1.00
C403   C     0.85924   0.02499   0.53272   0.00000  Uiso   1.00
C404   C     0.80743   0.30834   0.46728   0.00000  Uiso   1.00
C405   C     0.91221   0.16689   0.49544   0.00000  Uiso   1.00
C406   C     0.83329   0.16663   0.40704   0.00000  Uiso   1.00
C407   C     0.83338   0.16670   0.59296   0.00000  Uiso   1.00
C408   C     0.83333   0.16661   0.35523   0.00000  Uiso   1.00
C409   C     0.83334   0.16672   0.64477   0.00000  Uiso   1.00
C410   C     0.68703   0.12443   0.50364   0.00000  Uiso   1.00
C411   C     0.97964   0.20890   0.49636   0.00000  Uiso   1.00
C412   C     0.97838   0.12549   0.48965   0.00000  Uiso   1.00
Cu413  Cu    0.83333   0.21355   0.50000   0.00000  Uiso   1.00
Cu414  Cu    0.83333   0.11978   0.50000   0.00000  Uiso   1.00
I415   I     0.71057   0.06157   0.53408   0.00000  Uiso   1.00
I416   I     0.95609   0.27177   0.46592   0.00000  Uiso   1.00
I417   I     0.95189   0.06723   0.45063   0.00000  Uiso   1.00
I418   I     0.71477   0.26611   0.54938   0.00000  Uiso   1.00
I419   I     0.76657   0.05845   0.41358   0.00000  Uiso   1.00
I420   I     0.90010   0.27488   0.58642   0.00000  Uiso   1.00
I421   I     0.90166   0.06012   0.58466   0.00000  Uiso   1.00
I422   I     0.76500   0.27322   0.41534   0.00000  Uiso   1.00
N423   N     0.83333   0.28402   0.50000   0.00000  Uiso   1.00
N424   N     0.83333   0.04931   0.50000   0.00000  Uiso   1.00
O425   O     0.77321   0.20625   0.50000   0.00000  Uiso   1.00
O426   O     0.89345   0.12709   0.50000   0.00000  Uiso   1.00
O427   O     0.89345   0.20625   0.50000   0.00000  Uiso   1.00
O428   O     0.77321   0.12709   0.50000   0.00000  Uiso   1.00
O429   O     0.83333   0.20625   0.42946   0.00000  Uiso   1.00
O430   O     0.83333   0.12708   0.57054   0.00000  Uiso   1.00
O431   O     0.83333   0.20625   0.57054   0.00000  Uiso   1.00
O432   O     0.83333   0.12708   0.42946   0.00000  Uiso   1.00
C433   C     0.08779   0.49977   0.50457   0.00000  Uiso   1.00
C434   C     0.02162   0.54117   0.51035   0.00000  Uiso   1.00
C435   C     0.29042   0.50068   0.49119   0.00000  Uiso   1.00
C436   C     0.04291   0.49932   0.50881   0.00000  Uiso   1.00
C437   C     0.14092   0.35767   0.46711   0.00000  Uiso   1.00
C438   C     0.19242   0.64233   0.53289   0.00000  Uiso   1.00
C439   C     0.19257   0.35832   0.53272   0.00000  Uiso   1.00
C440   C     0.14076   0.64168   0.46728   0.00000  Uiso   1.00
C441   C     0.24554   0.50023   0.49544   0.00000  Uiso   1.00
C442   C     0.16662   0.49996   0.40704   0.00000  Uiso   1.00
C443   C     0.16671   0.50004   0.59296   0.00000  Uiso   1.00
C444   C     0.16666   0.49995   0.35523   0.00000  Uiso   1.00
C445   C     0.16667   0.50005   0.64477   0.00000  Uiso   1.00
C446   C     0.02036   0.45776   0.50364   0.00000  Uiso   1.00
C447   C     0.31297   0.54224   0.49636   0.00000  Uiso   1.00
C448   C     0.31171   0.45883   0.48965   0.00000  Uiso   1.00
Cu449  Cu    0.16667   0.54689   0.50000   0.00000  Uiso   1.00
Cu450  Cu    0.16667   0.45311   0.50000   0.00000  Uiso   1.00
I451   I     0.04391   0.39490   0.53408   0.00000  Uiso   1.00
I452   I     0.28943   0.60510   0.46592   0.00000  Uiso   1.00
I453   I     0.28523   0.40056   0.45063   0.00000  Uiso   1.00
I454   I     0.04811   0.59944   0.54938   0.00000  Uiso   1.00
I455   I     0.09990   0.39178   0.41358   0.00000  Uiso   1.00
I456   I     0.23343   0.60822   0.58642   0.00000  Uiso   1.00
I457   I     0.23500   0.39345   0.58466   0.00000  Uiso   1.00
I458   I     0.09834   0.60655   0.41534   0.00000  Uiso   1.00
N459   N     0.16667   0.61736   0.50000   0.00000  Uiso   1.00
N460   N     0.16667   0.38264   0.50000   0.00000  Uiso   1.00
O461   O     0.10655   0.53958   0.50000   0.00000  Uiso   1.00
O462   O     0.22679   0.46042   0.50000   0.00000  Uiso   1.00
O463   O     0.22679   0.53958   0.50000   0.00000  Uiso   1.00
O464   O     0.10655   0.46042   0.50000   0.00000  Uiso   1.00
O465   O     0.16667   0.53959   0.42946   0.00000  Uiso   1.00
O466   O     0.16667   0.46041   0.57054   0.00000  Uiso   1.00
O467   O     0.16667   0.53959   0.57054   0.00000  Uiso   1.00
O468   O     0.16667   0.46041   0.42946   0.00000  Uiso   1.00
C469   C     0.42113   0.49977   0.50457   0.00000  Uiso   1.00
C470   C     0.35496   0.54117   0.51035   0.00000  Uiso   1.00
C471   C     0.62376   0.50068   0.49119   0.00000  Uiso   1.00
C472   C     0.37624   0.49932   0.50881   0.00000  Uiso   1.00
C473   C     0.47425   0.35767   0.46711   0.00000  Uiso   1.00
C474   C     0.52575   0.64233   0.53289   0.00000  Uiso   1.00
C475   C     0.52590   0.35832   0.53272   0.00000  Uiso   1.00
C476   C     0.47410   0.64168   0.46728   0.00000  Uiso   1.00
C477   C     0.57887   0.50023   0.49544   0.00000  Uiso   1.00
C478   C     0.49996   0.49996   0.40704   0.00000  Uiso   1.00
C479   C     0.50004   0.50004   0.59296   0.00000  Uiso   1.00
C480   C     0.49999   0.49995   0.35523   0.00000  Uiso   1.00
C481   C     0.50001   0.50005   0.64477   0.00000  Uiso   1.00
C482   C     0.35370   0.45776   0.50364   0.00000  Uiso   1.00
C483   C     0.64630   0.54224   0.49636   0.00000  Uiso   1.00
C484   C     0.64504   0.45883   0.48965   0.00000  Uiso   1.00
Cu485  Cu    0.50000   0.54689   0.50000   0.00000  Uiso   1.00
Cu486  Cu    0.50000   0.45311   0.50000   0.00000  Uiso   1.00
I487   I     0.37724   0.39490   0.53408   0.00000  Uiso   1.00
I488   I     0.62276   0.60510   0.46592   0.00000  Uiso   1.00
I489   I     0.61856   0.40056   0.45063   0.00000  Uiso   1.00
I490   I     0.38144   0.59944   0.54938   0.00000  Uiso   1.00
I491   I     0.43324   0.39178   0.41358   0.00000  Uiso   1.00
I492   I     0.56676   0.60822   0.58642   0.00000  Uiso   1.00
I493   I     0.56833   0.39345   0.58466   0.00000  Uiso   1.00
I494   I     0.43167   0.60655   0.41534   0.00000  Uiso   1.00
N495   N     0.50000   0.61736   0.50000   0.00000  Uiso   1.00
N496   N     0.50000   0.38264   0.50000   0.00000  Uiso   1.00
O497   O     0.43988   0.53958   0.50000   0.00000  Uiso   1.00
O498   O     0.56012   0.46042   0.50000   0.00000  Uiso   1.00
O499   O     0.56012   0.53958   0.50000   0.00000  Uiso   1.00
O500   O     0.43988   0.46042   0.50000   0.00000  Uiso   1.00
O501   O     0.50000   0.53959   0.42946   0.00000  Uiso   1.00
O502   O     0.50000   0.46041   0.57054   0.00000  Uiso   1.00
O503   O     0.50000   0.53959   0.57054   0.00000  Uiso   1.00
O504   O     0.50000   0.46041   0.42946   0.00000  Uiso   1.00
C505   C     0.75446   0.49977   0.50457   0.00000  Uiso   1.00
C506   C     0.68829   0.54117   0.51035   0.00000  Uiso   1.00
C507   C     0.95709   0.50068   0.49119   0.00000  Uiso   1.00
C508   C     0.70958   0.49932   0.50881   0.00000  Uiso   1.00
C509   C     0.80758   0.35767   0.46711   0.00000  Uiso   1.00
C510   C     0.85908   0.64233   0.53289   0.00000  Uiso   1.00
C511   C     0.85924   0.35832   0.53272   0.00000  Uiso   1.00
C512   C     0.80743   0.64168   0.46728   0.00000  Uiso   1.00
C513   C     0.91221   0.50023   0.49544   0.00000  Uiso   1.00
C514   C     0.83329   0.49996   0.40704   0.00000  Uiso   1.00
C515   C     0.83338   0.50004   0.59296   0.00000  Uiso   1.00
C516   C     0.83333   0.49995   0.35523   0.00000  Uiso   1.00
C517   C     0.83334   0.50005   0.64477   0.00000  Uiso   1.00
C518   C     0.68703   0.45776   0.50364   0.00000  Uiso   1.00
C519   C     0.97964   0.54224   0.49636   0.00000  Uiso   1.00
C520   C     0.97838   0.45883   0.48965   0.00000  Uiso   1.00
Cu521  Cu    0.83333   0.54689   0.50000   0.00000  Uiso   1.00
Cu522  Cu    0.83333   0.45311   0.50000   0.00000  Uiso   1.00
I523   I     0.71057   0.39490   0.53408   0.00000  Uiso   1.00
I524   I     0.95609   0.60510   0.46592   0.00000  Uiso   1.00
I525   I     0.95189   0.40056   0.45063   0.00000  Uiso   1.00
I526   I     0.71477   0.59944   0.54938   0.00000  Uiso   1.00
I527   I     0.76657   0.39178   0.41358   0.00000  Uiso   1.00
I528   I     0.90010   0.60822   0.58642   0.00000  Uiso   1.00
I529   I     0.90166   0.39345   0.58466   0.00000  Uiso   1.00
I530   I     0.76500   0.60655   0.41534   0.00000  Uiso   1.00
N531   N     0.83333   0.61736   0.50000   0.00000  Uiso   1.00
N532   N     0.83333   0.38264   0.50000   0.00000  Uiso   1.00
O533   O     0.77321   0.53958   0.50000   0.00000  Uiso   1.00
O534   O     0.89345   0.46042   0.50000   0.00000  Uiso   1.00
O535   O     0.89345   0.53958   0.50000   0.00000  Uiso   1.00
O536   O     0.77321   0.46042   0.50000   0.00000  Uiso   1.00
O537   O     0.83333   0.53959   0.42946   0.00000  Uiso   1.00
O538   O     0.83333   0.46041   0.57054   0.00000  Uiso   1.00
O539   O     0.83333   0.53959   0.57054   0.00000  Uiso   1.00
O540   O     0.83333   0.46041   0.42946   0.00000  Uiso   1.00
C541   C     0.08779   0.83311   0.50457   0.00000  Uiso   1.00
C542   C     0.02162   0.87451   0.51035   0.00000  Uiso   1.00
C543   C     0.29042   0.83401   0.49119   0.00000  Uiso   1.00
C544   C     0.04291   0.83265   0.50881   0.00000  Uiso   1.00
C545   C     0.14092   0.69101   0.46711   0.00000  Uiso   1.00
C546   C     0.19242   0.97566   0.53289   0.00000  Uiso   1.00
C547   C     0.19257   0.69166   0.53272   0.00000  Uiso   1.00
C548   C     0.14076   0.97501   0.46728   0.00000  Uiso   1.00
C549   C     0.24554   0.83356   0.49544   0.00000  Uiso   1.00
C550   C     0.16662   0.83330   0.40704   0.00000  Uiso   1.00
C551   C     0.16671   0.83337   0.59296   0.00000  Uiso   1.00
C552   C     0.16666   0.83328   0.35523   0.00000  Uiso   1.00
C553   C     0.16667   0.83339   0.64477   0.00000  Uiso   1.00
C554   C     0.02036   0.79110   0.50364   0.00000  Uiso   1.00
C555   C     0.31297   0.87557   0.49636   0.00000  Uiso   1.00
C556   C     0.31171   0.79216   0.48965   0.00000  Uiso   1.00
Cu557  Cu    0.16667   0.88022   0.50000   0.00000  Uiso   1.00
Cu558  Cu    0.16667   0.78645   0.50000   0.00000  Uiso   1.00
I559   I     0.04391   0.72823   0.53408   0.00000  Uiso   1.00
I560   I     0.28943   0.93844   0.46592   0.00000  Uiso   1.00
I561   I     0.28523   0.73389   0.45063   0.00000  Uiso   1.00
I562   I     0.04811   0.93277   0.54938   0.00000  Uiso   1.00
I563   I     0.09990   0.72512   0.41358   0.00000  Uiso   1.00
I564   I     0.23343   0.94155   0.58642   0.00000  Uiso   1.00
I565   I     0.23500   0.72678   0.58466   0.00000  Uiso   1.00
I566   I     0.09834   0.93988   0.41534   0.00000  Uiso   1.00
N567   N     0.16667   0.95069   0.50000   0.00000  Uiso   1.00
N568   N     0.16667   0.71598   0.50000   0.00000  Uiso   1.00
O569   O     0.10655   0.87291   0.50000   0.00000  Uiso   1.00
O570   O     0.22679   0.79375   0.50000   0.00000  Uiso   1.00
O571   O     0.22679   0.87291   0.50000   0.00000  Uiso   1.00
O572   O     0.10655   0.79375   0.50000   0.00000  Uiso   1.00
O573   O     0.16667   0.87292   0.42946   0.00000  Uiso   1.00
O574   O     0.16667   0.79375   0.57054   0.00000  Uiso   1.00
O575   O     0.16667   0.87292   0.57054   0.00000  Uiso   1.00
O576   O     0.16667   0.79375   0.42946   0.00000  Uiso   1.00
C577   C     0.42113   0.83311   0.50457   0.00000  Uiso   1.00
C578   C     0.35496   0.87451   0.51035   0.00000  Uiso   1.00
C579   C     0.62376   0.83401   0.49119   0.00000  Uiso   1.00
C580   C     0.37624   0.83265   0.50881   0.00000  Uiso   1.00
C581   C     0.47425   0.69101   0.46711   0.00000  Uiso   1.00
C582   C     0.52575   0.97566   0.53289   0.00000  Uiso   1.00
C583   C     0.52590   0.69166   0.53272   0.00000  Uiso   1.00
C584   C     0.47410   0.97501   0.46728   0.00000  Uiso   1.00
C585   C     0.57887   0.83356   0.49544   0.00000  Uiso   1.00
C586   C     0.49996   0.83330   0.40704   0.00000  Uiso   1.00
C587   C     0.50004   0.83337   0.59296   0.00000  Uiso   1.00
C588   C     0.49999   0.83328   0.35523   0.00000  Uiso   1.00
C589   C     0.50001   0.83339   0.64477   0.00000  Uiso   1.00
C590   C     0.35370   0.79110   0.50364   0.00000  Uiso   1.00
C591   C     0.64630   0.87557   0.49636   0.00000  Uiso   1.00
C592   C     0.64504   0.79216   0.48965   0.00000  Uiso   1.00
Cu593  Cu    0.50000   0.88022   0.50000   0.00000  Uiso   1.00
Cu594  Cu    0.50000   0.78645   0.50000   0.00000  Uiso   1.00
I595   I     0.37724   0.72823   0.53408   0.00000  Uiso   1.00
I596   I     0.62276   0.93844   0.46592   0.00000  Uiso   1.00
I597   I     0.61856   0.73389   0.45063   0.00000  Uiso   1.00
I598   I     0.38144   0.93277   0.54938   0.00000  Uiso   1.00
I599   I     0.43324   0.72512   0.41358   0.00000  Uiso   1.00
I600   I     0.56676   0.94155   0.58642   0.00000  Uiso   1.00
I601   I     0.56833   0.72678   0.58466   0.00000  Uiso   1.00
I602   I     0.43167   0.93988   0.41534   0.00000  Uiso   1.00
N603   N     0.50000   0.95069   0.50000   0.00000  Uiso   1.00
N604   N     0.50000   0.71598   0.50000   0.00000  Uiso   1.00
O605   O     0.43988   0.87291   0.50000   0.00000  Uiso   1.00
O606   O     0.56012   0.79375   0.50000   0.00000  Uiso   1.00
O607   O     0.56012   0.87291   0.50000   0.00000  Uiso   1.00
O608   O     0.43988   0.79375   0.50000   0.00000  Uiso   1.00
O609   O     0.50000   0.87292   0.42946   0.00000  Uiso   1.00
O610   O     0.50000   0.79375   0.57054   0.00000  Uiso   1.00
O611   O     0.50000   0.87292   0.57054   0.00000  Uiso   1.00
O612   O     0.50000   0.79375   0.42946   0.00000  Uiso   1.00
C613   C     0.75446   0.83311   0.50457   0.00000  Uiso   1.00
C614   C     0.68829   0.87451   0.51035   0.00000  Uiso   1.00
C615   C     0.95709   0.83401   0.49119   0.00000  Uiso   1.00
C616   C     0.70958   0.83265   0.50881   0.00000  Uiso   1.00
C617   C     0.80758   0.69101   0.46711   0.00000  Uiso   1.00
C618   C     0.85908   0.97566   0.53289   0.00000  Uiso   1.00
C619   C     0.85924   0.69166   0.53272   0.00000  Uiso   1.00
C620   C     0.80743   0.97501   0.46728   0.00000  Uiso   1.00
C621   C     0.91221   0.83356   0.49544   0.00000  Uiso   1.00
C622   C     0.83329   0.83330   0.40704   0.00000  Uiso   1.00
C623   C     0.83338   0.83337   0.59296   0.00000  Uiso   1.00
C624   C     0.83333   0.83328   0.35523   0.00000  Uiso   1.00
C625   C     0.83334   0.83339   0.64477   0.00000  Uiso   1.00
C626   C     0.68703   0.79110   0.50364   0.00000  Uiso   1.00
C627   C     0.97964   0.87557   0.49636   0.00000  Uiso   1.00
C628   C     0.97838   0.79216   0.48965   0.00000  Uiso   1.00
Cu629  Cu    0.83333   0.88022   0.50000   0.00000  Uiso   1.00
Cu630  Cu    0.83333   0.78645   0.50000   0.00000  Uiso   1.00
I631   I     0.71057   0.72823   0.53408   0.00000  Uiso   1.00
I632   I     0.95609   0.93844   0.46592   0.00000  Uiso   1.00
I633   I     0.95189   0.73389   0.45063   0.00000  Uiso   1.00
I634   I     0.71477   0.93277   0.54938   0.00000  Uiso   1.00
I635   I     0.76657   0.72512   0.41358   0.00000  Uiso   1.00
I636   I     0.90010   0.94155   0.58642   0.00000  Uiso   1.00
I637   I     0.90166   0.72678   0.58466   0.00000  Uiso   1.00
I638   I     0.76500   0.93988   0.41534   0.00000  Uiso   1.00
N639   N     0.83333   0.95069   0.50000   0.00000  Uiso   1.00
N640   N     0.83333   0.71598   0.50000   0.00000  Uiso   1.00
O641   O     0.77321   0.87291   0.50000   0.00000  Uiso   1.00
O642   O     0.89345   0.79375   0.50000   0.00000  Uiso   1.00
O643   O     0.89345   0.87291   0.50000   0.00000  Uiso   1.00
O644   O     0.77321   0.79375   0.50000   0.00000  Uiso   1.00
O645   O     0.83333   0.87292   0.42946   0.00000  Uiso   1.00
O646   O     0.83333   0.79375   0.57054   0.00000  Uiso   1.00
O647   O     0.83333   0.87292   0.57054   0.00000  Uiso   1.00
O648   O     0.83333   0.79375   0.42946   0.00000  Uiso   1.00
C649   C     0.08779   0.16644   0.83790   0.00000  Uiso   1.00
C650   C     0.02162   0.20784   0.84369   0.00000  Uiso   1.00
C651   C     0.29042   0.16735   0.82452   0.00000  Uiso   1.00
C652   C     0.04291   0.16599   0.84215   0.00000  Uiso   1.00
C653   C     0.14092   0.02434   0.80044   0.00000  Uiso   1.00
C654   C     0.19242   0.30899   0.86622   0.00000  Uiso   1.00
C655   C     0.19257   0.02499   0.86605   0.00000  Uiso   1.00
C656   C     0.14076   0.30834   0.80062   0.00000  Uiso   1.00
C657   C     0.24554   0.16689   0.82877   0.00000  Uiso   1.00
C658   C     0.16662   0.16663   0.74037   0.00000  Uiso   1.00
C659   C     0.16671   0.16670   0.92629   0.00000  Uiso   1.00
C660   C     0.16666   0.16661   0.68856   0.00000  Uiso   1.00
C661   C     0.16667   0.16672   0.97810   0.00000  Uiso   1.00
C662   C     0.02036   0.12443   0.83697   0.00000  Uiso   1.00
C663   C     0.31297   0.20890   0.82970   0.00000  Uiso   1.00
C664   C     0.31171   0.12549   0.82298   0.00000  Uiso   1.00
Cu665  Cu    0.16667   0.21355   0.83333   0.00000  Uiso   1.00
Cu666  Cu    0.16667   0.11978   0.83333   0.00000  Uiso   1.00
I667   I     0.04391   0.06157   0.86741   0.00000  Uiso   1.00
I668   I     0.28943   0.27177   0.79926   0.00000  Uiso   1.00
I669   I     0.28523   0.06723   0.78396   0.00000  Uiso   1.00
I670   I     0.04811   0.26611   0.88271   0.00000  Uiso   1.00
I671   I     0.09990   0.05845   0.74691   0.00000  Uiso   1.00
I672   I     0.23343   0.27488   0.91975   0.00000  Uiso   1.00
I673   I     0.23500   0.06012   0.91799   0.00000  Uiso   1.00
I674   I     0.09834   0.27322   0.74868   0.00000  Uiso   1.00
N675   N     0.16667   0.28402   0.83333   0.00000  Uiso   1.00
N676   N     0.16667   0.04931   0.83333   0.00000  Uiso   1.00
O677   O     0.10655   0.20625   0.83333   0.00000  Uiso   1.00
O678   O     0.22679   0.12709   0.83334   0.00000  Uiso   1.00
O679   O     0.22679   0.20625   0.83334   0.00000  Uiso   1.00
O680   O     0.10655   0.12709   0.83333   0.00000  Uiso   1.00
O681   O     0.16667   0.20625   0.76280   0.00000  Uiso   1.00
O682   O     0.16667   0.12708   0.90387   0.00000  Uiso   1.00
O683   O     0.16667   0.20625   0.90387   0.00000  Uiso   1.00
O684   O     0.16667   0.12708   0.76280   0.00000  Uiso   1.00
C685   C     0.42113   0.16644   0.83790   0.00000  Uiso   1.00
C686   C     0.35496   0.20784   0.84369   0.00000  Uiso   1.00
C687   C     0.62376   0.16735   0.82452   0.00000  Uiso   1.00
C688   C     0.37624   0.16599   0.84215   0.00000  Uiso   1.00
C689   C     0.47425   0.02434   0.80044   0.00000  Uiso   1.00
C690   C     0.52575   0.30899   0.86622   0.00000  Uiso   1.00
C691   C     0.52590   0.02499   0.86605   0.00000  Uiso   1.00
C692   C     0.47410   0.30834   0.80062   0.00000  Uiso   1.00
C693   C     0.57887   0.16689   0.82877   0.00000  Uiso   1.00
C694   C     0.49996   0.16663   0.74037   0.00000  Uiso   1.00
C695   C     0.50004   0.16670   0.92629   0.00000  Uiso   1.00
C696   C     0.49999   0.16661   0.68856   0.00000  Uiso   1.00
C697   C     0.50001   0.16672   0.97810   0.00000  Uiso   1.00
C698   C     0.35370   0.12443   0.83697   0.00000  Uiso   1.00
C699   C     0.64630   0.20890   0.82970   0.00000  Uiso   1.00
C700   C     0.64504   0.12549   0.82298   0.00000  Uiso   1.00
Cu701  Cu    0.50000   0.21355   0.83333   0.00000  Uiso   1.00
Cu702  Cu    0.50000   0.11978   0.83333   0.00000  Uiso   1.00
I703   I     0.37724   0.06157   0.86741   0.00000  Uiso   1.00
I704   I     0.62276   0.27177   0.79926   0.00000  Uiso   1.00
I705   I     0.61856   0.06723   0.78396   0.00000  Uiso   1.00
I706   I     0.38144   0.26611   0.88271   0.00000  Uiso   1.00
I707   I     0.43324   0.05845   0.74691   0.00000  Uiso   1.00
I708   I     0.56676   0.27488   0.91975   0.00000  Uiso   1.00
I709   I     0.56833   0.06012   0.91799   0.00000  Uiso   1.00
I710   I     0.43167   0.27322   0.74868   0.00000  Uiso   1.00
N711   N     0.50000   0.28402   0.83333   0.00000  Uiso   1.00
N712   N     0.50000   0.04931   0.83333   0.00000  Uiso   1.00
O713   O     0.43988   0.20625   0.83333   0.00000  Uiso   1.00
O714   O     0.56012   0.12709   0.83334   0.00000  Uiso   1.00
O715   O     0.56012   0.20625   0.83334   0.00000  Uiso   1.00
O716   O     0.43988   0.12709   0.83333   0.00000  Uiso   1.00
O717   O     0.50000   0.20625   0.76280   0.00000  Uiso   1.00
O718   O     0.50000   0.12708   0.90387   0.00000  Uiso   1.00
O719   O     0.50000   0.20625   0.90387   0.00000  Uiso   1.00
O720   O     0.50000   0.12708   0.76280   0.00000  Uiso   1.00
C721   C     0.75446   0.16644   0.83790   0.00000  Uiso   1.00
C722   C     0.68829   0.20784   0.84369   0.00000  Uiso   1.00
C723   C     0.95709   0.16735   0.82452   0.00000  Uiso   1.00
C724   C     0.70958   0.16599   0.84215   0.00000  Uiso   1.00
C725   C     0.80758   0.02434   0.80044   0.00000  Uiso   1.00
C726   C     0.85908   0.30899   0.86622   0.00000  Uiso   1.00
C727   C     0.85924   0.02499   0.86605   0.00000  Uiso   1.00
C728   C     0.80743   0.30834   0.80062   0.00000  Uiso   1.00
C729   C     0.91221   0.16689   0.82877   0.00000  Uiso   1.00
C730   C     0.83329   0.16663   0.74037   0.00000  Uiso   1.00
C731   C     0.83338   0.16670   0.92629   0.00000  Uiso   1.00
C732   C     0.83333   0.16661   0.68856   0.00000  Uiso   1.00
C733   C     0.83334   0.16672   0.97810   0.00000  Uiso   1.00
C734   C     0.68703   0.12443   0.83697   0.00000  Uiso   1.00
C735   C     0.97964   0.20890   0.82970   0.00000  Uiso   1.00
C736   C     0.97838   0.12549   0.82298   0.00000  Uiso   1.00
Cu737  Cu    0.83333   0.21355   0.83333   0.00000  Uiso   1.00
Cu738  Cu    0.83333   0.11978   0.83333   0.00000  Uiso   1.00
I739   I     0.71057   0.06157   0.86741   0.00000  Uiso   1.00
I740   I     0.95609   0.27177   0.79926   0.00000  Uiso   1.00
I741   I     0.95189   0.06723   0.78396   0.00000  Uiso   1.00
I742   I     0.71477   0.26611   0.88271   0.00000  Uiso   1.00
I743   I     0.76657   0.05845   0.74691   0.00000  Uiso   1.00
I744   I     0.90010   0.27488   0.91975   0.00000  Uiso   1.00
I745   I     0.90166   0.06012   0.91799   0.00000  Uiso   1.00
I746   I     0.76500   0.27322   0.74868   0.00000  Uiso   1.00
N747   N     0.83333   0.28402   0.83333   0.00000  Uiso   1.00
N748   N     0.83333   0.04931   0.83333   0.00000  Uiso   1.00
O749   O     0.77321   0.20625   0.83333   0.00000  Uiso   1.00
O750   O     0.89345   0.12709   0.83334   0.00000  Uiso   1.00
O751   O     0.89345   0.20625   0.83334   0.00000  Uiso   1.00
O752   O     0.77321   0.12709   0.83333   0.00000  Uiso   1.00
O753   O     0.83333   0.20625   0.76280   0.00000  Uiso   1.00
O754   O     0.83333   0.12708   0.90387   0.00000  Uiso   1.00
O755   O     0.83333   0.20625   0.90387   0.00000  Uiso   1.00
O756   O     0.83333   0.12708   0.76280   0.00000  Uiso   1.00
C757   C     0.08779   0.49977   0.83790   0.00000  Uiso   1.00
C758   C     0.02162   0.54117   0.84369   0.00000  Uiso   1.00
C759   C     0.29042   0.50068   0.82452   0.00000  Uiso   1.00
C760   C     0.04291   0.49932   0.84215   0.00000  Uiso   1.00
C761   C     0.14092   0.35767   0.80044   0.00000  Uiso   1.00
C762   C     0.19242   0.64233   0.86622   0.00000  Uiso   1.00
C763   C     0.19257   0.35832   0.86605   0.00000  Uiso   1.00
C764   C     0.14076   0.64168   0.80062   0.00000  Uiso   1.00
C765   C     0.24554   0.50023   0.82877   0.00000  Uiso   1.00
C766   C     0.16662   0.49996   0.74037   0.00000  Uiso   1.00
C767   C     0.16671   0.50004   0.92629   0.00000  Uiso   1.00
C768   C     0.16666   0.49995   0.68856   0.00000  Uiso   1.00
C769   C     0.16667   0.50005   0.97810   0.00000  Uiso   1.00
C770   C     0.02036   0.45776   0.83697   0.00000  Uiso   1.00
C771   C     0.31297   0.54224   0.82970   0.00000  Uiso   1.00
C772   C     0.31171   0.45883   0.82298   0.00000  Uiso   1.00
Cu773  Cu    0.16667   0.54689   0.83333   0.00000  Uiso   1.00
Cu774  Cu    0.16667   0.45311   0.83333   0.00000  Uiso   1.00
I775   I     0.04391   0.39490   0.86741   0.00000  Uiso   1.00
I776   I     0.28943   0.60510   0.79926   0.00000  Uiso   1.00
I777   I     0.28523   0.40056   0.78396   0.00000  Uiso   1.00
I778   I     0.04811   0.59944   0.88271   0.00000  Uiso   1.00
I779   I     0.09990   0.39178   0.74691   0.00000  Uiso   1.00
I780   I     0.23343   0.60822   0.91975   0.00000  Uiso   1.00
I781   I     0.23500   0.39345   0.91799   0.00000  Uiso   1.00
I782   I     0.09834   0.60655   0.74868   0.00000  Uiso   1.00
N783   N     0.16667   0.61736   0.83333   0.00000  Uiso   1.00
N784   N     0.16667   0.38264   0.83333   0.00000  Uiso   1.00
O785   O     0.10655   0.53958   0.83333   0.00000  Uiso   1.00
O786   O     0.22679   0.46042   0.83334   0.00000  Uiso   1.00
O787   O     0.22679   0.53958   0.83334   0.00000  Uiso   1.00
O788   O     0.10655   0.46042   0.83333   0.00000  Uiso   1.00
O789   O     0.16667   0.53959   0.76280   0.00000  Uiso   1.00
O790   O     0.16667   0.46041   0.90387   0.00000  Uiso   1.00
O791   O     0.16667   0.53959   0.90387   0.00000  Uiso   1.00
O792   O     0.16667   0.46041   0.76280   0.00000  Uiso   1.00
C793   C     0.42113   0.49977   0.83790   0.00000  Uiso   1.00
C794   C     0.35496   0.54117   0.84369   0.00000  Uiso   1.00
C795   C     0.62376   0.50068   0.82452   0.00000  Uiso   1.00
C796   C     0.37624   0.49932   0.84215   0.00000  Uiso   1.00
C797   C     0.47425   0.35767   0.80044   0.00000  Uiso   1.00
C798   C     0.52575   0.64233   0.86622   0.00000  Uiso   1.00
C799   C     0.52590   0.35832   0.86605   0.00000  Uiso   1.00
C800   C     0.47410   0.64168   0.80062   0.00000  Uiso   1.00
C801   C     0.57887   0.50023   0.82877   0.00000  Uiso   1.00
C802   C     0.49996   0.49996   0.74037   0.00000  Uiso   1.00
C803   C     0.50004   0.50004   0.92629   0.00000  Uiso   1.00
C804   C     0.49999   0.49995   0.68856   0.00000  Uiso   1.00
C805   C     0.50001   0.50005   0.97810   0.00000  Uiso   1.00
C806   C     0.35370   0.45776   0.83697   0.00000  Uiso   1.00
C807   C     0.64630   0.54224   0.82970   0.00000  Uiso   1.00
C808   C     0.64504   0.45883   0.82298   0.00000  Uiso   1.00
Cu809  Cu    0.50000   0.54689   0.83333   0.00000  Uiso   1.00
Cu810  Cu    0.50000   0.45311   0.83333   0.00000  Uiso   1.00
I811   I     0.37724   0.39490   0.86741   0.00000  Uiso   1.00
I812   I     0.62276   0.60510   0.79926   0.00000  Uiso   1.00
I813   I     0.61856   0.40056   0.78396   0.00000  Uiso   1.00
I814   I     0.38144   0.59944   0.88271   0.00000  Uiso   1.00
I815   I     0.43324   0.39178   0.74691   0.00000  Uiso   1.00
I816   I     0.56676   0.60822   0.91975   0.00000  Uiso   1.00
I817   I     0.56833   0.39345   0.91799   0.00000  Uiso   1.00
I818   I     0.43167   0.60655   0.74868   0.00000  Uiso   1.00
N819   N     0.50000   0.61736   0.83333   0.00000  Uiso   1.00
N820   N     0.50000   0.38264   0.83333   0.00000  Uiso   1.00
O821   O     0.43988   0.53958   0.83333   0.00000  Uiso   1.00
O822   O     0.56012   0.46042   0.83334   0.00000  Uiso   1.00
O823   O     0.56012   0.53958   0.83334   0.00000  Uiso   1.00
O824   O     0.43988   0.46042   0.83333   0.00000  Uiso   1.00
O825   O     0.50000   0.53959   0.76280   0.00000  Uiso   1.00
O826   O     0.50000   0.46041   0.90387   0.00000  Uiso   1.00
O827   O     0.50000   0.53959   0.90387   0.00000  Uiso   1.00
O828   O     0.50000   0.46041   0.76280   0.00000  Uiso   1.00
C829   C     0.75446   0.49977   0.83790   0.00000  Uiso   1.00
C830   C     0.68829   0.54117   0.84369   0.00000  Uiso   1.00
C831   C     0.95709   0.50068   0.82452   0.00000  Uiso   1.00
C832   C     0.70958   0.49932   0.84215   0.00000  Uiso   1.00
C833   C     0.80758   0.35767   0.80044   0.00000  Uiso   1.00
C834   C     0.85908   0.64233   0.86622   0.00000  Uiso   1.00
C835   C     0.85924   0.35832   0.86605   0.00000  Uiso   1.00
C836   C     0.80743   0.64168   0.80062   0.00000  Uiso   1.00
C837   C     0.91221   0.50023   0.82877   0.00000  Uiso   1.00
C838   C     0.83329   0.49996   0.74037   0.00000  Uiso   1.00
C839   C     0.83338   0.50004   0.92629   0.00000  Uiso   1.00
C840   C     0.83333   0.49995   0.68856   0.00000  Uiso   1.00
C841   C     0.83334   0.50005   0.97810   0.00000  Uiso   1.00
C842   C     0.68703   0.45776   0.83697   0.00000  Uiso   1.00
C843   C     0.97964   0.54224   0.82970   0.00000  Uiso   1.00
C844   C     0.97838   0.45883   0.82298   0.00000  Uiso   1.00
Cu845  Cu    0.83333   0.54689   0.83333   0.00000  Uiso   1.00
Cu846  Cu    0.83333   0.45311   0.83333   0.00000  Uiso   1.00
I847   I     0.71057   0.39490   0.86741   0.00000  Uiso   1.00
I848   I     0.95609   0.60510   0.79926   0.00000  Uiso   1.00
I849   I     0.95189   0.40056   0.78396   0.00000  Uiso   1.00
I850   I     0.71477   0.59944   0.88271   0.00000  Uiso   1.00
I851   I     0.76657   0.39178   0.74691   0.00000  Uiso   1.00
I852   I     0.90010   0.60822   0.91975   0.00000  Uiso   1.00
I853   I     0.90166   0.39345   0.91799   0.00000  Uiso   1.00
I854   I     0.76500   0.60655   0.74868   0.00000  Uiso   1.00
N855   N     0.83333   0.61736   0.83333   0.00000  Uiso   1.00
N856   N     0.83333   0.38264   0.83333   0.00000  Uiso   1.00
O857   O     0.77321   0.53958   0.83333   0.00000  Uiso   1.00
O858   O     0.89345   0.46042   0.83334   0.00000  Uiso   1.00
O859   O     0.89345   0.53958   0.83334   0.00000  Uiso   1.00
O860   O     0.77321   0.46042   0.83333   0.00000  Uiso   1.00
O861   O     0.83333   0.53959   0.76280   0.00000  Uiso   1.00
O862   O     0.83333   0.46041   0.90387   0.00000  Uiso   1.00
O863   O     0.83333   0.53959   0.90387   0.00000  Uiso   1.00
O864   O     0.83333   0.46041   0.76280   0.00000  Uiso   1.00
C865   C     0.08779   0.83311   0.83790   0.00000  Uiso   1.00
C866   C     0.02162   0.87451   0.84369   0.00000  Uiso   1.00
C867   C     0.29042   0.83401   0.82452   0.00000  Uiso   1.00
C868   C     0.04291   0.83265   0.84215   0.00000  Uiso   1.00
C869   C     0.14092   0.69101   0.80044   0.00000  Uiso   1.00
C870   C     0.19242   0.97566   0.86622   0.00000  Uiso   1.00
C871   C     0.19257   0.69166   0.86605   0.00000  Uiso   1.00
C872   C     0.14076   0.97501   0.80062   0.00000  Uiso   1.00
C873   C     0.24554   0.83356   0.82877   0.00000  Uiso   1.00
C874   C     0.16662   0.83330   0.74037   0.00000  Uiso   1.00
C875   C     0.16671   0.83337   0.92629   0.00000  Uiso   1.00
C876   C     0.16666   0.83328   0.68856   0.00000  Uiso   1.00
C877   C     0.16667   0.83339   0.97810   0.00000  Uiso   1.00
C878   C     0.02036   0.79110   0.83697   0.00000  Uiso   1.00
C879   C     0.31297   0.87557   0.82970   0.00000  Uiso   1.00
C880   C     0.31171   0.79216   0.82298   0.00000  Uiso   1.00
Cu881  Cu    0.16667   0.88022   0.83333   0.00000  Uiso   1.00
Cu882  Cu    0.16667   0.78645   0.83333   0.00000  Uiso   1.00
I883   I     0.04391   0.72823   0.86741   0.00000  Uiso   1.00
I884   I     0.28943   0.93844   0.79926   0.00000  Uiso   1.00
I885   I     0.28523   0.73389   0.78396   0.00000  Uiso   1.00
I886   I     0.04811   0.93277   0.88271   0.00000  Uiso   1.00
I887   I     0.09990   0.72512   0.74691   0.00000  Uiso   1.00
I888   I     0.23343   0.94155   0.91975   0.00000  Uiso   1.00
I889   I     0.23500   0.72678   0.91799   0.00000  Uiso   1.00
I890   I     0.09834   0.93988   0.74868   0.00000  Uiso   1.00
N891   N     0.16667   0.95069   0.83333   0.00000  Uiso   1.00
N892   N     0.16667   0.71598   0.83333   0.00000  Uiso   1.00
O893   O     0.10655   0.87291   0.83333   0.00000  Uiso   1.00
O894   O     0.22679   0.79375   0.83334   0.00000  Uiso   1.00
O895   O     0.22679   0.87291   0.83334   0.00000  Uiso   1.00
O896   O     0.10655   0.79375   0.83333   0.00000  Uiso   1.00
O897   O     0.16667   0.87292   0.76280   0.00000  Uiso   1.00
O898   O     0.16667   0.79375   0.90387   0.00000  Uiso   1.00
O899   O     0.16667   0.87292   0.90387   0.00000  Uiso   1.00
O900   O     0.16667   0.79375   0.76280   0.00000  Uiso   1.00
C901   C     0.42113   0.83311   0.83790   0.00000  Uiso   1.00
C902   C     0.35496   0.87451   0.84369   0.00000  Uiso   1.00
C903   C     0.62376   0.83401   0.82452   0.00000  Uiso   1.00
C904   C     0.37624   0.83265   0.84215   0.00000  Uiso   1.00
C905   C     0.47425   0.69101   0.80044   0.00000  Uiso   1.00
C906   C     0.52575   0.97566   0.86622   0.00000  Uiso   1.00
C907   C     0.52590   0.69166   0.86605   0.00000  Uiso   1.00
C908   C     0.47410   0.97501   0.80062   0.00000  Uiso   1.00
C909   C     0.57887   0.83356   0.82877   0.00000  Uiso   1.00
C910   C     0.49996   0.83330   0.74037   0.00000  Uiso   1.00
C911   C     0.50004   0.83337   0.92629   0.00000  Uiso   1.00
C912   C     0.49999   0.83328   0.68856   0.00000  Uiso   1.00
C913   C     0.50001   0.83339   0.97810   0.00000  Uiso   1.00
C914   C     0.35370   0.79110   0.83697   0.00000  Uiso   1.00
C915   C     0.64630   0.87557   0.82970   0.00000  Uiso   1.00
C916   C     0.64504   0.79216   0.82298   0.00000  Uiso   1.00
Cu917  Cu    0.50000   0.88022   0.83333   0.00000  Uiso   1.00
Cu918  Cu    0.50000   0.78645   0.83333   0.00000  Uiso   1.00
I919   I     0.37724   0.72823   0.86741   0.00000  Uiso   1.00
I920   I     0.62276   0.93844   0.79926   0.00000  Uiso   1.00
I921   I     0.61856   0.73389   0.78396   0.00000  Uiso   1.00
I922   I     0.38144   0.93277   0.88271   0.00000  Uiso   1.00
I923   I     0.43324   0.72512   0.74691   0.00000  Uiso   1.00
I924   I     0.56676   0.94155   0.91975   0.00000  Uiso   1.00
I925   I     0.56833   0.72678   0.91799   0.00000  Uiso   1.00
I926   I     0.43167   0.93988   0.74868   0.00000  Uiso   1.00
N927   N     0.50000   0.95069   0.83333   0.00000  Uiso   1.00
N928   N     0.50000   0.71598   0.83333   0.00000  Uiso   1.00
O929   O     0.43988   0.87291   0.83333   0.00000  Uiso   1.00
O930   O     0.56012   0.79375   0.83334   0.00000  Uiso   1.00
O931   O     0.56012   0.87291   0.83334   0.00000  Uiso   1.00
O932   O     0.43988   0.79375   0.83333   0.00000  Uiso   1.00
O933   O     0.50000   0.87292   0.76280   0.00000  Uiso   1.00
O934   O     0.50000   0.79375   0.90387   0.00000  Uiso   1.00
O935   O     0.50000   0.87292   0.90387   0.00000  Uiso   1.00
O936   O     0.50000   0.79375   0.76280   0.00000  Uiso   1.00
C937   C     0.75446   0.83311   0.83790   0.00000  Uiso   1.00
C938   C     0.68829   0.87451   0.84369   0.00000  Uiso   1.00
C939   C     0.95709   0.83401   0.82452   0.00000  Uiso   1.00
C940   C     0.70958   0.83265   0.84215   0.00000  Uiso   1.00
C941   C     0.80758   0.69101   0.80044   0.00000  Uiso   1.00
C942   C     0.85908   0.97566   0.86622   0.00000  Uiso   1.00
C943   C     0.85924   0.69166   0.86605   0.00000  Uiso   1.00
C944   C     0.80743   0.97501   0.80062   0.00000  Uiso   1.00
C945   C     0.91221   0.83356   0.82877   0.00000  Uiso   1.00
C946   C     0.83329   0.83330   0.74037   0.00000  Uiso   1.00
C947   C     0.83338   0.83337   0.92629   0.00000  Uiso   1.00
C948   C     0.83333   0.83328   0.68856   0.00000  Uiso   1.00
C949   C     0.83334   0.83339   0.97810   0.00000  Uiso   1.00
C950   C     0.68703   0.79110   0.83697   0.00000  Uiso   1.00
C951   C     0.97964   0.87557   0.82970   0.00000  Uiso   1.00
C952   C     0.97838   0.79216   0.82298   0.00000  Uiso   1.00
Cu953  Cu    0.83333   0.88022   0.83333   0.00000  Uiso   1.00
Cu954  Cu    0.83333   0.78645   0.83333   0.00000  Uiso   1.00
I955   I     0.71057   0.72823   0.86741   0.00000  Uiso   1.00
I956   I     0.95609   0.93844   0.79926   0.00000  Uiso   1.00
I957   I     0.95189   0.73389   0.78396   0.00000  Uiso   1.00
I958   I     0.71477   0.93277   0.88271   0.00000  Uiso   1.00
I959   I     0.76657   0.72512   0.74691   0.00000  Uiso   1.00
I960   I     0.90010   0.94155   0.91975   0.00000  Uiso   1.00
I961   I     0.90166   0.72678   0.91799   0.00000  Uiso   1.00
I962   I     0.76500   0.93988   0.74868   0.00000  Uiso   1.00
N963   N     0.83333   0.95069   0.83333   0.00000  Uiso   1.00
N964   N     0.83333   0.71598   0.83333   0.00000  Uiso   1.00
O965   O     0.77321   0.87291   0.83333   0.00000  Uiso   1.00
O966   O     0.89345   0.79375   0.83334   0.00000  Uiso   1.00
O967   O     0.89345   0.87291   0.83334   0.00000  Uiso   1.00
O968   O     0.77321   0.79375   0.83333   0.00000  Uiso   1.00
O969   O     0.83333   0.87292   0.76280   0.00000  Uiso   1.00
O970   O     0.83333   0.79375   0.90387   0.00000  Uiso   1.00
O971   O     0.83333   0.87292   0.90387   0.00000  Uiso   1.00
O972   O     0.83333   0.79375   0.76280   0.00000  Uiso   1.00
loop_
_geom_bond_atom_site_label_1
_geom_bond_atom_site_label_2
_geom_bond_distance
_geom_bond_site_symmetry_2
_ccdc_geom_bond_type
C1     C4      1.470   .     S
C1     O29     1.312   .     A
C1     O32     1.309   .     A
C2     I22     2.137   .     S
C2     C4      1.405   .     A
C2     C87     1.391   1_455 S
C3     C9      1.470   .     S
C3     C15     1.408   .     A
C3     C16     1.405   .     A
C4     C14     1.408   .     A
C5     N28     1.381   .     A
C5     I23     2.153   .     S
C5     C224    1.433   1_545 S
C6     N27     1.381   .     A
C6     I24     2.153   .     S
C6     C115    1.433   .     S
C7     I25     2.152   .     S
C7     N28     1.381   .     A
C7     C222    1.433   1_545 S
C8     I26     2.152   .     S
C8     N27     1.381   .     A
C8     C113    1.433   .     S
C9     O30     1.312   .     A
C9     O31     1.309   .     A
C10    C12     1.407   .     S
C10    O33     1.300   .     A
C10    O36     1.301   .     A
C11    C13     1.407   .     S
C11    O35     1.301   .     A
C11    O34     1.300   .     A
C12    C661    1.189   1_554 S
C13    C336    1.189   .     S
C14    I19     2.132   .     S
C14    C88     1.391   1_455 S
C15    I20     2.132   .     S
C15    C38     1.391   .     S
C16    I21     2.137   .     S
C16    C50     1.391   .     S
Cu17   Cu18    2.723   .     S
Cu17   O29     1.962   .     S
Cu17   O33     1.926   .     S
Cu17   O31     1.966   .     S
Cu17   N27     2.046   .     S
Cu17   O35     1.927   .     S
Cu18   O30     1.962   .     S
Cu18   N28     2.046   .     S
Cu18   O34     1.926   .     S
Cu18   O32     1.966   .     S
Cu18   O36     1.927   .     S
C37    C40     1.470   .     S
C37    O65     1.312   .     A
C37    O68     1.309   .     A
C38    I58     2.137   .     S
C38    C40     1.405   .     A
C39    C45     1.470   .     S
C39    C51     1.408   .     A
C39    C52     1.405   .     A
C40    C50     1.408   .     A
C41    N64     1.381   .     A
C41    I59     2.153   .     S
C41    C260    1.433   1_545 S
C42    N63     1.381   .     A
C42    I60     2.153   .     S
C42    C151    1.433   .     S
C43    I61     2.152   .     S
C43    N64     1.381   .     A
C43    C258    1.433   1_545 S
C44    I62     2.152   .     S
C44    N63     1.381   .     A
C44    C149    1.433   .     S
C45    O66     1.312   .     A
C45    O67     1.309   .     A
C46    C48     1.407   .     S
C46    O69     1.300   .     A
C46    O72     1.301   .     A
C47    C49     1.407   .     S
C47    O71     1.301   .     A
C47    O70     1.300   .     A
C48    C697    1.189   1_554 S
C49    C372    1.189   .     S
C50    I55     2.132   .     S
C51    I56     2.132   .     S
C51    C74     1.391   .     S
C52    I57     2.137   .     S
C52    C86     1.391   .     S
Cu53   Cu54    2.723   .     S
Cu53   O65     1.962   .     S
Cu53   O69     1.926   .     S
Cu53   O67     1.966   .     S
Cu53   N63     2.046   .     S
Cu53   O71     1.927   .     S
Cu54   O66     1.962   .     S
Cu54   N64     2.046   .     S
Cu54   O70     1.926   .     S
Cu54   O68     1.966   .     S
Cu54   O72     1.927   .     S
C73    C76     1.470   .     S
C73    O101    1.312   .     A
C73    O104    1.309   .     A
C74    I94     2.137   .     S
C74    C76     1.405   .     A
C75    C81     1.470   .     S
C75    C87     1.408   .     A
C75    C88     1.405   .     A
C76    C86     1.408   .     A
C77    N100    1.381   .     A
C77    I95     2.153   .     S
C77    C296    1.433   1_545 S
C78    N99     1.381   .     A
C78    I96     2.153   .     S
C78    C187    1.433   .     S
C79    I97     2.152   .     S
C79    N100    1.381   .     A
C79    C294    1.433   1_545 S
C80    I98     2.152   .     S
C80    N99     1.381   .     A
C80    C185    1.433   .     S
C81    O102    1.312   .     A
C81    O103    1.309   .     A
C82    C84     1.407   .     S
C82    O105    1.300   .     A
C82    O108    1.301   .     A
C83    C85     1.407   .     S
C83    O107    1.301   .     A
C83    O106    1.300   .     A
C84    C733    1.189   1_554 S
C85    C408    1.189   .     S
C86    I91     2.132   .     S
C87    I92     2.132   .     S
C87    C2      1.391   1_655 S
C88    I93     2.137   .     S
C88    C14     1.391   1_655 S
Cu89   Cu90    2.723   .     S
Cu89   O101    1.962   .     S
Cu89   O105    1.926   .     S
Cu89   O103    1.966   .     S
Cu89   N99     2.046   .     S
Cu89   O107    1.927   .     S
Cu90   O102    1.962   .     S
Cu90   N100    2.046   .     S
Cu90   O106    1.926   .     S
Cu90   O104    1.966   .     S
Cu90   O108    1.927   .     S
C109   C112    1.470   .     S
C109   O137    1.312   .     A
C109   O140    1.309   .     A
C110   I130    2.137   .     S
C110   C112    1.405   .     A
C110   C195    1.391   1_455 S
C111   C117    1.470   .     S
C111   C123    1.408   .     A
C111   C124    1.405   .     A
C112   C122    1.408   .     A
C113   N136    1.381   .     A
C113   I131    2.153   .     S
C114   N135    1.381   .     A
C114   I132    2.153   .     S
C114   C223    1.433   .     S
C115   I133    2.152   .     S
C115   N136    1.381   .     A
C116   I134    2.152   .     S
C116   N135    1.381   .     A
C116   C221    1.433   .     S
C117   O138    1.312   .     A
C117   O139    1.309   .     A
C118   C120    1.407   .     S
C118   O141    1.300   .     A
C118   O144    1.301   .     A
C119   C121    1.407   .     S
C119   O143    1.301   .     A
C119   O142    1.300   .     A
C120   C769    1.189   1_554 S
C121   C444    1.189   .     S
C122   I127    2.132   .     S
C122   C196    1.391   1_455 S
C123   I128    2.132   .     S
C123   C146    1.391   .     S
C124   I129    2.137   .     S
C124   C158    1.391   .     S
Cu125  Cu126   2.723   .     S
Cu125  O137    1.962   .     S
Cu125  O141    1.926   .     S
Cu125  O139    1.966   .     S
Cu125  N135    2.046   .     S
Cu125  O143    1.927   .     S
Cu126  O138    1.962   .     S
Cu126  N136    2.046   .     S
Cu126  O142    1.926   .     S
Cu126  O140    1.966   .     S
Cu126  O144    1.927   .     S
C145   C148    1.470   .     S
C145   O173    1.312   .     A
C145   O176    1.309   .     A
C146   I166    2.137   .     S
C146   C148    1.405   .     A
C147   C153    1.470   .     S
C147   C159    1.408   .     A
C147   C160    1.405   .     A
C148   C158    1.408   .     A
C149   N172    1.381   .     A
C149   I167    2.153   .     S
C150   N171    1.381   .     A
C150   I168    2.153   .     S
C150   C259    1.433   .     S
C151   I169    2.152   .     S
C151   N172    1.381   .     A
C152   I170    2.152   .     S
C152   N171    1.381   .     A
C152   C257    1.433   .     S
C153   O174    1.312   .     A
C153   O175    1.309   .     A
C154   C156    1.407   .     S
C154   O177    1.300   .     A
C154   O180    1.301   .     A
C155   C157    1.407   .     S
C155   O179    1.301   .     A
C155   O178    1.300   .     A
C156   C805    1.189   1_554 S
C157   C480    1.189   .     S
C158   I163    2.132   .     S
C159   I164    2.132   .     S
C159   C182    1.391   .     S
C160   I165    2.137   .     S
C160   C194    1.391   .     S
Cu161  Cu162   2.723   .     S
Cu161  O173    1.962   .     S
Cu161  O177    1.926   .     S
Cu161  O175    1.966   .     S
Cu161  N171    2.046   .     S
Cu161  O179    1.927   .     S
Cu162  O174    1.962   .     S
Cu162  N172    2.046   .     S
Cu162  O178    1.926   .     S
Cu162  O176    1.966   .     S
Cu162  O180    1.927   .     S
C181   C184    1.470   .     S
C181   O209    1.312   .     A
C181   O212    1.309   .     A
C182   I202    2.137   .     S
C182   C184    1.405   .     A
C183   C189    1.470   .     S
C183   C195    1.408   .     A
C183   C196    1.405   .     A
C184   C194    1.408   .     A
C185   N208    1.381   .     A
C185   I203    2.153   .     S
C186   N207    1.381   .     A
C186   I204    2.153   .     S
C186   C295    1.433   .     S
C187   I205    2.152   .     S
C187   N208    1.381   .     A
C188   I206    2.152   .     S
C188   N207    1.381   .     A
C188   C293    1.433   .     S
C189   O210    1.312   .     A
C189   O211    1.309   .     A
C190   C192    1.407   .     S
C190   O213    1.300   .     A
C190   O216    1.301   .     A
C191   C193    1.407   .     S
C191   O215    1.301   .     A
C191   O214    1.300   .     A
C192   C841    1.189   1_554 S
C193   C516    1.189   .     S
C194   I199    2.132   .     S
C195   I200    2.132   .     S
C195   C110    1.391   1_655 S
C196   I201    2.137   .     S
C196   C122    1.391   1_655 S
Cu197  Cu198   2.723   .     S
Cu197  O209    1.962   .     S
Cu197  O213    1.926   .     S
Cu197  O211    1.966   .     S
Cu197  N207    2.046   .     S
Cu197  O215    1.927   .     S
Cu198  O210    1.962   .     S
Cu198  N208    2.046   .     S
Cu198  O214    1.926   .     S
Cu198  O212    1.966   .     S
Cu198  O216    1.927   .     S
C217   C220    1.470   .     S
C217   O245    1.312   .     A
C217   O248    1.309   .     A
C218   I238    2.137   .     S
C218   C220    1.405   .     A
C218   C303    1.391   1_455 S
C219   C225    1.470   .     S
C219   C231    1.408   .     A
C219   C232    1.405   .     A
C220   C230    1.408   .     A
C221   N244    1.381   .     A
C221   I239    2.153   .     S
C222   N243    1.381   .     A
C222   I240    2.153   .     S
C222   C7      1.433   1_565 S
C223   I241    2.152   .     S
C223   N244    1.381   .     A
C224   I242    2.152   .     S
C224   N243    1.381   .     A
C224   C5      1.433   1_565 S
C225   O246    1.312   .     A
C225   O247    1.309   .     A
C226   C228    1.407   .     S
C226   O249    1.300   .     A
C226   O252    1.301   .     A
C227   C229    1.407   .     S
C227   O251    1.301   .     A
C227   O250    1.300   .     A
C228   C877    1.189   1_554 S
C229   C552    1.189   .     S
C230   I235    2.132   .     S
C230   C304    1.391   1_455 S
C231   I236    2.132   .     S
C231   C254    1.391   .     S
C232   I237    2.137   .     S
C232   C266    1.391   .     S
Cu233  Cu234   2.723   .     S
Cu233  O245    1.962   .     S
Cu233  O249    1.926   .     S
Cu233  O247    1.966   .     S
Cu233  N243    2.046   .     S
Cu233  O251    1.927   .     S
Cu234  O246    1.962   .     S
Cu234  N244    2.046   .     S
Cu234  O250    1.926   .     S
Cu234  O248    1.966   .     S
Cu234  O252    1.927   .     S
C253   C256    1.470   .     S
C253   O281    1.312   .     A
C253   O284    1.309   .     A
C254   I274    2.137   .     S
C254   C256    1.405   .     A
C255   C261    1.470   .     S
C255   C267    1.408   .     A
C255   C268    1.405   .     A
C256   C266    1.408   .     A
C257   N280    1.381   .     A
C257   I275    2.153   .     S
C258   N279    1.381   .     A
C258   I276    2.153   .     S
C258   C43     1.433   1_565 S
C259   I277    2.152   .     S
C259   N280    1.381   .     A
C260   I278    2.152   .     S
C260   N279    1.381   .     A
C260   C41     1.433   1_565 S
C261   O282    1.312   .     A
C261   O283    1.309   .     A
C262   C264    1.407   .     S
C262   O285    1.300   .     A
C262   O288    1.301   .     A
C263   C265    1.407   .     S
C263   O287    1.301   .     A
C263   O286    1.300   .     A
C264   C913    1.189   1_554 S
C265   C588    1.189   .     S
C266   I271    2.132   .     S
C267   I272    2.132   .     S
C267   C290    1.391   .     S
C268   I273    2.137   .     S
C268   C302    1.391   .     S
Cu269  Cu270   2.723   .     S
Cu269  O281    1.962   .     S
Cu269  O285    1.926   .     S
Cu269  O283    1.966   .     S
Cu269  N279    2.046   .     S
Cu269  O287    1.927   .     S
Cu270  O282    1.962   .     S
Cu270  N280    2.046   .     S
Cu270  O286    1.926   .     S
Cu270  O284    1.966   .     S
Cu270  O288    1.927   .     S
C289   C292    1.470   .     S
C289   O317    1.312   .     A
C289   O320    1.309   .     A
C290   I310    2.137   .     S
C290   C292    1.405   .     A
C291   C297    1.470   .     S
C291   C303    1.408   .     A
C291   C304    1.405   .     A
C292   C302    1.408   .     A
C293   N316    1.381   .     A
C293   I311    2.153   .     S
C294   N315    1.381   .     A
C294   I312    2.153   .     S
C294   C79     1.433   1_565 S
C295   I313    2.152   .     S
C295   N316    1.381   .     A
C296   I314    2.152   .     S
C296   N315    1.381   .     A
C296   C77     1.433   1_565 S
C297   O318    1.312   .     A
C297   O319    1.309   .     A
C298   C300    1.407   .     S
C298   O321    1.300   .     A
C298   O324    1.301   .     A
C299   C301    1.407   .     S
C299   O323    1.301   .     A
C299   O322    1.300   .     A
C300   C949    1.189   1_554 S
C301   C624    1.189   .     S
C302   I307    2.132   .     S
C303   I308    2.132   .     S
C303   C218    1.391   1_655 S
C304   I309    2.137   .     S
C304   C230    1.391   1_655 S
Cu305  Cu306   2.723   .     S
Cu305  O317    1.962   .     S
Cu305  O321    1.926   .     S
Cu305  O319    1.966   .     S
Cu305  N315    2.046   .     S
Cu305  O323    1.927   .     S
Cu306  O318    1.962   .     S
Cu306  N316    2.046   .     S
Cu306  O322    1.926   .     S
Cu306  O320    1.966   .     S
Cu306  O324    1.927   .     S
C325   C328    1.470   .     S
C325   O353    1.312   .     A
C325   O356    1.309   .     A
C326   I346    2.137   .     S
C326   C328    1.405   .     A
C326   C411    1.391   1_455 S
C327   C333    1.470   .     S
C327   C339    1.408   .     A
C327   C340    1.405   .     A
C328   C338    1.408   .     A
C329   N352    1.381   .     A
C329   I347    2.153   .     S
C329   C548    1.433   1_545 S
C330   N351    1.381   .     A
C330   I348    2.153   .     S
C330   C439    1.433   .     S
C331   I349    2.152   .     S
C331   N352    1.381   .     A
C331   C546    1.433   1_545 S
C332   I350    2.152   .     S
C332   N351    1.381   .     A
C332   C437    1.433   .     S
C333   O354    1.312   .     A
C333   O355    1.309   .     A
C334   C336    1.407   .     S
C334   O357    1.300   .     A
C334   O360    1.301   .     A
C335   C337    1.407   .     S
C335   O359    1.301   .     A
C335   O358    1.300   .     A
C337   C660    1.189   .     S
C338   I343    2.132   .     S
C338   C412    1.391   1_455 S
C339   I344    2.132   .     S
C339   C362    1.391   .     S
C340   I345    2.137   .     S
C340   C374    1.391   .     S
Cu341  Cu342   2.723   .     S
Cu341  O353    1.962   .     S
Cu341  O357    1.926   .     S
Cu341  O355    1.966   .     S
Cu341  N351    2.046   .     S
Cu341  O359    1.927   .     S
Cu342  O354    1.962   .     S
Cu342  N352    2.046   .     S
Cu342  O358    1.926   .     S
Cu342  O356    1.966   .     S
Cu342  O360    1.927   .     S
C361   C364    1.470   .     S
C361   O389    1.312   .     A
C361   O392    1.309   .     A
C362   I382    2.137   .     S
C362   C364    1.405   .     A
C363   C369    1.470   .     S
C363   C375    1.408   .     A
C363   C376    1.405   .     A
C364   C374    1.408   .     A
C365   N388    1.381   .     A
C365   I383    2.153   .     S
C365   C584    1.433   1_545 S
C366   N387    1.381   .     A
C366   I384    2.153   .     S
C366   C475    1.433   .     S
C367   I385    2.152   .     S
C367   N388    1.381   .     A
C367   C582    1.433   1_545 S
C368   I386    2.152   .     S
C368   N387    1.381   .     A
C368   C473    1.433   .     S
C369   O390    1.312   .     A
C369   O391    1.309   .     A
C370   C372    1.407   .     S
C370   O393    1.300   .     A
C370   O396    1.301   .     A
C371   C373    1.407   .     S
C371   O395    1.301   .     A
C371   O394    1.300   .     A
C373   C696    1.189   .     S
C374   I379    2.132   .     S
C375   I380    2.132   .     S
C375   C398    1.391   .     S
C376   I381    2.137   .     S
C376   C410    1.391   .     S
Cu377  Cu378   2.723   .     S
Cu377  O389    1.962   .     S
Cu377  O393    1.926   .     S
Cu377  O391    1.966   .     S
Cu377  N387    2.046   .     S
Cu377  O395    1.927   .     S
Cu378  O390    1.962   .     S
Cu378  N388    2.046   .     S
Cu378  O394    1.926   .     S
Cu378  O392    1.966   .     S
Cu378  O396    1.927   .     S
C397   C400    1.470   .     S
C397   O425    1.312   .     A
C397   O428    1.309   .     A
C398   I418    2.137   .     S
C398   C400    1.405   .     A
C399   C405    1.470   .     S
C399   C411    1.408   .     A
C399   C412    1.405   .     A
C400   C410    1.408   .     A
C401   N424    1.381   .     A
C401   I419    2.153   .     S
C401   C620    1.433   1_545 S
C402   N423    1.381   .     A
C402   I420    2.153   .     S
C402   C511    1.433   .     S
C403   I421    2.152   .     S
C403   N424    1.381   .     A
C403   C618    1.433   1_545 S
C404   I422    2.152   .     S
C404   N423    1.381   .     A
C404   C509    1.433   .     S
C405   O426    1.312   .     A
C405   O427    1.309   .     A
C406   C408    1.407   .     S
C406   O429    1.300   .     A
C406   O432    1.301   .     A
C407   C409    1.407   .     S
C407   O431    1.301   .     A
C407   O430    1.300   .     A
C409   C732    1.189   .     S
C410   I415    2.132   .     S
C411   I416    2.132   .     S
C411   C326    1.391   1_655 S
C412   I417    2.137   .     S
C412   C338    1.391   1_655 S
Cu413  Cu414   2.723   .     S
Cu413  O425    1.962   .     S
Cu413  O429    1.926   .     S
Cu413  O427    1.966   .     S
Cu413  N423    2.046   .     S
Cu413  O431    1.927   .     S
Cu414  O426    1.962   .     S
Cu414  N424    2.046   .     S
Cu414  O430    1.926   .     S
Cu414  O428    1.966   .     S
Cu414  O432    1.927   .     S
C433   C436    1.470   .     S
C433   O461    1.312   .     A
C433   O464    1.309   .     A
C434   I454    2.137   .     S
C434   C436    1.405   .     A
C434   C519    1.391   1_455 S
C435   C441    1.470   .     S
C435   C447    1.408   .     A
C435   C448    1.405   .     A
C436   C446    1.408   .     A
C437   N460    1.381   .     A
C437   I455    2.153   .     S
C438   N459    1.381   .     A
C438   I456    2.153   .     S
C438   C547    1.433   .     S
C439   I457    2.152   .     S
C439   N460    1.381   .     A
C440   I458    2.152   .     S
C440   N459    1.381   .     A
C440   C545    1.433   .     S
C441   O462    1.312   .     A
C441   O463    1.309   .     A
C442   C444    1.407   .     S
C442   O465    1.300   .     A
C442   O468    1.301   .     A
C443   C445    1.407   .     S
C443   O467    1.301   .     A
C443   O466    1.300   .     A
C445   C768    1.189   .     S
C446   I451    2.132   .     S
C446   C520    1.391   1_455 S
C447   I452    2.132   .     S
C447   C470    1.391   .     S
C448   I453    2.137   .     S
C448   C482    1.391   .     S
Cu449  Cu450   2.723   .     S
Cu449  O461    1.962   .     S
Cu449  O465    1.926   .     S
Cu449  O463    1.966   .     S
Cu449  N459    2.046   .     S
Cu449  O467    1.927   .     S
Cu450  O462    1.962   .     S
Cu450  N460    2.046   .     S
Cu450  O466    1.926   .     S
Cu450  O464    1.966   .     S
Cu450  O468    1.927   .     S
C469   C472    1.470   .     S
C469   O497    1.312   .     A
C469   O500    1.309   .     A
C470   I490    2.137   .     S
C470   C472    1.405   .     A
C471   C477    1.470   .     S
C471   C483    1.408   .     A
C471   C484    1.405   .     A
C472   C482    1.408   .     A
C473   N496    1.381   .     A
C473   I491    2.153   .     S
C474   N495    1.381   .     A
C474   I492    2.153   .     S
C474   C583    1.433   .     S
C475   I493    2.152   .     S
C475   N496    1.381   .     A
C476   I494    2.152   .     S
C476   N495    1.381   .     A
C476   C581    1.433   .     S
C477   O498    1.312   .     A
C477   O499    1.309   .     A
C478   C480    1.407   .     S
C478   O501    1.300   .     A
C478   O504    1.301   .     A
C479   C481    1.407   .     S
C479   O503    1.301   .     A
C479   O502    1.300   .     A
C481   C804    1.189   .     S
C482   I487    2.132   .     S
C483   I488    2.132   .     S
C483   C506    1.391   .     S
C484   I489    2.137   .     S
C484   C518    1.391   .     S
Cu485  Cu486   2.723   .     S
Cu485  O497    1.962   .     S
Cu485  O501    1.926   .     S
Cu485  O499    1.966   .     S
Cu485  N495    2.046   .     S
Cu485  O503    1.927   .     S
Cu486  O498    1.962   .     S
Cu486  N496    2.046   .     S
Cu486  O502    1.926   .     S
Cu486  O500    1.966   .     S
Cu486  O504    1.927   .     S
C505   C508    1.470   .     S
C505   O533    1.312   .     A
C505   O536    1.309   .     A
C506   I526    2.137   .     S
C506   C508    1.405   .     A
C507   C513    1.470   .     S
C507   C519    1.408   .     A
C507   C520    1.405   .     A
C508   C518    1.408   .     A
C509   N532    1.381   .     A
C509   I527    2.153   .     S
C510   N531    1.381   .     A
C510   I528    2.153   .     S
C510   C619    1.433   .     S
C511   I529    2.152   .     S
C511   N532    1.381   .     A
C512   I530    2.152   .     S
C512   N531    1.381   .     A
C512   C617    1.433   .     S
C513   O534    1.312   .     A
C513   O535    1.309   .     A
C514   C516    1.407   .     S
C514   O537    1.300   .     A
C514   O540    1.301   .     A
C515   C517    1.407   .     S
C515   O539    1.301   .     A
C515   O538    1.300   .     A
C517   C840    1.189   .     S
C518   I523    2.132   .     S
C519   I524    2.132   .     S
C519   C434    1.391   1_655 S
C520   I525    2.137   .     S
C520   C446    1.391   1_655 S
Cu521  Cu522   2.723   .     S
Cu521  O533    1.962   .     S
Cu521  O537    1.926   .     S
Cu521  O535    1.966   .     S
Cu521  N531    2.046   .     S
Cu521  O539    1.927   .     S
Cu522  O534    1.962   .     S
Cu522  N532    2.046   .     S
Cu522  O538    1.926   .     S
Cu522  O536    1.966   .     S
Cu522  O540    1.927   .     S
C541   C544    1.470   .     S
C541   O569    1.312   .     A
C541   O572    1.309   .     A
C542   I562    2.137   .     S
C542   C544    1.405   .     A
C542   C627    1.391   1_455 S
C543   C549    1.470   .     S
C543   C555    1.408   .     A
C543   C556    1.405   .     A
C544   C554    1.408   .     A
C545   N568    1.381   .     A
C545   I563    2.153   .     S
C546   N567    1.381   .     A
C546   I564    2.153   .     S
C546   C331    1.433   1_565 S
C547   I565    2.152   .     S
C547   N568    1.381   .     A
C548   I566    2.152   .     S
C548   N567    1.381   .     A
C548   C329    1.433   1_565 S
C549   O570    1.312   .     A
C549   O571    1.309   .     A
C550   C552    1.407   .     S
C550   O573    1.300   .     A
C550   O576    1.301   .     A
C551   C553    1.407   .     S
C551   O575    1.301   .     A
C551   O574    1.300   .     A
C553   C876    1.189   .     S
C554   I559    2.132   .     S
C554   C628    1.391   1_455 S
C555   I560    2.132   .     S
C555   C578    1.391   .     S
C556   I561    2.137   .     S
C556   C590    1.391   .     S
Cu557  Cu558   2.723   .     S
Cu557  O569    1.962   .     S
Cu557  O573    1.926   .     S
Cu557  O571    1.966   .     S
Cu557  N567    2.046   .     S
Cu557  O575    1.927   .     S
Cu558  O570    1.962   .     S
Cu558  N568    2.046   .     S
Cu558  O574    1.926   .     S
Cu558  O572    1.966   .     S
Cu558  O576    1.927   .     S
C577   C580    1.470   .     S
C577   O605    1.312   .     A
C577   O608    1.309   .     A
C578   I598    2.137   .     S
C578   C580    1.405   .     A
C579   C585    1.470   .     S
C579   C591    1.408   .     A
C579   C592    1.405   .     A
C580   C590    1.408   .     A
C581   N604    1.381   .     A
C581   I599    2.153   .     S
C582   N603    1.381   .     A
C582   I600    2.153   .     S
C582   C367    1.433   1_565 S
C583   I601    2.152   .     S
C583   N604    1.381   .     A
C584   I602    2.152   .     S
C584   N603    1.381   .     A
C584   C365    1.433   1_565 S
C585   O606    1.312   .     A
C585   O607    1.309   .     A
C586   C588    1.407   .     S
C586   O609    1.300   .     A
C586   O612    1.301   .     A
C587   C589    1.407   .     S
C587   O611    1.301   .     A
C587   O610    1.300   .     A
C589   C912    1.189   .     S
C590   I595    2.132   .     S
C591   I596    2.132   .     S
C591   C614    1.391   .     S
C592   I597    2.137   .     S
C592   C626    1.391   .     S
Cu593  Cu594   2.723   .     S
Cu593  O605    1.962   .     S
Cu593  O609    1.926   .     S
Cu593  O607    1.966   .     S
Cu593  N603    2.046   .     S
Cu593  O611    1.927   .     S
Cu594  O606    1.962   .     S
Cu594  N604    2.046   .     S
Cu594  O610    1.926   .     S
Cu594  O608    1.966   .     S
Cu594  O612    1.927   .     S
C613   C616    1.470   .     S
C613   O641    1.312   .     A
C613   O644    1.309   .     A
C614   I634    2.137   .     S
C614   C616    1.405   .     A
C615   C621    1.470   .     S
C615   C627    1.408   .     A
C615   C628    1.405   .     A
C616   C626    1.408   .     A
C617   N640    1.381   .     A
C617   I635    2.153   .     S
C618   N639    1.381   .     A
C618   I636    2.153   .     S
C618   C403    1.433   1_565 S
C619   I637    2.152   .     S
C619   N640    1.381   .     A
C620   I638    2.152   .     S
C620   N639    1.381   .     A
C620   C401    1.433   1_565 S
C621   O642    1.312   .     A
C621   O643    1.309   .     A
C622   C624    1.407   .     S
C622   O645    1.300   .     A
C622   O648    1.301   .     A
C623   C625    1.407   .     S
C623   O647    1.301   .     A
C623   O646    1.300   .     A
C625   C948    1.189   .     S
C626   I631    2.132   .     S
C627   I632    2.132   .     S
C627   C542    1.391   1_655 S
C628   I633    2.137   .     S
C628   C554    1.391   1_655 S
Cu629  Cu630   2.723   .     S
Cu629  O641    1.962   .     S
Cu629  O645    1.926   .     S
Cu629  O643    1.966   .     S
Cu629  N639    2.046   .     S
Cu629  O647    1.927   .     S
Cu630  O642    1.962   .     S
Cu630  N640    2.046   .     S
Cu630  O646    1.926   .     S
Cu630  O644    1.966   .     S
Cu630  O648    1.927   .     S
C649   C652    1.470   .     S
C649   O677    1.312   .     A
C649   O680    1.309   .     A
C650   I670    2.137   .     S
C650   C652    1.405   .     A
C650   C735    1.391   1_455 S
C651   C657    1.470   .     S
C651   C663    1.408   .     A
C651   C664    1.405   .     A
C652   C662    1.408   .     A
C653   N676    1.381   .     A
C653   I671    2.153   .     S
C653   C872    1.433   1_545 S
C654   N675    1.381   .     A
C654   I672    2.153   .     S
C654   C763    1.433   .     S
C655   I673    2.152   .     S
C655   N676    1.381   .     A
C655   C870    1.433   1_545 S
C656   I674    2.152   .     S
C656   N675    1.381   .     A
C656   C761    1.433   .     S
C657   O678    1.312   .     A
C657   O679    1.309   .     A
C658   C660    1.407   .     S
C658   O681    1.300   .     A
C658   O684    1.301   .     A
C659   C661    1.407   .     S
C659   O683    1.301   .     A
C659   O682    1.300   .     A
C661   C12     1.189   1_556 S
C662   I667    2.132   .     S
C662   C736    1.391   1_455 S
C663   I668    2.132   .     S
C663   C686    1.391   .     S
C664   I669    2.137   .     S
C664   C698    1.391   .     S
Cu665  Cu666   2.723   .     S
Cu665  O677    1.962   .     S
Cu665  O681    1.926   .     S
Cu665  O679    1.966   .     S
Cu665  N675    2.046   .     S
Cu665  O683    1.927   .     S
Cu666  O678    1.962   .     S
Cu666  N676    2.046   .     S
Cu666  O682    1.926   .     S
Cu666  O680    1.966   .     S
Cu666  O684    1.927   .     S
C685   C688    1.470   .     S
C685   O713    1.312   .     A
C685   O716    1.309   .     A
C686   I706    2.137   .     S
C686   C688    1.405   .     A
C687   C693    1.470   .     S
C687   C699    1.408   .     A
C687   C700    1.405   .     A
C688   C698    1.408   .     A
C689   N712    1.381   .     A
C689   I707    2.153   .     S
C689   C908    1.433   1_545 S
C690   N711    1.381   .     A
C690   I708    2.153   .     S
C690   C799    1.433   .     S
C691   I709    2.152   .     S
C691   N712    1.381   .     A
C691   C906    1.433   1_545 S
C692   I710    2.152   .     S
C692   N711    1.381   .     A
C692   C797    1.433   .     S
C693   O714    1.312   .     A
C693   O715    1.309   .     A
C694   C696    1.407   .     S
C694   O717    1.300   .     A
C694   O720    1.301   .     A
C695   C697    1.407   .     S
C695   O719    1.301   .     A
C695   O718    1.300   .     A
C697   C48     1.189   1_556 S
C698   I703    2.132   .     S
C699   I704    2.132   .     S
C699   C722    1.391   .     S
C700   I705    2.137   .     S
C700   C734    1.391   .     S
Cu701  Cu702   2.723   .     S
Cu701  O713    1.962   .     S
Cu701  O717    1.926   .     S
Cu701  O715    1.966   .     S
Cu701  N711    2.046   .     S
Cu701  O719    1.927   .     S
Cu702  O714    1.962   .     S
Cu702  N712    2.046   .     S
Cu702  O718    1.926   .     S
Cu702  O716    1.966   .     S
Cu702  O720    1.927   .     S
C721   C724    1.470   .     S
C721   O749    1.312   .     A
C721   O752    1.309   .     A
C722   I742    2.137   .     S
C722   C724    1.405   .     A
C723   C729    1.470   .     S
C723   C735    1.408   .     A
C723   C736    1.405   .     A
C724   C734    1.408   .     A
C725   N748    1.381   .     A
C725   I743    2.153   .     S
C725   C944    1.433   1_545 S
C726   N747    1.381   .     A
C726   I744    2.153   .     S
C726   C835    1.433   .     S
C727   I745    2.152   .     S
C727   N748    1.381   .     A
C727   C942    1.433   1_545 S
C728   I746    2.152   .     S
C728   N747    1.381   .     A
C728   C833    1.433   .     S
C729   O750    1.312   .     A
C729   O751    1.309   .     A
C730   C732    1.407   .     S
C730   O753    1.300   .     A
C730   O756    1.301   .     A
C731   C733    1.407   .     S
C731   O755    1.301   .     A
C731   O754    1.300   .     A
C733   C84     1.189   1_556 S
C734   I739    2.132   .     S
C735   I740    2.132   .     S
C735   C650    1.391   1_655 S
C736   I741    2.137   .     S
C736   C662    1.391   1_655 S
Cu737  Cu738   2.723   .     S
Cu737  O749    1.962   .     S
Cu737  O753    1.926   .     S
Cu737  O751    1.966   .     S
Cu737  N747    2.046   .     S
Cu737  O755    1.927   .     S
Cu738  O750    1.962   .     S
Cu738  N748    2.046   .     S
Cu738  O754    1.926   .     S
Cu738  O752    1.966   .     S
Cu738  O756    1.927   .     S
C757   C760    1.470   .     S
C757   O785    1.312   .     A
C757   O788    1.309   .     A
C758   I778    2.137   .     S
C758   C760    1.405   .     A
C758   C843    1.391   1_455 S
C759   C765    1.470   .     S
C759   C771    1.408   .     A
C759   C772    1.405   .     A
C760   C770    1.408   .     A
C761   N784    1.381   .     A
C761   I779    2.153   .     S
C762   N783    1.381   .     A
C762   I780    2.153   .     S
C762   C871    1.433   .     S
C763   I781    2.152   .     S
C763   N784    1.381   .     A
C764   I782    2.152   .     S
C764   N783    1.381   .     A
C764   C869    1.433   .     S
C765   O786    1.312   .     A
C765   O787    1.309   .     A
C766   C768    1.407   .     S
C766   O789    1.300   .     A
C766   O792    1.301   .     A
C767   C769    1.407   .     S
C767   O791    1.301   .     A
C767   O790    1.300   .     A
C769   C120    1.189   1_556 S
C770   I775    2.132   .     S
C770   C844    1.391   1_455 S
C771   I776    2.132   .     S
C771   C794    1.391   .     S
C772   I777    2.137   .     S
C772   C806    1.391   .     S
Cu773  Cu774   2.723   .     S
Cu773  O785    1.962   .     S
Cu773  O789    1.926   .     S
Cu773  O787    1.966   .     S
Cu773  N783    2.046   .     S
Cu773  O791    1.927   .     S
Cu774  O786    1.962   .     S
Cu774  N784    2.046   .     S
Cu774  O790    1.926   .     S
Cu774  O788    1.966   .     S
Cu774  O792    1.927   .     S
C793   C796    1.470   .     S
C793   O821    1.312   .     A
C793   O824    1.309   .     A
C794   I814    2.137   .     S
C794   C796    1.405   .     A
C795   C801    1.470   .     S
C795   C807    1.408   .     A
C795   C808    1.405   .     A
C796   C806    1.408   .     A
C797   N820    1.381   .     A
C797   I815    2.153   .     S
C798   N819    1.381   .     A
C798   I816    2.153   .     S
C798   C907    1.433   .     S
C799   I817    2.152   .     S
C799   N820    1.381   .     A
C800   I818    2.152   .     S
C800   N819    1.381   .     A
C800   C905    1.433   .     S
C801   O822    1.312   .     A
C801   O823    1.309   .     A
C802   C804    1.407   .     S
C802   O825    1.300   .     A
C802   O828    1.301   .     A
C803   C805    1.407   .     S
C803   O827    1.301   .     A
C803   O826    1.300   .     A
C805   C156    1.189   1_556 S
C806   I811    2.132   .     S
C807   I812    2.132   .     S
C807   C830    1.391   .     S
C808   I813    2.137   .     S
C808   C842    1.391   .     S
Cu809  Cu810   2.723   .     S
Cu809  O821    1.962   .     S
Cu809  O825    1.926   .     S
Cu809  O823    1.966   .     S
Cu809  N819    2.046   .     S
Cu809  O827    1.927   .     S
Cu810  O822    1.962   .     S
Cu810  N820    2.046   .     S
Cu810  O826    1.926   .     S
Cu810  O824    1.966   .     S
Cu810  O828    1.927   .     S
C829   C832    1.470   .     S
C829   O857    1.312   .     A
C829   O860    1.309   .     A
C830   I850    2.137   .     S
C830   C832    1.405   .     A
C831   C837    1.470   .     S
C831   C843    1.408   .     A
C831   C844    1.405   .     A
C832   C842    1.408   .     A
C833   N856    1.381   .     A
C833   I851    2.153   .     S
C834   N855    1.381   .     A
C834   I852    2.153   .     S
C834   C943    1.433   .     S
C835   I853    2.152   .     S
C835   N856    1.381   .     A
C836   I854    2.152   .     S
C836   N855    1.381   .     A
C836   C941    1.433   .     S
C837   O858    1.312   .     A
C837   O859    1.309   .     A
C838   C840    1.407   .     S
C838   O861    1.300   .     A
C838   O864    1.301   .     A
C839   C841    1.407   .     S
C839   O863    1.301   .     A
C839   O862    1.300   .     A
C841   C192    1.189   1_556 S
C842   I847    2.132   .     S
C843   I848    2.132   .     S
C843   C758    1.391   1_655 S
C844   I849    2.137   .     S
C844   C770    1.391   1_655 S
Cu845  Cu846   2.723   .     S
Cu845  O857    1.962   .     S
Cu845  O861    1.926   .     S
Cu845  O859    1.966   .     S
Cu845  N855    2.046   .     S
Cu845  O863    1.927   .     S
Cu846  O858    1.962   .     S
Cu846  N856    2.046   .     S
Cu846  O862    1.926   .     S
Cu846  O860    1.966   .     S
Cu846  O864    1.927   .     S
C865   C868    1.470   .     S
C865   O893    1.312   .     A
C865   O896    1.309   .     A
C866   I886    2.137   .     S
C866   C868    1.405   .     A
C866   C951    1.391   1_455 S
C867   C873    1.470   .     S
C867   C879    1.408   .     A
C867   C880    1.405   .     A
C868   C878    1.408   .     A
C869   N892    1.381   .     A
C869   I887    2.153   .     S
C870   N891    1.381   .     A
C870   I888    2.153   .     S
C870   C655    1.433   1_565 S
C871   I889    2.152   .     S
C871   N892    1.381   .     A
C872   I890    2.152   .     S
C872   N891    1.381   .     A
C872   C653    1.433   1_565 S
C873   O894    1.312   .     A
C873   O895    1.309   .     A
C874   C876    1.407   .     S
C874   O897    1.300   .     A
C874   O900    1.301   .     A
C875   C877    1.407   .     S
C875   O899    1.301   .     A
C875   O898    1.300   .     A
C877   C228    1.189   1_556 S
C878   I883    2.132   .     S
C878   C952    1.391   1_455 S
C879   I884    2.132   .     S
C879   C902    1.391   .     S
C880   I885    2.137   .     S
C880   C914    1.391   .     S
Cu881  Cu882   2.723   .     S
Cu881  O893    1.962   .     S
Cu881  O897    1.926   .     S
Cu881  O895    1.966   .     S
Cu881  N891    2.046   .     S
Cu881  O899    1.927   .     S
Cu882  O894    1.962   .     S
Cu882  N892    2.046   .     S
Cu882  O898    1.926   .     S
Cu882  O896    1.966   .     S
Cu882  O900    1.927   .     S
C901   C904    1.470   .     S
C901   O929    1.312   .     A
C901   O932    1.309   .     A
C902   I922    2.137   .     S
C902   C904    1.405   .     A
C903   C909    1.470   .     S
C903   C915    1.408   .     A
C903   C916    1.405   .     A
C904   C914    1.408   .     A
C905   N928    1.381   .     A
C905   I923    2.153   .     S
C906   N927    1.381   .     A
C906   I924    2.153   .     S
C906   C691    1.433   1_565 S
C907   I925    2.152   .     S
C907   N928    1.381   .     A
C908   I926    2.152   .     S
C908   N927    1.381   .     A
C908   C689    1.433   1_565 S
C909   O930    1.312   .     A
C909   O931    1.309   .     A
C910   C912    1.407   .     S
C910   O933    1.300   .     A
C910   O936    1.301   .     A
C911   C913    1.407   .     S
C911   O935    1.301   .     A
C911   O934    1.300   .     A
C913   C264    1.189   1_556 S
C914   I919    2.132   .     S
C915   I920    2.132   .     S
C915   C938    1.391   .     S
C916   I921    2.137   .     S
C916   C950    1.391   .     S
Cu917  Cu918   2.723   .     S
Cu917  O929    1.962   .     S
Cu917  O933    1.926   .     S
Cu917  O931    1.966   .     S
Cu917  N927    2.046   .     S
Cu917  O935    1.927   .     S
Cu918  O930    1.962   .     S
Cu918  N928    2.046   .     S
Cu918  O934    1.926   .     S
Cu918  O932    1.966   .     S
Cu918  O936    1.927   .     S
C937   C940    1.470   .     S
C937   O965    1.312   .     A
C937   O968    1.309   .     A
C938   I958    2.137   .     S
C938   C940    1.405   .     A
C939   C945    1.470   .     S
C939   C951    1.408   .     A
C939   C952    1.405   .     A
C940   C950    1.408   .     A
C941   N964    1.381   .     A
C941   I959    2.153   .     S
C942   N963    1.381   .     A
C942   I960    2.153   .     S
C942   C727    1.433   1_565 S
C943   I961    2.152   .     S
C943   N964    1.381   .     A
C944   I962    2.152   .     S
C944   N963    1.381   .     A
C944   C725    1.433   1_565 S
C945   O966    1.312   .     A
C945   O967    1.309   .     A
C946   C948    1.407   .     S
C946   O969    1.300   .     A
C946   O972    1.301   .     A
C947   C949    1.407   .     S
C947   O971    1.301   .     A
C947   O970    1.300   .     A
C949   C300    1.189   1_556 S
C950   I955    2.132   .     S
C951   I956    2.132   .     S
C951   C866    1.391   1_655 S
C952   I957    2.137   .     S
C952   C878    1.391   1_655 S
Cu953  Cu954   2.723   .     S
Cu953  O965    1.962   .     S
Cu953  O969    1.926   .     S
Cu953  O967    1.966   .     S
Cu953  N963    2.046   .     S
Cu953  O971    1.927   .     S
Cu954  O966    1.962   .     S
Cu954  N964    2.046   .     S
Cu954  O970    1.926   .     S
Cu954  O968    1.966   .     S
Cu954  O972    1.927   .     S
