data_str_m2_o1_o2_pcu_sym.132
_audit_creation_date              2020-01-03
_audit_creation_method            'Materials Studio'
_symmetry_space_group_name_H-M    'P1'
_symmetry_Int_Tables_number       1
_symmetry_cell_setting            triclinic
loop_
_symmetry_equiv_pos_as_xyz
  x,y,z
_cell_length_a                    32.8243
_cell_length_b                    28.6750
_cell_length_c                    30.2666
_cell_angle_alpha                 90.0019
_cell_angle_beta                  92.5595
_cell_angle_gamma                 90.0106
loop_
_atom_site_label
_atom_site_type_symbol
_atom_site_fract_x
_atom_site_fract_y
_atom_site_fract_z
_atom_site_U_iso_or_equiv
_atom_site_adp_type
_atom_site_occupancy
C1     C     0.08752   0.16666   0.25282   0.00000  Uiso   1.00
C2     C     0.24581   0.16667   0.24718   0.00000  Uiso   1.00
C3     C     0.16577   0.16667   0.16490   0.00000  Uiso   1.00
C4     C     0.16756   0.16667   0.33510   0.00000  Uiso   1.00
C5     C     0.14140   0.02472   0.22113   0.00000  Uiso   1.00
C6     C     0.19194   0.30861   0.27887   0.00000  Uiso   1.00
C7     C     0.19194   0.02473   0.27887   0.00000  Uiso   1.00
C8     C     0.14139   0.30860   0.22113   0.00000  Uiso   1.00
C9     C     0.02101   0.12403   0.25408   0.00000  Uiso   1.00
C10    C     0.31233   0.20930   0.24591   0.00000  Uiso   1.00
C11    C     0.31230   0.12405   0.24578   0.00000  Uiso   1.00
C12    C     0.02103   0.20928   0.25422   0.00000  Uiso   1.00
C13    C     0.15357   0.20846   0.04724   0.00000  Uiso   1.00
C14    C     0.17976   0.12487   0.45276   0.00000  Uiso   1.00
C15    C     0.17976   0.20847   0.45277   0.00000  Uiso   1.00
C16    C     0.15358   0.12486   0.04723   0.00000  Uiso   1.00
C17    C     0.15784   0.20865   0.09321   0.00000  Uiso   1.00
C18    C     0.17550   0.12468   0.40679   0.00000  Uiso   1.00
C19    C     0.17549   0.20866   0.40679   0.00000  Uiso   1.00
C20    C     0.15785   0.12467   0.09321   0.00000  Uiso   1.00
C21    C     0.16261   0.16666   0.11644   0.00000  Uiso   1.00
C22    C     0.17073   0.16667   0.38356   0.00000  Uiso   1.00
C23    C     0.16060   0.16666   0.02378   0.00000  Uiso   1.00
C24    C     0.17273   0.16667   0.47622   0.00000  Uiso   1.00
C25    C     0.29054   0.16668   0.24491   0.00000  Uiso   1.00
C26    C     0.04279   0.16665   0.25509   0.00000  Uiso   1.00
Cu27   Cu    0.16667   0.21355   0.25000   0.00000  Uiso   1.00
Cu28   Cu    0.16667   0.11978   0.25000   0.00000  Uiso   1.00
H29    H     0.15461   0.24129   0.11068   0.00000  Uiso   1.00
H30    H     0.17873   0.09205   0.38932   0.00000  Uiso   1.00
H31    H     0.17871   0.24130   0.38933   0.00000  Uiso   1.00
H32    H     0.15463   0.09204   0.11067   0.00000  Uiso   1.00
N33    N     0.16667   0.28402   0.25000   0.00000  Uiso   1.00
N34    N     0.16667   0.04931   0.25000   0.00000  Uiso   1.00
O35    O     0.10655   0.20625   0.25000   0.00000  Uiso   1.00
O36    O     0.22679   0.12709   0.25001   0.00000  Uiso   1.00
O37    O     0.22679   0.20625   0.25001   0.00000  Uiso   1.00
O38    O     0.10655   0.12709   0.25000   0.00000  Uiso   1.00
O39    O     0.16666   0.20626   0.18573   0.00000  Uiso   1.00
O40    O     0.16667   0.12707   0.31427   0.00000  Uiso   1.00
O41    O     0.16667   0.20626   0.31427   0.00000  Uiso   1.00
O42    O     0.16666   0.12707   0.18573   0.00000  Uiso   1.00
Cl43   Cl    0.10812   0.05400   0.18316   0.00000  Uiso   1.00
Cl44   Cl    0.22521   0.27933   0.31684   0.00000  Uiso   1.00
Cl45   Cl    0.22524   0.05403   0.31681   0.00000  Uiso   1.00
Cl46   Cl    0.10809   0.27930   0.18319   0.00000  Uiso   1.00
Cl47   Cl    0.12635   0.25585   0.02309   0.00000  Uiso   1.00
Cl48   Cl    0.20698   0.07749   0.47691   0.00000  Uiso   1.00
Cl49   Cl    0.20697   0.25587   0.47692   0.00000  Uiso   1.00
Cl50   Cl    0.12636   0.07746   0.02308   0.00000  Uiso   1.00
Cl51   Cl    0.04420   0.06959   0.26774   0.00000  Uiso   1.00
Cl52   Cl    0.28913   0.26374   0.23225   0.00000  Uiso   1.00
Cl53   Cl    0.28907   0.06967   0.23192   0.00000  Uiso   1.00
Cl54   Cl    0.04426   0.26367   0.26808   0.00000  Uiso   1.00
C55    C     0.42085   0.16666   0.25282   0.00000  Uiso   1.00
C56    C     0.57914   0.16667   0.24718   0.00000  Uiso   1.00
C57    C     0.49910   0.16667   0.16490   0.00000  Uiso   1.00
C58    C     0.50090   0.16667   0.33510   0.00000  Uiso   1.00
C59    C     0.47473   0.02472   0.22113   0.00000  Uiso   1.00
C60    C     0.52527   0.30861   0.27887   0.00000  Uiso   1.00
C61    C     0.52527   0.02473   0.27887   0.00000  Uiso   1.00
C62    C     0.47473   0.30860   0.22113   0.00000  Uiso   1.00
C63    C     0.35434   0.12403   0.25408   0.00000  Uiso   1.00
C64    C     0.64566   0.20930   0.24591   0.00000  Uiso   1.00
C65    C     0.64563   0.12405   0.24578   0.00000  Uiso   1.00
C66    C     0.35437   0.20928   0.25422   0.00000  Uiso   1.00
C67    C     0.48691   0.20846   0.04724   0.00000  Uiso   1.00
C68    C     0.51310   0.12487   0.45276   0.00000  Uiso   1.00
C69    C     0.51309   0.20847   0.45277   0.00000  Uiso   1.00
C70    C     0.48691   0.12486   0.04723   0.00000  Uiso   1.00
C71    C     0.49117   0.20865   0.09321   0.00000  Uiso   1.00
C72    C     0.50883   0.12468   0.40679   0.00000  Uiso   1.00
C73    C     0.50882   0.20866   0.40679   0.00000  Uiso   1.00
C74    C     0.49118   0.12467   0.09321   0.00000  Uiso   1.00
C75    C     0.49594   0.16666   0.11644   0.00000  Uiso   1.00
C76    C     0.50406   0.16667   0.38356   0.00000  Uiso   1.00
C77    C     0.49394   0.16666   0.02378   0.00000  Uiso   1.00
C78    C     0.50607   0.16667   0.47622   0.00000  Uiso   1.00
C79    C     0.62388   0.16668   0.24491   0.00000  Uiso   1.00
C80    C     0.37612   0.16665   0.25509   0.00000  Uiso   1.00
Cu81   Cu    0.50000   0.21355   0.25000   0.00000  Uiso   1.00
Cu82   Cu    0.50000   0.11978   0.25000   0.00000  Uiso   1.00
H83    H     0.48794   0.24129   0.11068   0.00000  Uiso   1.00
H84    H     0.51206   0.09205   0.38932   0.00000  Uiso   1.00
H85    H     0.51204   0.24130   0.38933   0.00000  Uiso   1.00
H86    H     0.48796   0.09204   0.11067   0.00000  Uiso   1.00
N87    N     0.50000   0.28402   0.25000   0.00000  Uiso   1.00
N88    N     0.50000   0.04931   0.25000   0.00000  Uiso   1.00
O89    O     0.43988   0.20625   0.25000   0.00000  Uiso   1.00
O90    O     0.56012   0.12709   0.25001   0.00000  Uiso   1.00
O91    O     0.56012   0.20625   0.25001   0.00000  Uiso   1.00
O92    O     0.43988   0.12709   0.25000   0.00000  Uiso   1.00
O93    O     0.50000   0.20626   0.18573   0.00000  Uiso   1.00
O94    O     0.50000   0.12707   0.31427   0.00000  Uiso   1.00
O95    O     0.50000   0.20626   0.31427   0.00000  Uiso   1.00
O96    O     0.50000   0.12707   0.18573   0.00000  Uiso   1.00
Cl97   Cl    0.44146   0.05400   0.18316   0.00000  Uiso   1.00
Cl98   Cl    0.55854   0.27933   0.31684   0.00000  Uiso   1.00
Cl99   Cl    0.55857   0.05403   0.31681   0.00000  Uiso   1.00
Cl100  Cl    0.44142   0.27930   0.18319   0.00000  Uiso   1.00
Cl101  Cl    0.45969   0.25585   0.02309   0.00000  Uiso   1.00
Cl102  Cl    0.54032   0.07749   0.47691   0.00000  Uiso   1.00
Cl103  Cl    0.54031   0.25587   0.47692   0.00000  Uiso   1.00
Cl104  Cl    0.45970   0.07746   0.02308   0.00000  Uiso   1.00
Cl105  Cl    0.37754   0.06959   0.26774   0.00000  Uiso   1.00
Cl106  Cl    0.62246   0.26374   0.23225   0.00000  Uiso   1.00
Cl107  Cl    0.62240   0.06967   0.23192   0.00000  Uiso   1.00
Cl108  Cl    0.37760   0.26367   0.26808   0.00000  Uiso   1.00
C109   C     0.75419   0.16666   0.25282   0.00000  Uiso   1.00
C110   C     0.91248   0.16667   0.24718   0.00000  Uiso   1.00
C111   C     0.83244   0.16667   0.16490   0.00000  Uiso   1.00
C112   C     0.83423   0.16667   0.33510   0.00000  Uiso   1.00
C113   C     0.80806   0.02472   0.22113   0.00000  Uiso   1.00
C114   C     0.85860   0.30861   0.27887   0.00000  Uiso   1.00
C115   C     0.85861   0.02473   0.27887   0.00000  Uiso   1.00
C116   C     0.80806   0.30860   0.22113   0.00000  Uiso   1.00
C117   C     0.68767   0.12403   0.25408   0.00000  Uiso   1.00
C118   C     0.97899   0.20930   0.24591   0.00000  Uiso   1.00
C119   C     0.97897   0.12405   0.24578   0.00000  Uiso   1.00
C120   C     0.68770   0.20928   0.25422   0.00000  Uiso   1.00
C121   C     0.82024   0.20846   0.04724   0.00000  Uiso   1.00
C122   C     0.84643   0.12487   0.45276   0.00000  Uiso   1.00
C123   C     0.84642   0.20847   0.45277   0.00000  Uiso   1.00
C124   C     0.82025   0.12486   0.04723   0.00000  Uiso   1.00
C125   C     0.82450   0.20865   0.09321   0.00000  Uiso   1.00
C126   C     0.84217   0.12468   0.40679   0.00000  Uiso   1.00
C127   C     0.84216   0.20866   0.40679   0.00000  Uiso   1.00
C128   C     0.82451   0.12467   0.09321   0.00000  Uiso   1.00
C129   C     0.82927   0.16666   0.11644   0.00000  Uiso   1.00
C130   C     0.83739   0.16667   0.38356   0.00000  Uiso   1.00
C131   C     0.82727   0.16666   0.02378   0.00000  Uiso   1.00
C132   C     0.83940   0.16667   0.47622   0.00000  Uiso   1.00
C133   C     0.95721   0.16668   0.24491   0.00000  Uiso   1.00
C134   C     0.70946   0.16665   0.25509   0.00000  Uiso   1.00
Cu135  Cu    0.83333   0.21355   0.25000   0.00000  Uiso   1.00
Cu136  Cu    0.83333   0.11978   0.25000   0.00000  Uiso   1.00
H137   H     0.82128   0.24129   0.11068   0.00000  Uiso   1.00
H138   H     0.84539   0.09205   0.38932   0.00000  Uiso   1.00
H139   H     0.84537   0.24130   0.38933   0.00000  Uiso   1.00
H140   H     0.82129   0.09204   0.11067   0.00000  Uiso   1.00
N141   N     0.83333   0.28402   0.25000   0.00000  Uiso   1.00
N142   N     0.83333   0.04931   0.25000   0.00000  Uiso   1.00
O143   O     0.77321   0.20625   0.25000   0.00000  Uiso   1.00
O144   O     0.89345   0.12709   0.25001   0.00000  Uiso   1.00
O145   O     0.89345   0.20625   0.25001   0.00000  Uiso   1.00
O146   O     0.77321   0.12709   0.25000   0.00000  Uiso   1.00
O147   O     0.83333   0.20626   0.18573   0.00000  Uiso   1.00
O148   O     0.83334   0.12707   0.31427   0.00000  Uiso   1.00
O149   O     0.83334   0.20626   0.31427   0.00000  Uiso   1.00
O150   O     0.83333   0.12707   0.18573   0.00000  Uiso   1.00
Cl151  Cl    0.77479   0.05400   0.18316   0.00000  Uiso   1.00
Cl152  Cl    0.89188   0.27933   0.31684   0.00000  Uiso   1.00
Cl153  Cl    0.89191   0.05403   0.31681   0.00000  Uiso   1.00
Cl154  Cl    0.77476   0.27930   0.18319   0.00000  Uiso   1.00
Cl155  Cl    0.79302   0.25585   0.02309   0.00000  Uiso   1.00
Cl156  Cl    0.87365   0.07749   0.47691   0.00000  Uiso   1.00
Cl157  Cl    0.87364   0.25587   0.47692   0.00000  Uiso   1.00
Cl158  Cl    0.79303   0.07746   0.02308   0.00000  Uiso   1.00
Cl159  Cl    0.71087   0.06959   0.26774   0.00000  Uiso   1.00
Cl160  Cl    0.95580   0.26374   0.23225   0.00000  Uiso   1.00
Cl161  Cl    0.95574   0.06967   0.23192   0.00000  Uiso   1.00
Cl162  Cl    0.71093   0.26367   0.26808   0.00000  Uiso   1.00
C163   C     0.08752   0.50000   0.25282   0.00000  Uiso   1.00
C164   C     0.24581   0.50000   0.24718   0.00000  Uiso   1.00
C165   C     0.16577   0.50000   0.16490   0.00000  Uiso   1.00
C166   C     0.16756   0.50000   0.33510   0.00000  Uiso   1.00
C167   C     0.14140   0.35805   0.22113   0.00000  Uiso   1.00
C168   C     0.19194   0.64195   0.27887   0.00000  Uiso   1.00
C169   C     0.19194   0.35807   0.27887   0.00000  Uiso   1.00
C170   C     0.14139   0.64193   0.22113   0.00000  Uiso   1.00
C171   C     0.02101   0.45736   0.25408   0.00000  Uiso   1.00
C172   C     0.31233   0.54264   0.24591   0.00000  Uiso   1.00
C173   C     0.31230   0.45738   0.24578   0.00000  Uiso   1.00
C174   C     0.02103   0.54262   0.25422   0.00000  Uiso   1.00
C175   C     0.15357   0.54180   0.04724   0.00000  Uiso   1.00
C176   C     0.17976   0.45820   0.45276   0.00000  Uiso   1.00
C177   C     0.17976   0.54181   0.45277   0.00000  Uiso   1.00
C178   C     0.15358   0.45819   0.04723   0.00000  Uiso   1.00
C179   C     0.15784   0.54199   0.09321   0.00000  Uiso   1.00
C180   C     0.17550   0.45801   0.40679   0.00000  Uiso   1.00
C181   C     0.17549   0.54199   0.40679   0.00000  Uiso   1.00
C182   C     0.15785   0.45801   0.09321   0.00000  Uiso   1.00
C183   C     0.16261   0.50000   0.11644   0.00000  Uiso   1.00
C184   C     0.17073   0.50000   0.38356   0.00000  Uiso   1.00
C185   C     0.16060   0.50000   0.02378   0.00000  Uiso   1.00
C186   C     0.17273   0.50000   0.47622   0.00000  Uiso   1.00
C187   C     0.29054   0.50001   0.24491   0.00000  Uiso   1.00
C188   C     0.04279   0.49999   0.25509   0.00000  Uiso   1.00
Cu189  Cu    0.16667   0.54689   0.25000   0.00000  Uiso   1.00
Cu190  Cu    0.16667   0.45311   0.25000   0.00000  Uiso   1.00
H191   H     0.15461   0.57462   0.11068   0.00000  Uiso   1.00
H192   H     0.17873   0.42538   0.38932   0.00000  Uiso   1.00
H193   H     0.17871   0.57463   0.38933   0.00000  Uiso   1.00
H194   H     0.15463   0.42537   0.11067   0.00000  Uiso   1.00
N195   N     0.16667   0.61736   0.25000   0.00000  Uiso   1.00
N196   N     0.16667   0.38264   0.25000   0.00000  Uiso   1.00
O197   O     0.10655   0.53958   0.25000   0.00000  Uiso   1.00
O198   O     0.22679   0.46042   0.25001   0.00000  Uiso   1.00
O199   O     0.22679   0.53958   0.25001   0.00000  Uiso   1.00
O200   O     0.10655   0.46042   0.25000   0.00000  Uiso   1.00
O201   O     0.16666   0.53959   0.18573   0.00000  Uiso   1.00
O202   O     0.16667   0.46041   0.31427   0.00000  Uiso   1.00
O203   O     0.16667   0.53959   0.31427   0.00000  Uiso   1.00
O204   O     0.16666   0.46041   0.18573   0.00000  Uiso   1.00
Cl205  Cl    0.10812   0.38733   0.18316   0.00000  Uiso   1.00
Cl206  Cl    0.22521   0.61266   0.31684   0.00000  Uiso   1.00
Cl207  Cl    0.22524   0.38736   0.31681   0.00000  Uiso   1.00
Cl208  Cl    0.10809   0.61264   0.18319   0.00000  Uiso   1.00
Cl209  Cl    0.12635   0.58918   0.02309   0.00000  Uiso   1.00
Cl210  Cl    0.20698   0.41082   0.47691   0.00000  Uiso   1.00
Cl211  Cl    0.20697   0.58921   0.47692   0.00000  Uiso   1.00
Cl212  Cl    0.12636   0.41079   0.02308   0.00000  Uiso   1.00
Cl213  Cl    0.04420   0.40292   0.26774   0.00000  Uiso   1.00
Cl214  Cl    0.28913   0.59708   0.23225   0.00000  Uiso   1.00
Cl215  Cl    0.28907   0.40300   0.23192   0.00000  Uiso   1.00
Cl216  Cl    0.04426   0.59700   0.26808   0.00000  Uiso   1.00
C217   C     0.42085   0.50000   0.25282   0.00000  Uiso   1.00
C218   C     0.57914   0.50000   0.24718   0.00000  Uiso   1.00
C219   C     0.49910   0.50000   0.16490   0.00000  Uiso   1.00
C220   C     0.50090   0.50000   0.33510   0.00000  Uiso   1.00
C221   C     0.47473   0.35805   0.22113   0.00000  Uiso   1.00
C222   C     0.52527   0.64195   0.27887   0.00000  Uiso   1.00
C223   C     0.52527   0.35807   0.27887   0.00000  Uiso   1.00
C224   C     0.47473   0.64193   0.22113   0.00000  Uiso   1.00
C225   C     0.35434   0.45736   0.25408   0.00000  Uiso   1.00
C226   C     0.64566   0.54264   0.24591   0.00000  Uiso   1.00
C227   C     0.64563   0.45738   0.24578   0.00000  Uiso   1.00
C228   C     0.35437   0.54262   0.25422   0.00000  Uiso   1.00
C229   C     0.48691   0.54180   0.04724   0.00000  Uiso   1.00
C230   C     0.51310   0.45820   0.45276   0.00000  Uiso   1.00
C231   C     0.51309   0.54181   0.45277   0.00000  Uiso   1.00
C232   C     0.48691   0.45819   0.04723   0.00000  Uiso   1.00
C233   C     0.49117   0.54199   0.09321   0.00000  Uiso   1.00
C234   C     0.50883   0.45801   0.40679   0.00000  Uiso   1.00
C235   C     0.50882   0.54199   0.40679   0.00000  Uiso   1.00
C236   C     0.49118   0.45801   0.09321   0.00000  Uiso   1.00
C237   C     0.49594   0.50000   0.11644   0.00000  Uiso   1.00
C238   C     0.50406   0.50000   0.38356   0.00000  Uiso   1.00
C239   C     0.49394   0.50000   0.02378   0.00000  Uiso   1.00
C240   C     0.50607   0.50000   0.47622   0.00000  Uiso   1.00
C241   C     0.62388   0.50001   0.24491   0.00000  Uiso   1.00
C242   C     0.37612   0.49999   0.25509   0.00000  Uiso   1.00
Cu243  Cu    0.50000   0.54689   0.25000   0.00000  Uiso   1.00
Cu244  Cu    0.50000   0.45311   0.25000   0.00000  Uiso   1.00
H245   H     0.48794   0.57462   0.11068   0.00000  Uiso   1.00
H246   H     0.51206   0.42538   0.38932   0.00000  Uiso   1.00
H247   H     0.51204   0.57463   0.38933   0.00000  Uiso   1.00
H248   H     0.48796   0.42537   0.11067   0.00000  Uiso   1.00
N249   N     0.50000   0.61736   0.25000   0.00000  Uiso   1.00
N250   N     0.50000   0.38264   0.25000   0.00000  Uiso   1.00
O251   O     0.43988   0.53958   0.25000   0.00000  Uiso   1.00
O252   O     0.56012   0.46042   0.25001   0.00000  Uiso   1.00
O253   O     0.56012   0.53958   0.25001   0.00000  Uiso   1.00
O254   O     0.43988   0.46042   0.25000   0.00000  Uiso   1.00
O255   O     0.50000   0.53959   0.18573   0.00000  Uiso   1.00
O256   O     0.50000   0.46041   0.31427   0.00000  Uiso   1.00
O257   O     0.50000   0.53959   0.31427   0.00000  Uiso   1.00
O258   O     0.50000   0.46041   0.18573   0.00000  Uiso   1.00
Cl259  Cl    0.44146   0.38733   0.18316   0.00000  Uiso   1.00
Cl260  Cl    0.55854   0.61266   0.31684   0.00000  Uiso   1.00
Cl261  Cl    0.55857   0.38736   0.31681   0.00000  Uiso   1.00
Cl262  Cl    0.44142   0.61264   0.18319   0.00000  Uiso   1.00
Cl263  Cl    0.45969   0.58918   0.02309   0.00000  Uiso   1.00
Cl264  Cl    0.54032   0.41082   0.47691   0.00000  Uiso   1.00
Cl265  Cl    0.54031   0.58921   0.47692   0.00000  Uiso   1.00
Cl266  Cl    0.45970   0.41079   0.02308   0.00000  Uiso   1.00
Cl267  Cl    0.37754   0.40292   0.26774   0.00000  Uiso   1.00
Cl268  Cl    0.62246   0.59708   0.23225   0.00000  Uiso   1.00
Cl269  Cl    0.62240   0.40300   0.23192   0.00000  Uiso   1.00
Cl270  Cl    0.37760   0.59700   0.26808   0.00000  Uiso   1.00
C271   C     0.75419   0.50000   0.25282   0.00000  Uiso   1.00
C272   C     0.91248   0.50000   0.24718   0.00000  Uiso   1.00
C273   C     0.83244   0.50000   0.16490   0.00000  Uiso   1.00
C274   C     0.83423   0.50000   0.33510   0.00000  Uiso   1.00
C275   C     0.80806   0.35805   0.22113   0.00000  Uiso   1.00
C276   C     0.85860   0.64195   0.27887   0.00000  Uiso   1.00
C277   C     0.85861   0.35807   0.27887   0.00000  Uiso   1.00
C278   C     0.80806   0.64193   0.22113   0.00000  Uiso   1.00
C279   C     0.68767   0.45736   0.25408   0.00000  Uiso   1.00
C280   C     0.97899   0.54264   0.24591   0.00000  Uiso   1.00
C281   C     0.97897   0.45738   0.24578   0.00000  Uiso   1.00
C282   C     0.68770   0.54262   0.25422   0.00000  Uiso   1.00
C283   C     0.82024   0.54180   0.04724   0.00000  Uiso   1.00
C284   C     0.84643   0.45820   0.45276   0.00000  Uiso   1.00
C285   C     0.84642   0.54181   0.45277   0.00000  Uiso   1.00
C286   C     0.82025   0.45819   0.04723   0.00000  Uiso   1.00
C287   C     0.82450   0.54199   0.09321   0.00000  Uiso   1.00
C288   C     0.84217   0.45801   0.40679   0.00000  Uiso   1.00
C289   C     0.84216   0.54199   0.40679   0.00000  Uiso   1.00
C290   C     0.82451   0.45801   0.09321   0.00000  Uiso   1.00
C291   C     0.82927   0.50000   0.11644   0.00000  Uiso   1.00
C292   C     0.83739   0.50000   0.38356   0.00000  Uiso   1.00
C293   C     0.82727   0.50000   0.02378   0.00000  Uiso   1.00
C294   C     0.83940   0.50000   0.47622   0.00000  Uiso   1.00
C295   C     0.95721   0.50001   0.24491   0.00000  Uiso   1.00
C296   C     0.70946   0.49999   0.25509   0.00000  Uiso   1.00
Cu297  Cu    0.83333   0.54689   0.25000   0.00000  Uiso   1.00
Cu298  Cu    0.83333   0.45311   0.25000   0.00000  Uiso   1.00
H299   H     0.82128   0.57462   0.11068   0.00000  Uiso   1.00
H300   H     0.84539   0.42538   0.38932   0.00000  Uiso   1.00
H301   H     0.84537   0.57463   0.38933   0.00000  Uiso   1.00
H302   H     0.82129   0.42537   0.11067   0.00000  Uiso   1.00
N303   N     0.83333   0.61736   0.25000   0.00000  Uiso   1.00
N304   N     0.83333   0.38264   0.25000   0.00000  Uiso   1.00
O305   O     0.77321   0.53958   0.25000   0.00000  Uiso   1.00
O306   O     0.89345   0.46042   0.25001   0.00000  Uiso   1.00
O307   O     0.89345   0.53958   0.25001   0.00000  Uiso   1.00
O308   O     0.77321   0.46042   0.25000   0.00000  Uiso   1.00
O309   O     0.83333   0.53959   0.18573   0.00000  Uiso   1.00
O310   O     0.83334   0.46041   0.31427   0.00000  Uiso   1.00
O311   O     0.83334   0.53959   0.31427   0.00000  Uiso   1.00
O312   O     0.83333   0.46041   0.18573   0.00000  Uiso   1.00
Cl313  Cl    0.77479   0.38733   0.18316   0.00000  Uiso   1.00
Cl314  Cl    0.89188   0.61266   0.31684   0.00000  Uiso   1.00
Cl315  Cl    0.89191   0.38736   0.31681   0.00000  Uiso   1.00
Cl316  Cl    0.77476   0.61264   0.18319   0.00000  Uiso   1.00
Cl317  Cl    0.79302   0.58918   0.02309   0.00000  Uiso   1.00
Cl318  Cl    0.87365   0.41082   0.47691   0.00000  Uiso   1.00
Cl319  Cl    0.87364   0.58921   0.47692   0.00000  Uiso   1.00
Cl320  Cl    0.79303   0.41079   0.02308   0.00000  Uiso   1.00
Cl321  Cl    0.71087   0.40292   0.26774   0.00000  Uiso   1.00
Cl322  Cl    0.95580   0.59708   0.23225   0.00000  Uiso   1.00
Cl323  Cl    0.95574   0.40300   0.23192   0.00000  Uiso   1.00
Cl324  Cl    0.71093   0.59700   0.26808   0.00000  Uiso   1.00
C325   C     0.08752   0.83333   0.25282   0.00000  Uiso   1.00
C326   C     0.24581   0.83334   0.24718   0.00000  Uiso   1.00
C327   C     0.16577   0.83333   0.16490   0.00000  Uiso   1.00
C328   C     0.16756   0.83333   0.33510   0.00000  Uiso   1.00
C329   C     0.14140   0.69139   0.22113   0.00000  Uiso   1.00
C330   C     0.19194   0.97528   0.27887   0.00000  Uiso   1.00
C331   C     0.19194   0.69140   0.27887   0.00000  Uiso   1.00
C332   C     0.14139   0.97527   0.22113   0.00000  Uiso   1.00
C333   C     0.02101   0.79070   0.25408   0.00000  Uiso   1.00
C334   C     0.31233   0.87597   0.24591   0.00000  Uiso   1.00
C335   C     0.31230   0.79072   0.24578   0.00000  Uiso   1.00
C336   C     0.02103   0.87595   0.25422   0.00000  Uiso   1.00
C337   C     0.15357   0.87513   0.04724   0.00000  Uiso   1.00
C338   C     0.17976   0.79154   0.45276   0.00000  Uiso   1.00
C339   C     0.17976   0.87514   0.45277   0.00000  Uiso   1.00
C340   C     0.15358   0.79153   0.04723   0.00000  Uiso   1.00
C341   C     0.15784   0.87532   0.09321   0.00000  Uiso   1.00
C342   C     0.17550   0.79135   0.40679   0.00000  Uiso   1.00
C343   C     0.17549   0.87533   0.40679   0.00000  Uiso   1.00
C344   C     0.15785   0.79134   0.09321   0.00000  Uiso   1.00
C345   C     0.16261   0.83333   0.11644   0.00000  Uiso   1.00
C346   C     0.17073   0.83334   0.38356   0.00000  Uiso   1.00
C347   C     0.16060   0.83333   0.02378   0.00000  Uiso   1.00
C348   C     0.17273   0.83334   0.47622   0.00000  Uiso   1.00
C349   C     0.29054   0.83334   0.24491   0.00000  Uiso   1.00
C350   C     0.04279   0.83332   0.25509   0.00000  Uiso   1.00
Cu351  Cu    0.16667   0.88022   0.25000   0.00000  Uiso   1.00
Cu352  Cu    0.16667   0.78645   0.25000   0.00000  Uiso   1.00
H353   H     0.15461   0.90795   0.11068   0.00000  Uiso   1.00
H354   H     0.17873   0.75871   0.38932   0.00000  Uiso   1.00
H355   H     0.17871   0.90796   0.38933   0.00000  Uiso   1.00
H356   H     0.15463   0.75870   0.11067   0.00000  Uiso   1.00
N357   N     0.16667   0.95069   0.25000   0.00000  Uiso   1.00
N358   N     0.16667   0.71598   0.25000   0.00000  Uiso   1.00
O359   O     0.10655   0.87291   0.25000   0.00000  Uiso   1.00
O360   O     0.22679   0.79375   0.25001   0.00000  Uiso   1.00
O361   O     0.22679   0.87291   0.25001   0.00000  Uiso   1.00
O362   O     0.10655   0.79375   0.25000   0.00000  Uiso   1.00
O363   O     0.16666   0.87293   0.18573   0.00000  Uiso   1.00
O364   O     0.16667   0.79374   0.31427   0.00000  Uiso   1.00
O365   O     0.16667   0.87293   0.31427   0.00000  Uiso   1.00
O366   O     0.16666   0.79374   0.18573   0.00000  Uiso   1.00
Cl367  Cl    0.10812   0.72067   0.18316   0.00000  Uiso   1.00
Cl368  Cl    0.22521   0.94600   0.31684   0.00000  Uiso   1.00
Cl369  Cl    0.22524   0.72070   0.31681   0.00000  Uiso   1.00
Cl370  Cl    0.10809   0.94597   0.18319   0.00000  Uiso   1.00
Cl371  Cl    0.12635   0.92251   0.02309   0.00000  Uiso   1.00
Cl372  Cl    0.20698   0.74415   0.47691   0.00000  Uiso   1.00
Cl373  Cl    0.20697   0.92254   0.47692   0.00000  Uiso   1.00
Cl374  Cl    0.12636   0.74413   0.02308   0.00000  Uiso   1.00
Cl375  Cl    0.04420   0.73625   0.26774   0.00000  Uiso   1.00
Cl376  Cl    0.28913   0.93041   0.23225   0.00000  Uiso   1.00
Cl377  Cl    0.28907   0.73633   0.23192   0.00000  Uiso   1.00
Cl378  Cl    0.04426   0.93033   0.26808   0.00000  Uiso   1.00
C379   C     0.42085   0.83333   0.25282   0.00000  Uiso   1.00
C380   C     0.57914   0.83334   0.24718   0.00000  Uiso   1.00
C381   C     0.49910   0.83333   0.16490   0.00000  Uiso   1.00
C382   C     0.50090   0.83333   0.33510   0.00000  Uiso   1.00
C383   C     0.47473   0.69139   0.22113   0.00000  Uiso   1.00
C384   C     0.52527   0.97528   0.27887   0.00000  Uiso   1.00
C385   C     0.52527   0.69140   0.27887   0.00000  Uiso   1.00
C386   C     0.47473   0.97527   0.22113   0.00000  Uiso   1.00
C387   C     0.35434   0.79070   0.25408   0.00000  Uiso   1.00
C388   C     0.64566   0.87597   0.24591   0.00000  Uiso   1.00
C389   C     0.64563   0.79072   0.24578   0.00000  Uiso   1.00
C390   C     0.35437   0.87595   0.25422   0.00000  Uiso   1.00
C391   C     0.48691   0.87513   0.04724   0.00000  Uiso   1.00
C392   C     0.51310   0.79154   0.45276   0.00000  Uiso   1.00
C393   C     0.51309   0.87514   0.45277   0.00000  Uiso   1.00
C394   C     0.48691   0.79153   0.04723   0.00000  Uiso   1.00
C395   C     0.49117   0.87532   0.09321   0.00000  Uiso   1.00
C396   C     0.50883   0.79135   0.40679   0.00000  Uiso   1.00
C397   C     0.50882   0.87533   0.40679   0.00000  Uiso   1.00
C398   C     0.49118   0.79134   0.09321   0.00000  Uiso   1.00
C399   C     0.49594   0.83333   0.11644   0.00000  Uiso   1.00
C400   C     0.50406   0.83334   0.38356   0.00000  Uiso   1.00
C401   C     0.49394   0.83333   0.02378   0.00000  Uiso   1.00
C402   C     0.50607   0.83334   0.47622   0.00000  Uiso   1.00
C403   C     0.62388   0.83334   0.24491   0.00000  Uiso   1.00
C404   C     0.37612   0.83332   0.25509   0.00000  Uiso   1.00
Cu405  Cu    0.50000   0.88022   0.25000   0.00000  Uiso   1.00
Cu406  Cu    0.50000   0.78645   0.25000   0.00000  Uiso   1.00
H407   H     0.48794   0.90795   0.11068   0.00000  Uiso   1.00
H408   H     0.51206   0.75871   0.38932   0.00000  Uiso   1.00
H409   H     0.51204   0.90796   0.38933   0.00000  Uiso   1.00
H410   H     0.48796   0.75870   0.11067   0.00000  Uiso   1.00
N411   N     0.50000   0.95069   0.25000   0.00000  Uiso   1.00
N412   N     0.50000   0.71598   0.25000   0.00000  Uiso   1.00
O413   O     0.43988   0.87291   0.25000   0.00000  Uiso   1.00
O414   O     0.56012   0.79375   0.25001   0.00000  Uiso   1.00
O415   O     0.56012   0.87291   0.25001   0.00000  Uiso   1.00
O416   O     0.43988   0.79375   0.25000   0.00000  Uiso   1.00
O417   O     0.50000   0.87293   0.18573   0.00000  Uiso   1.00
O418   O     0.50000   0.79374   0.31427   0.00000  Uiso   1.00
O419   O     0.50000   0.87293   0.31427   0.00000  Uiso   1.00
O420   O     0.50000   0.79374   0.18573   0.00000  Uiso   1.00
Cl421  Cl    0.44146   0.72067   0.18316   0.00000  Uiso   1.00
Cl422  Cl    0.55854   0.94600   0.31684   0.00000  Uiso   1.00
Cl423  Cl    0.55857   0.72070   0.31681   0.00000  Uiso   1.00
Cl424  Cl    0.44142   0.94597   0.18319   0.00000  Uiso   1.00
Cl425  Cl    0.45969   0.92251   0.02309   0.00000  Uiso   1.00
Cl426  Cl    0.54032   0.74415   0.47691   0.00000  Uiso   1.00
Cl427  Cl    0.54031   0.92254   0.47692   0.00000  Uiso   1.00
Cl428  Cl    0.45970   0.74413   0.02308   0.00000  Uiso   1.00
Cl429  Cl    0.37754   0.73625   0.26774   0.00000  Uiso   1.00
Cl430  Cl    0.62246   0.93041   0.23225   0.00000  Uiso   1.00
Cl431  Cl    0.62240   0.73633   0.23192   0.00000  Uiso   1.00
Cl432  Cl    0.37760   0.93033   0.26808   0.00000  Uiso   1.00
C433   C     0.75419   0.83333   0.25282   0.00000  Uiso   1.00
C434   C     0.91248   0.83334   0.24718   0.00000  Uiso   1.00
C435   C     0.83244   0.83333   0.16490   0.00000  Uiso   1.00
C436   C     0.83423   0.83333   0.33510   0.00000  Uiso   1.00
C437   C     0.80806   0.69139   0.22113   0.00000  Uiso   1.00
C438   C     0.85860   0.97528   0.27887   0.00000  Uiso   1.00
C439   C     0.85861   0.69140   0.27887   0.00000  Uiso   1.00
C440   C     0.80806   0.97527   0.22113   0.00000  Uiso   1.00
C441   C     0.68767   0.79070   0.25408   0.00000  Uiso   1.00
C442   C     0.97899   0.87597   0.24591   0.00000  Uiso   1.00
C443   C     0.97897   0.79072   0.24578   0.00000  Uiso   1.00
C444   C     0.68770   0.87595   0.25422   0.00000  Uiso   1.00
C445   C     0.82024   0.87513   0.04724   0.00000  Uiso   1.00
C446   C     0.84643   0.79154   0.45276   0.00000  Uiso   1.00
C447   C     0.84642   0.87514   0.45277   0.00000  Uiso   1.00
C448   C     0.82025   0.79153   0.04723   0.00000  Uiso   1.00
C449   C     0.82450   0.87532   0.09321   0.00000  Uiso   1.00
C450   C     0.84217   0.79135   0.40679   0.00000  Uiso   1.00
C451   C     0.84216   0.87533   0.40679   0.00000  Uiso   1.00
C452   C     0.82451   0.79134   0.09321   0.00000  Uiso   1.00
C453   C     0.82927   0.83333   0.11644   0.00000  Uiso   1.00
C454   C     0.83739   0.83334   0.38356   0.00000  Uiso   1.00
C455   C     0.82727   0.83333   0.02378   0.00000  Uiso   1.00
C456   C     0.83940   0.83334   0.47622   0.00000  Uiso   1.00
C457   C     0.95721   0.83334   0.24491   0.00000  Uiso   1.00
C458   C     0.70946   0.83332   0.25509   0.00000  Uiso   1.00
Cu459  Cu    0.83333   0.88022   0.25000   0.00000  Uiso   1.00
Cu460  Cu    0.83333   0.78645   0.25000   0.00000  Uiso   1.00
H461   H     0.82128   0.90795   0.11068   0.00000  Uiso   1.00
H462   H     0.84539   0.75871   0.38932   0.00000  Uiso   1.00
H463   H     0.84537   0.90796   0.38933   0.00000  Uiso   1.00
H464   H     0.82129   0.75870   0.11067   0.00000  Uiso   1.00
N465   N     0.83333   0.95069   0.25000   0.00000  Uiso   1.00
N466   N     0.83333   0.71598   0.25000   0.00000  Uiso   1.00
O467   O     0.77321   0.87291   0.25000   0.00000  Uiso   1.00
O468   O     0.89345   0.79375   0.25001   0.00000  Uiso   1.00
O469   O     0.89345   0.87291   0.25001   0.00000  Uiso   1.00
O470   O     0.77321   0.79375   0.25000   0.00000  Uiso   1.00
O471   O     0.83333   0.87293   0.18573   0.00000  Uiso   1.00
O472   O     0.83334   0.79374   0.31427   0.00000  Uiso   1.00
O473   O     0.83334   0.87293   0.31427   0.00000  Uiso   1.00
O474   O     0.83333   0.79374   0.18573   0.00000  Uiso   1.00
Cl475  Cl    0.77479   0.72067   0.18316   0.00000  Uiso   1.00
Cl476  Cl    0.89188   0.94600   0.31684   0.00000  Uiso   1.00
Cl477  Cl    0.89191   0.72070   0.31681   0.00000  Uiso   1.00
Cl478  Cl    0.77476   0.94597   0.18319   0.00000  Uiso   1.00
Cl479  Cl    0.79302   0.92251   0.02309   0.00000  Uiso   1.00
Cl480  Cl    0.87365   0.74415   0.47691   0.00000  Uiso   1.00
Cl481  Cl    0.87364   0.92254   0.47692   0.00000  Uiso   1.00
Cl482  Cl    0.79303   0.74413   0.02308   0.00000  Uiso   1.00
Cl483  Cl    0.71087   0.73625   0.26774   0.00000  Uiso   1.00
Cl484  Cl    0.95580   0.93041   0.23225   0.00000  Uiso   1.00
Cl485  Cl    0.95574   0.73633   0.23192   0.00000  Uiso   1.00
Cl486  Cl    0.71093   0.93033   0.26808   0.00000  Uiso   1.00
C487   C     0.08752   0.16666   0.75282   0.00000  Uiso   1.00
C488   C     0.24581   0.16667   0.74718   0.00000  Uiso   1.00
C489   C     0.16577   0.16667   0.66490   0.00000  Uiso   1.00
C490   C     0.16756   0.16667   0.83510   0.00000  Uiso   1.00
C491   C     0.14140   0.02472   0.72113   0.00000  Uiso   1.00
C492   C     0.19194   0.30861   0.77887   0.00000  Uiso   1.00
C493   C     0.19194   0.02473   0.77887   0.00000  Uiso   1.00
C494   C     0.14139   0.30860   0.72113   0.00000  Uiso   1.00
C495   C     0.02101   0.12403   0.75408   0.00000  Uiso   1.00
C496   C     0.31233   0.20930   0.74591   0.00000  Uiso   1.00
C497   C     0.31230   0.12405   0.74578   0.00000  Uiso   1.00
C498   C     0.02103   0.20928   0.75422   0.00000  Uiso   1.00
C499   C     0.15357   0.20846   0.54724   0.00000  Uiso   1.00
C500   C     0.17976   0.12487   0.95276   0.00000  Uiso   1.00
C501   C     0.17976   0.20847   0.95277   0.00000  Uiso   1.00
C502   C     0.15358   0.12486   0.54723   0.00000  Uiso   1.00
C503   C     0.15784   0.20865   0.59321   0.00000  Uiso   1.00
C504   C     0.17550   0.12468   0.90679   0.00000  Uiso   1.00
C505   C     0.17549   0.20866   0.90679   0.00000  Uiso   1.00
C506   C     0.15785   0.12467   0.59321   0.00000  Uiso   1.00
C507   C     0.16261   0.16666   0.61644   0.00000  Uiso   1.00
C508   C     0.17073   0.16667   0.88356   0.00000  Uiso   1.00
C509   C     0.16060   0.16666   0.52378   0.00000  Uiso   1.00
C510   C     0.17273   0.16667   0.97622   0.00000  Uiso   1.00
C511   C     0.29054   0.16668   0.74491   0.00000  Uiso   1.00
C512   C     0.04279   0.16665   0.75509   0.00000  Uiso   1.00
Cu513  Cu    0.16667   0.21355   0.75000   0.00000  Uiso   1.00
Cu514  Cu    0.16667   0.11978   0.75000   0.00000  Uiso   1.00
H515   H     0.15461   0.24129   0.61068   0.00000  Uiso   1.00
H516   H     0.17873   0.09205   0.88932   0.00000  Uiso   1.00
H517   H     0.17871   0.24130   0.88933   0.00000  Uiso   1.00
H518   H     0.15463   0.09204   0.61067   0.00000  Uiso   1.00
N519   N     0.16667   0.28402   0.75000   0.00000  Uiso   1.00
N520   N     0.16667   0.04931   0.75000   0.00000  Uiso   1.00
O521   O     0.10655   0.20625   0.75000   0.00000  Uiso   1.00
O522   O     0.22679   0.12709   0.75001   0.00000  Uiso   1.00
O523   O     0.22679   0.20625   0.75001   0.00000  Uiso   1.00
O524   O     0.10655   0.12709   0.75000   0.00000  Uiso   1.00
O525   O     0.16666   0.20626   0.68573   0.00000  Uiso   1.00
O526   O     0.16667   0.12707   0.81427   0.00000  Uiso   1.00
O527   O     0.16667   0.20626   0.81427   0.00000  Uiso   1.00
O528   O     0.16666   0.12707   0.68573   0.00000  Uiso   1.00
Cl529  Cl    0.10812   0.05400   0.68316   0.00000  Uiso   1.00
Cl530  Cl    0.22521   0.27933   0.81684   0.00000  Uiso   1.00
Cl531  Cl    0.22524   0.05403   0.81681   0.00000  Uiso   1.00
Cl532  Cl    0.10809   0.27930   0.68319   0.00000  Uiso   1.00
Cl533  Cl    0.12635   0.25585   0.52309   0.00000  Uiso   1.00
Cl534  Cl    0.20698   0.07749   0.97691   0.00000  Uiso   1.00
Cl535  Cl    0.20697   0.25587   0.97692   0.00000  Uiso   1.00
Cl536  Cl    0.12636   0.07746   0.52308   0.00000  Uiso   1.00
Cl537  Cl    0.04420   0.06959   0.76774   0.00000  Uiso   1.00
Cl538  Cl    0.28913   0.26374   0.73225   0.00000  Uiso   1.00
Cl539  Cl    0.28907   0.06967   0.73192   0.00000  Uiso   1.00
Cl540  Cl    0.04426   0.26367   0.76808   0.00000  Uiso   1.00
C541   C     0.42085   0.16666   0.75282   0.00000  Uiso   1.00
C542   C     0.57914   0.16667   0.74718   0.00000  Uiso   1.00
C543   C     0.49910   0.16667   0.66490   0.00000  Uiso   1.00
C544   C     0.50090   0.16667   0.83510   0.00000  Uiso   1.00
C545   C     0.47473   0.02472   0.72113   0.00000  Uiso   1.00
C546   C     0.52527   0.30861   0.77887   0.00000  Uiso   1.00
C547   C     0.52527   0.02473   0.77887   0.00000  Uiso   1.00
C548   C     0.47473   0.30860   0.72113   0.00000  Uiso   1.00
C549   C     0.35434   0.12403   0.75408   0.00000  Uiso   1.00
C550   C     0.64566   0.20930   0.74591   0.00000  Uiso   1.00
C551   C     0.64563   0.12405   0.74578   0.00000  Uiso   1.00
C552   C     0.35437   0.20928   0.75422   0.00000  Uiso   1.00
C553   C     0.48691   0.20846   0.54724   0.00000  Uiso   1.00
C554   C     0.51310   0.12487   0.95276   0.00000  Uiso   1.00
C555   C     0.51309   0.20847   0.95277   0.00000  Uiso   1.00
C556   C     0.48691   0.12486   0.54723   0.00000  Uiso   1.00
C557   C     0.49117   0.20865   0.59321   0.00000  Uiso   1.00
C558   C     0.50883   0.12468   0.90679   0.00000  Uiso   1.00
C559   C     0.50882   0.20866   0.90679   0.00000  Uiso   1.00
C560   C     0.49118   0.12467   0.59321   0.00000  Uiso   1.00
C561   C     0.49594   0.16666   0.61644   0.00000  Uiso   1.00
C562   C     0.50406   0.16667   0.88356   0.00000  Uiso   1.00
C563   C     0.49394   0.16666   0.52378   0.00000  Uiso   1.00
C564   C     0.50607   0.16667   0.97622   0.00000  Uiso   1.00
C565   C     0.62388   0.16668   0.74491   0.00000  Uiso   1.00
C566   C     0.37612   0.16665   0.75509   0.00000  Uiso   1.00
Cu567  Cu    0.50000   0.21355   0.75000   0.00000  Uiso   1.00
Cu568  Cu    0.50000   0.11978   0.75000   0.00000  Uiso   1.00
H569   H     0.48794   0.24129   0.61068   0.00000  Uiso   1.00
H570   H     0.51206   0.09205   0.88932   0.00000  Uiso   1.00
H571   H     0.51204   0.24130   0.88933   0.00000  Uiso   1.00
H572   H     0.48796   0.09204   0.61067   0.00000  Uiso   1.00
N573   N     0.50000   0.28402   0.75000   0.00000  Uiso   1.00
N574   N     0.50000   0.04931   0.75000   0.00000  Uiso   1.00
O575   O     0.43988   0.20625   0.75000   0.00000  Uiso   1.00
O576   O     0.56012   0.12709   0.75001   0.00000  Uiso   1.00
O577   O     0.56012   0.20625   0.75001   0.00000  Uiso   1.00
O578   O     0.43988   0.12709   0.75000   0.00000  Uiso   1.00
O579   O     0.50000   0.20626   0.68573   0.00000  Uiso   1.00
O580   O     0.50000   0.12707   0.81427   0.00000  Uiso   1.00
O581   O     0.50000   0.20626   0.81427   0.00000  Uiso   1.00
O582   O     0.50000   0.12707   0.68573   0.00000  Uiso   1.00
Cl583  Cl    0.44146   0.05400   0.68316   0.00000  Uiso   1.00
Cl584  Cl    0.55854   0.27933   0.81684   0.00000  Uiso   1.00
Cl585  Cl    0.55857   0.05403   0.81681   0.00000  Uiso   1.00
Cl586  Cl    0.44142   0.27930   0.68319   0.00000  Uiso   1.00
Cl587  Cl    0.45969   0.25585   0.52309   0.00000  Uiso   1.00
Cl588  Cl    0.54032   0.07749   0.97691   0.00000  Uiso   1.00
Cl589  Cl    0.54031   0.25587   0.97692   0.00000  Uiso   1.00
Cl590  Cl    0.45970   0.07746   0.52308   0.00000  Uiso   1.00
Cl591  Cl    0.37754   0.06959   0.76774   0.00000  Uiso   1.00
Cl592  Cl    0.62246   0.26374   0.73225   0.00000  Uiso   1.00
Cl593  Cl    0.62240   0.06967   0.73192   0.00000  Uiso   1.00
Cl594  Cl    0.37760   0.26367   0.76808   0.00000  Uiso   1.00
C595   C     0.75419   0.16666   0.75282   0.00000  Uiso   1.00
C596   C     0.91248   0.16667   0.74718   0.00000  Uiso   1.00
C597   C     0.83244   0.16667   0.66490   0.00000  Uiso   1.00
C598   C     0.83423   0.16667   0.83510   0.00000  Uiso   1.00
C599   C     0.80806   0.02472   0.72113   0.00000  Uiso   1.00
C600   C     0.85860   0.30861   0.77887   0.00000  Uiso   1.00
C601   C     0.85861   0.02473   0.77887   0.00000  Uiso   1.00
C602   C     0.80806   0.30860   0.72113   0.00000  Uiso   1.00
C603   C     0.68767   0.12403   0.75408   0.00000  Uiso   1.00
C604   C     0.97899   0.20930   0.74591   0.00000  Uiso   1.00
C605   C     0.97897   0.12405   0.74578   0.00000  Uiso   1.00
C606   C     0.68770   0.20928   0.75422   0.00000  Uiso   1.00
C607   C     0.82024   0.20846   0.54724   0.00000  Uiso   1.00
C608   C     0.84643   0.12487   0.95276   0.00000  Uiso   1.00
C609   C     0.84642   0.20847   0.95277   0.00000  Uiso   1.00
C610   C     0.82025   0.12486   0.54723   0.00000  Uiso   1.00
C611   C     0.82450   0.20865   0.59321   0.00000  Uiso   1.00
C612   C     0.84217   0.12468   0.90679   0.00000  Uiso   1.00
C613   C     0.84216   0.20866   0.90679   0.00000  Uiso   1.00
C614   C     0.82451   0.12467   0.59321   0.00000  Uiso   1.00
C615   C     0.82927   0.16666   0.61644   0.00000  Uiso   1.00
C616   C     0.83739   0.16667   0.88356   0.00000  Uiso   1.00
C617   C     0.82727   0.16666   0.52378   0.00000  Uiso   1.00
C618   C     0.83940   0.16667   0.97622   0.00000  Uiso   1.00
C619   C     0.95721   0.16668   0.74491   0.00000  Uiso   1.00
C620   C     0.70946   0.16665   0.75509   0.00000  Uiso   1.00
Cu621  Cu    0.83333   0.21355   0.75000   0.00000  Uiso   1.00
Cu622  Cu    0.83333   0.11978   0.75000   0.00000  Uiso   1.00
H623   H     0.82128   0.24129   0.61068   0.00000  Uiso   1.00
H624   H     0.84539   0.09205   0.88932   0.00000  Uiso   1.00
H625   H     0.84537   0.24130   0.88933   0.00000  Uiso   1.00
H626   H     0.82129   0.09204   0.61067   0.00000  Uiso   1.00
N627   N     0.83333   0.28402   0.75000   0.00000  Uiso   1.00
N628   N     0.83333   0.04931   0.75000   0.00000  Uiso   1.00
O629   O     0.77321   0.20625   0.75000   0.00000  Uiso   1.00
O630   O     0.89345   0.12709   0.75001   0.00000  Uiso   1.00
O631   O     0.89345   0.20625   0.75001   0.00000  Uiso   1.00
O632   O     0.77321   0.12709   0.75000   0.00000  Uiso   1.00
O633   O     0.83333   0.20626   0.68573   0.00000  Uiso   1.00
O634   O     0.83334   0.12707   0.81427   0.00000  Uiso   1.00
O635   O     0.83334   0.20626   0.81427   0.00000  Uiso   1.00
O636   O     0.83333   0.12707   0.68573   0.00000  Uiso   1.00
Cl637  Cl    0.77479   0.05400   0.68316   0.00000  Uiso   1.00
Cl638  Cl    0.89188   0.27933   0.81684   0.00000  Uiso   1.00
Cl639  Cl    0.89191   0.05403   0.81681   0.00000  Uiso   1.00
Cl640  Cl    0.77476   0.27930   0.68319   0.00000  Uiso   1.00
Cl641  Cl    0.79302   0.25585   0.52309   0.00000  Uiso   1.00
Cl642  Cl    0.87365   0.07749   0.97691   0.00000  Uiso   1.00
Cl643  Cl    0.87364   0.25587   0.97692   0.00000  Uiso   1.00
Cl644  Cl    0.79303   0.07746   0.52308   0.00000  Uiso   1.00
Cl645  Cl    0.71087   0.06959   0.76774   0.00000  Uiso   1.00
Cl646  Cl    0.95580   0.26374   0.73225   0.00000  Uiso   1.00
Cl647  Cl    0.95574   0.06967   0.73192   0.00000  Uiso   1.00
Cl648  Cl    0.71093   0.26367   0.76808   0.00000  Uiso   1.00
C649   C     0.08752   0.50000   0.75282   0.00000  Uiso   1.00
C650   C     0.24581   0.50000   0.74718   0.00000  Uiso   1.00
C651   C     0.16577   0.50000   0.66490   0.00000  Uiso   1.00
C652   C     0.16756   0.50000   0.83510   0.00000  Uiso   1.00
C653   C     0.14140   0.35805   0.72113   0.00000  Uiso   1.00
C654   C     0.19194   0.64195   0.77887   0.00000  Uiso   1.00
C655   C     0.19194   0.35807   0.77887   0.00000  Uiso   1.00
C656   C     0.14139   0.64193   0.72113   0.00000  Uiso   1.00
C657   C     0.02101   0.45736   0.75408   0.00000  Uiso   1.00
C658   C     0.31233   0.54264   0.74591   0.00000  Uiso   1.00
C659   C     0.31230   0.45738   0.74578   0.00000  Uiso   1.00
C660   C     0.02103   0.54262   0.75422   0.00000  Uiso   1.00
C661   C     0.15357   0.54180   0.54724   0.00000  Uiso   1.00
C662   C     0.17976   0.45820   0.95276   0.00000  Uiso   1.00
C663   C     0.17976   0.54181   0.95277   0.00000  Uiso   1.00
C664   C     0.15358   0.45819   0.54723   0.00000  Uiso   1.00
C665   C     0.15784   0.54199   0.59321   0.00000  Uiso   1.00
C666   C     0.17550   0.45801   0.90679   0.00000  Uiso   1.00
C667   C     0.17549   0.54199   0.90679   0.00000  Uiso   1.00
C668   C     0.15785   0.45801   0.59321   0.00000  Uiso   1.00
C669   C     0.16261   0.50000   0.61644   0.00000  Uiso   1.00
C670   C     0.17073   0.50000   0.88356   0.00000  Uiso   1.00
C671   C     0.16060   0.50000   0.52378   0.00000  Uiso   1.00
C672   C     0.17273   0.50000   0.97622   0.00000  Uiso   1.00
C673   C     0.29054   0.50001   0.74491   0.00000  Uiso   1.00
C674   C     0.04279   0.49999   0.75509   0.00000  Uiso   1.00
Cu675  Cu    0.16667   0.54689   0.75000   0.00000  Uiso   1.00
Cu676  Cu    0.16667   0.45311   0.75000   0.00000  Uiso   1.00
H677   H     0.15461   0.57462   0.61068   0.00000  Uiso   1.00
H678   H     0.17873   0.42538   0.88932   0.00000  Uiso   1.00
H679   H     0.17871   0.57463   0.88933   0.00000  Uiso   1.00
H680   H     0.15463   0.42537   0.61067   0.00000  Uiso   1.00
N681   N     0.16667   0.61736   0.75000   0.00000  Uiso   1.00
N682   N     0.16667   0.38264   0.75000   0.00000  Uiso   1.00
O683   O     0.10655   0.53958   0.75000   0.00000  Uiso   1.00
O684   O     0.22679   0.46042   0.75001   0.00000  Uiso   1.00
O685   O     0.22679   0.53958   0.75001   0.00000  Uiso   1.00
O686   O     0.10655   0.46042   0.75000   0.00000  Uiso   1.00
O687   O     0.16666   0.53959   0.68573   0.00000  Uiso   1.00
O688   O     0.16667   0.46041   0.81427   0.00000  Uiso   1.00
O689   O     0.16667   0.53959   0.81427   0.00000  Uiso   1.00
O690   O     0.16666   0.46041   0.68573   0.00000  Uiso   1.00
Cl691  Cl    0.10812   0.38733   0.68316   0.00000  Uiso   1.00
Cl692  Cl    0.22521   0.61266   0.81684   0.00000  Uiso   1.00
Cl693  Cl    0.22524   0.38736   0.81681   0.00000  Uiso   1.00
Cl694  Cl    0.10809   0.61264   0.68319   0.00000  Uiso   1.00
Cl695  Cl    0.12635   0.58918   0.52309   0.00000  Uiso   1.00
Cl696  Cl    0.20698   0.41082   0.97691   0.00000  Uiso   1.00
Cl697  Cl    0.20697   0.58921   0.97692   0.00000  Uiso   1.00
Cl698  Cl    0.12636   0.41079   0.52308   0.00000  Uiso   1.00
Cl699  Cl    0.04420   0.40292   0.76774   0.00000  Uiso   1.00
Cl700  Cl    0.28913   0.59708   0.73225   0.00000  Uiso   1.00
Cl701  Cl    0.28907   0.40300   0.73192   0.00000  Uiso   1.00
Cl702  Cl    0.04426   0.59700   0.76808   0.00000  Uiso   1.00
C703   C     0.42085   0.50000   0.75282   0.00000  Uiso   1.00
C704   C     0.57914   0.50000   0.74718   0.00000  Uiso   1.00
C705   C     0.49910   0.50000   0.66490   0.00000  Uiso   1.00
C706   C     0.50090   0.50000   0.83510   0.00000  Uiso   1.00
C707   C     0.47473   0.35805   0.72113   0.00000  Uiso   1.00
C708   C     0.52527   0.64195   0.77887   0.00000  Uiso   1.00
C709   C     0.52527   0.35807   0.77887   0.00000  Uiso   1.00
C710   C     0.47473   0.64193   0.72113   0.00000  Uiso   1.00
C711   C     0.35434   0.45736   0.75408   0.00000  Uiso   1.00
C712   C     0.64566   0.54264   0.74591   0.00000  Uiso   1.00
C713   C     0.64563   0.45738   0.74578   0.00000  Uiso   1.00
C714   C     0.35437   0.54262   0.75422   0.00000  Uiso   1.00
C715   C     0.48691   0.54180   0.54724   0.00000  Uiso   1.00
C716   C     0.51310   0.45820   0.95276   0.00000  Uiso   1.00
C717   C     0.51309   0.54181   0.95277   0.00000  Uiso   1.00
C718   C     0.48691   0.45819   0.54723   0.00000  Uiso   1.00
C719   C     0.49117   0.54199   0.59321   0.00000  Uiso   1.00
C720   C     0.50883   0.45801   0.90679   0.00000  Uiso   1.00
C721   C     0.50882   0.54199   0.90679   0.00000  Uiso   1.00
C722   C     0.49118   0.45801   0.59321   0.00000  Uiso   1.00
C723   C     0.49594   0.50000   0.61644   0.00000  Uiso   1.00
C724   C     0.50406   0.50000   0.88356   0.00000  Uiso   1.00
C725   C     0.49394   0.50000   0.52378   0.00000  Uiso   1.00
C726   C     0.50607   0.50000   0.97622   0.00000  Uiso   1.00
C727   C     0.62388   0.50001   0.74491   0.00000  Uiso   1.00
C728   C     0.37612   0.49999   0.75509   0.00000  Uiso   1.00
Cu729  Cu    0.50000   0.54689   0.75000   0.00000  Uiso   1.00
Cu730  Cu    0.50000   0.45311   0.75000   0.00000  Uiso   1.00
H731   H     0.48794   0.57462   0.61068   0.00000  Uiso   1.00
H732   H     0.51206   0.42538   0.88932   0.00000  Uiso   1.00
H733   H     0.51204   0.57463   0.88933   0.00000  Uiso   1.00
H734   H     0.48796   0.42537   0.61067   0.00000  Uiso   1.00
N735   N     0.50000   0.61736   0.75000   0.00000  Uiso   1.00
N736   N     0.50000   0.38264   0.75000   0.00000  Uiso   1.00
O737   O     0.43988   0.53958   0.75000   0.00000  Uiso   1.00
O738   O     0.56012   0.46042   0.75001   0.00000  Uiso   1.00
O739   O     0.56012   0.53958   0.75001   0.00000  Uiso   1.00
O740   O     0.43988   0.46042   0.75000   0.00000  Uiso   1.00
O741   O     0.50000   0.53959   0.68573   0.00000  Uiso   1.00
O742   O     0.50000   0.46041   0.81427   0.00000  Uiso   1.00
O743   O     0.50000   0.53959   0.81427   0.00000  Uiso   1.00
O744   O     0.50000   0.46041   0.68573   0.00000  Uiso   1.00
Cl745  Cl    0.44146   0.38733   0.68316   0.00000  Uiso   1.00
Cl746  Cl    0.55854   0.61266   0.81684   0.00000  Uiso   1.00
Cl747  Cl    0.55857   0.38736   0.81681   0.00000  Uiso   1.00
Cl748  Cl    0.44142   0.61264   0.68319   0.00000  Uiso   1.00
Cl749  Cl    0.45969   0.58918   0.52309   0.00000  Uiso   1.00
Cl750  Cl    0.54032   0.41082   0.97691   0.00000  Uiso   1.00
Cl751  Cl    0.54031   0.58921   0.97692   0.00000  Uiso   1.00
Cl752  Cl    0.45970   0.41079   0.52308   0.00000  Uiso   1.00
Cl753  Cl    0.37754   0.40292   0.76774   0.00000  Uiso   1.00
Cl754  Cl    0.62246   0.59708   0.73225   0.00000  Uiso   1.00
Cl755  Cl    0.62240   0.40300   0.73192   0.00000  Uiso   1.00
Cl756  Cl    0.37760   0.59700   0.76808   0.00000  Uiso   1.00
C757   C     0.75419   0.50000   0.75282   0.00000  Uiso   1.00
C758   C     0.91248   0.50000   0.74718   0.00000  Uiso   1.00
C759   C     0.83244   0.50000   0.66490   0.00000  Uiso   1.00
C760   C     0.83423   0.50000   0.83510   0.00000  Uiso   1.00
C761   C     0.80806   0.35805   0.72113   0.00000  Uiso   1.00
C762   C     0.85860   0.64195   0.77887   0.00000  Uiso   1.00
C763   C     0.85861   0.35807   0.77887   0.00000  Uiso   1.00
C764   C     0.80806   0.64193   0.72113   0.00000  Uiso   1.00
C765   C     0.68767   0.45736   0.75408   0.00000  Uiso   1.00
C766   C     0.97899   0.54264   0.74591   0.00000  Uiso   1.00
C767   C     0.97897   0.45738   0.74578   0.00000  Uiso   1.00
C768   C     0.68770   0.54262   0.75422   0.00000  Uiso   1.00
C769   C     0.82024   0.54180   0.54724   0.00000  Uiso   1.00
C770   C     0.84643   0.45820   0.95276   0.00000  Uiso   1.00
C771   C     0.84642   0.54181   0.95277   0.00000  Uiso   1.00
C772   C     0.82025   0.45819   0.54723   0.00000  Uiso   1.00
C773   C     0.82450   0.54199   0.59321   0.00000  Uiso   1.00
C774   C     0.84217   0.45801   0.90679   0.00000  Uiso   1.00
C775   C     0.84216   0.54199   0.90679   0.00000  Uiso   1.00
C776   C     0.82451   0.45801   0.59321   0.00000  Uiso   1.00
C777   C     0.82927   0.50000   0.61644   0.00000  Uiso   1.00
C778   C     0.83739   0.50000   0.88356   0.00000  Uiso   1.00
C779   C     0.82727   0.50000   0.52378   0.00000  Uiso   1.00
C780   C     0.83940   0.50000   0.97622   0.00000  Uiso   1.00
C781   C     0.95721   0.50001   0.74491   0.00000  Uiso   1.00
C782   C     0.70946   0.49999   0.75509   0.00000  Uiso   1.00
Cu783  Cu    0.83333   0.54689   0.75000   0.00000  Uiso   1.00
Cu784  Cu    0.83333   0.45311   0.75000   0.00000  Uiso   1.00
H785   H     0.82128   0.57462   0.61068   0.00000  Uiso   1.00
H786   H     0.84539   0.42538   0.88932   0.00000  Uiso   1.00
H787   H     0.84537   0.57463   0.88933   0.00000  Uiso   1.00
H788   H     0.82129   0.42537   0.61067   0.00000  Uiso   1.00
N789   N     0.83333   0.61736   0.75000   0.00000  Uiso   1.00
N790   N     0.83333   0.38264   0.75000   0.00000  Uiso   1.00
O791   O     0.77321   0.53958   0.75000   0.00000  Uiso   1.00
O792   O     0.89345   0.46042   0.75001   0.00000  Uiso   1.00
O793   O     0.89345   0.53958   0.75001   0.00000  Uiso   1.00
O794   O     0.77321   0.46042   0.75000   0.00000  Uiso   1.00
O795   O     0.83333   0.53959   0.68573   0.00000  Uiso   1.00
O796   O     0.83334   0.46041   0.81427   0.00000  Uiso   1.00
O797   O     0.83334   0.53959   0.81427   0.00000  Uiso   1.00
O798   O     0.83333   0.46041   0.68573   0.00000  Uiso   1.00
Cl799  Cl    0.77479   0.38733   0.68316   0.00000  Uiso   1.00
Cl800  Cl    0.89188   0.61266   0.81684   0.00000  Uiso   1.00
Cl801  Cl    0.89191   0.38736   0.81681   0.00000  Uiso   1.00
Cl802  Cl    0.77476   0.61264   0.68319   0.00000  Uiso   1.00
Cl803  Cl    0.79302   0.58918   0.52309   0.00000  Uiso   1.00
Cl804  Cl    0.87365   0.41082   0.97691   0.00000  Uiso   1.00
Cl805  Cl    0.87364   0.58921   0.97692   0.00000  Uiso   1.00
Cl806  Cl    0.79303   0.41079   0.52308   0.00000  Uiso   1.00
Cl807  Cl    0.71087   0.40292   0.76774   0.00000  Uiso   1.00
Cl808  Cl    0.95580   0.59708   0.73225   0.00000  Uiso   1.00
Cl809  Cl    0.95574   0.40300   0.73192   0.00000  Uiso   1.00
Cl810  Cl    0.71093   0.59700   0.76808   0.00000  Uiso   1.00
C811   C     0.08752   0.83333   0.75282   0.00000  Uiso   1.00
C812   C     0.24581   0.83334   0.74718   0.00000  Uiso   1.00
C813   C     0.16577   0.83333   0.66490   0.00000  Uiso   1.00
C814   C     0.16756   0.83333   0.83510   0.00000  Uiso   1.00
C815   C     0.14140   0.69139   0.72113   0.00000  Uiso   1.00
C816   C     0.19194   0.97528   0.77887   0.00000  Uiso   1.00
C817   C     0.19194   0.69140   0.77887   0.00000  Uiso   1.00
C818   C     0.14139   0.97527   0.72113   0.00000  Uiso   1.00
C819   C     0.02101   0.79070   0.75408   0.00000  Uiso   1.00
C820   C     0.31233   0.87597   0.74591   0.00000  Uiso   1.00
C821   C     0.31230   0.79072   0.74578   0.00000  Uiso   1.00
C822   C     0.02103   0.87595   0.75422   0.00000  Uiso   1.00
C823   C     0.15357   0.87513   0.54724   0.00000  Uiso   1.00
C824   C     0.17976   0.79154   0.95276   0.00000  Uiso   1.00
C825   C     0.17976   0.87514   0.95277   0.00000  Uiso   1.00
C826   C     0.15358   0.79153   0.54723   0.00000  Uiso   1.00
C827   C     0.15784   0.87532   0.59321   0.00000  Uiso   1.00
C828   C     0.17550   0.79135   0.90679   0.00000  Uiso   1.00
C829   C     0.17549   0.87533   0.90679   0.00000  Uiso   1.00
C830   C     0.15785   0.79134   0.59321   0.00000  Uiso   1.00
C831   C     0.16261   0.83333   0.61644   0.00000  Uiso   1.00
C832   C     0.17073   0.83334   0.88356   0.00000  Uiso   1.00
C833   C     0.16060   0.83333   0.52378   0.00000  Uiso   1.00
C834   C     0.17273   0.83334   0.97622   0.00000  Uiso   1.00
C835   C     0.29054   0.83334   0.74491   0.00000  Uiso   1.00
C836   C     0.04279   0.83332   0.75509   0.00000  Uiso   1.00
Cu837  Cu    0.16667   0.88022   0.75000   0.00000  Uiso   1.00
Cu838  Cu    0.16667   0.78645   0.75000   0.00000  Uiso   1.00
H839   H     0.15461   0.90795   0.61068   0.00000  Uiso   1.00
H840   H     0.17873   0.75871   0.88932   0.00000  Uiso   1.00
H841   H     0.17871   0.90796   0.88933   0.00000  Uiso   1.00
H842   H     0.15463   0.75870   0.61067   0.00000  Uiso   1.00
N843   N     0.16667   0.95069   0.75000   0.00000  Uiso   1.00
N844   N     0.16667   0.71598   0.75000   0.00000  Uiso   1.00
O845   O     0.10655   0.87291   0.75000   0.00000  Uiso   1.00
O846   O     0.22679   0.79375   0.75001   0.00000  Uiso   1.00
O847   O     0.22679   0.87291   0.75001   0.00000  Uiso   1.00
O848   O     0.10655   0.79375   0.75000   0.00000  Uiso   1.00
O849   O     0.16666   0.87293   0.68573   0.00000  Uiso   1.00
O850   O     0.16667   0.79374   0.81427   0.00000  Uiso   1.00
O851   O     0.16667   0.87293   0.81427   0.00000  Uiso   1.00
O852   O     0.16666   0.79374   0.68573   0.00000  Uiso   1.00
Cl853  Cl    0.10812   0.72067   0.68316   0.00000  Uiso   1.00
Cl854  Cl    0.22521   0.94600   0.81684   0.00000  Uiso   1.00
Cl855  Cl    0.22524   0.72070   0.81681   0.00000  Uiso   1.00
Cl856  Cl    0.10809   0.94597   0.68319   0.00000  Uiso   1.00
Cl857  Cl    0.12635   0.92251   0.52309   0.00000  Uiso   1.00
Cl858  Cl    0.20698   0.74415   0.97691   0.00000  Uiso   1.00
Cl859  Cl    0.20697   0.92254   0.97692   0.00000  Uiso   1.00
Cl860  Cl    0.12636   0.74413   0.52308   0.00000  Uiso   1.00
Cl861  Cl    0.04420   0.73625   0.76774   0.00000  Uiso   1.00
Cl862  Cl    0.28913   0.93041   0.73225   0.00000  Uiso   1.00
Cl863  Cl    0.28907   0.73633   0.73192   0.00000  Uiso   1.00
Cl864  Cl    0.04426   0.93033   0.76808   0.00000  Uiso   1.00
C865   C     0.42085   0.83333   0.75282   0.00000  Uiso   1.00
C866   C     0.57914   0.83334   0.74718   0.00000  Uiso   1.00
C867   C     0.49910   0.83333   0.66490   0.00000  Uiso   1.00
C868   C     0.50090   0.83333   0.83510   0.00000  Uiso   1.00
C869   C     0.47473   0.69139   0.72113   0.00000  Uiso   1.00
C870   C     0.52527   0.97528   0.77887   0.00000  Uiso   1.00
C871   C     0.52527   0.69140   0.77887   0.00000  Uiso   1.00
C872   C     0.47473   0.97527   0.72113   0.00000  Uiso   1.00
C873   C     0.35434   0.79070   0.75408   0.00000  Uiso   1.00
C874   C     0.64566   0.87597   0.74591   0.00000  Uiso   1.00
C875   C     0.64563   0.79072   0.74578   0.00000  Uiso   1.00
C876   C     0.35437   0.87595   0.75422   0.00000  Uiso   1.00
C877   C     0.48691   0.87513   0.54724   0.00000  Uiso   1.00
C878   C     0.51310   0.79154   0.95276   0.00000  Uiso   1.00
C879   C     0.51309   0.87514   0.95277   0.00000  Uiso   1.00
C880   C     0.48691   0.79153   0.54723   0.00000  Uiso   1.00
C881   C     0.49117   0.87532   0.59321   0.00000  Uiso   1.00
C882   C     0.50883   0.79135   0.90679   0.00000  Uiso   1.00
C883   C     0.50882   0.87533   0.90679   0.00000  Uiso   1.00
C884   C     0.49118   0.79134   0.59321   0.00000  Uiso   1.00
C885   C     0.49594   0.83333   0.61644   0.00000  Uiso   1.00
C886   C     0.50406   0.83334   0.88356   0.00000  Uiso   1.00
C887   C     0.49394   0.83333   0.52378   0.00000  Uiso   1.00
C888   C     0.50607   0.83334   0.97622   0.00000  Uiso   1.00
C889   C     0.62388   0.83334   0.74491   0.00000  Uiso   1.00
C890   C     0.37612   0.83332   0.75509   0.00000  Uiso   1.00
Cu891  Cu    0.50000   0.88022   0.75000   0.00000  Uiso   1.00
Cu892  Cu    0.50000   0.78645   0.75000   0.00000  Uiso   1.00
H893   H     0.48794   0.90795   0.61068   0.00000  Uiso   1.00
H894   H     0.51206   0.75871   0.88932   0.00000  Uiso   1.00
H895   H     0.51204   0.90796   0.88933   0.00000  Uiso   1.00
H896   H     0.48796   0.75870   0.61067   0.00000  Uiso   1.00
N897   N     0.50000   0.95069   0.75000   0.00000  Uiso   1.00
N898   N     0.50000   0.71598   0.75000   0.00000  Uiso   1.00
O899   O     0.43988   0.87291   0.75000   0.00000  Uiso   1.00
O900   O     0.56012   0.79375   0.75001   0.00000  Uiso   1.00
O901   O     0.56012   0.87291   0.75001   0.00000  Uiso   1.00
O902   O     0.43988   0.79375   0.75000   0.00000  Uiso   1.00
O903   O     0.50000   0.87293   0.68573   0.00000  Uiso   1.00
O904   O     0.50000   0.79374   0.81427   0.00000  Uiso   1.00
O905   O     0.50000   0.87293   0.81427   0.00000  Uiso   1.00
O906   O     0.50000   0.79374   0.68573   0.00000  Uiso   1.00
Cl907  Cl    0.44146   0.72067   0.68316   0.00000  Uiso   1.00
Cl908  Cl    0.55854   0.94600   0.81684   0.00000  Uiso   1.00
Cl909  Cl    0.55857   0.72070   0.81681   0.00000  Uiso   1.00
Cl910  Cl    0.44142   0.94597   0.68319   0.00000  Uiso   1.00
Cl911  Cl    0.45969   0.92251   0.52309   0.00000  Uiso   1.00
Cl912  Cl    0.54032   0.74415   0.97691   0.00000  Uiso   1.00
Cl913  Cl    0.54031   0.92254   0.97692   0.00000  Uiso   1.00
Cl914  Cl    0.45970   0.74413   0.52308   0.00000  Uiso   1.00
Cl915  Cl    0.37754   0.73625   0.76774   0.00000  Uiso   1.00
Cl916  Cl    0.62246   0.93041   0.73225   0.00000  Uiso   1.00
Cl917  Cl    0.62240   0.73633   0.73192   0.00000  Uiso   1.00
Cl918  Cl    0.37760   0.93033   0.76808   0.00000  Uiso   1.00
C919   C     0.75419   0.83333   0.75282   0.00000  Uiso   1.00
C920   C     0.91248   0.83334   0.74718   0.00000  Uiso   1.00
C921   C     0.83244   0.83333   0.66490   0.00000  Uiso   1.00
C922   C     0.83423   0.83333   0.83510   0.00000  Uiso   1.00
C923   C     0.80806   0.69139   0.72113   0.00000  Uiso   1.00
C924   C     0.85860   0.97528   0.77887   0.00000  Uiso   1.00
C925   C     0.85861   0.69140   0.77887   0.00000  Uiso   1.00
C926   C     0.80806   0.97527   0.72113   0.00000  Uiso   1.00
C927   C     0.68767   0.79070   0.75408   0.00000  Uiso   1.00
C928   C     0.97899   0.87597   0.74591   0.00000  Uiso   1.00
C929   C     0.97897   0.79072   0.74578   0.00000  Uiso   1.00
C930   C     0.68770   0.87595   0.75422   0.00000  Uiso   1.00
C931   C     0.82024   0.87513   0.54724   0.00000  Uiso   1.00
C932   C     0.84643   0.79154   0.95276   0.00000  Uiso   1.00
C933   C     0.84642   0.87514   0.95277   0.00000  Uiso   1.00
C934   C     0.82025   0.79153   0.54723   0.00000  Uiso   1.00
C935   C     0.82450   0.87532   0.59321   0.00000  Uiso   1.00
C936   C     0.84217   0.79135   0.90679   0.00000  Uiso   1.00
C937   C     0.84216   0.87533   0.90679   0.00000  Uiso   1.00
C938   C     0.82451   0.79134   0.59321   0.00000  Uiso   1.00
C939   C     0.82927   0.83333   0.61644   0.00000  Uiso   1.00
C940   C     0.83739   0.83334   0.88356   0.00000  Uiso   1.00
C941   C     0.82727   0.83333   0.52378   0.00000  Uiso   1.00
C942   C     0.83940   0.83334   0.97622   0.00000  Uiso   1.00
C943   C     0.95721   0.83334   0.74491   0.00000  Uiso   1.00
C944   C     0.70946   0.83332   0.75509   0.00000  Uiso   1.00
Cu945  Cu    0.83333   0.88022   0.75000   0.00000  Uiso   1.00
Cu946  Cu    0.83333   0.78645   0.75000   0.00000  Uiso   1.00
H947   H     0.82128   0.90795   0.61068   0.00000  Uiso   1.00
H948   H     0.84539   0.75871   0.88932   0.00000  Uiso   1.00
H949   H     0.84537   0.90796   0.88933   0.00000  Uiso   1.00
H950   H     0.82129   0.75870   0.61067   0.00000  Uiso   1.00
N951   N     0.83333   0.95069   0.75000   0.00000  Uiso   1.00
N952   N     0.83333   0.71598   0.75000   0.00000  Uiso   1.00
O953   O     0.77321   0.87291   0.75000   0.00000  Uiso   1.00
O954   O     0.89345   0.79375   0.75001   0.00000  Uiso   1.00
O955   O     0.89345   0.87291   0.75001   0.00000  Uiso   1.00
O956   O     0.77321   0.79375   0.75000   0.00000  Uiso   1.00
O957   O     0.83333   0.87293   0.68573   0.00000  Uiso   1.00
O958   O     0.83334   0.79374   0.81427   0.00000  Uiso   1.00
O959   O     0.83334   0.87293   0.81427   0.00000  Uiso   1.00
O960   O     0.83333   0.79374   0.68573   0.00000  Uiso   1.00
Cl961  Cl    0.77479   0.72067   0.68316   0.00000  Uiso   1.00
Cl962  Cl    0.89188   0.94600   0.81684   0.00000  Uiso   1.00
Cl963  Cl    0.89191   0.72070   0.81681   0.00000  Uiso   1.00
Cl964  Cl    0.77476   0.94597   0.68319   0.00000  Uiso   1.00
Cl965  Cl    0.79302   0.92251   0.52309   0.00000  Uiso   1.00
Cl966  Cl    0.87365   0.74415   0.97691   0.00000  Uiso   1.00
Cl967  Cl    0.87364   0.92254   0.97692   0.00000  Uiso   1.00
Cl968  Cl    0.79303   0.74413   0.52308   0.00000  Uiso   1.00
Cl969  Cl    0.71087   0.73625   0.76774   0.00000  Uiso   1.00
Cl970  Cl    0.95580   0.93041   0.73225   0.00000  Uiso   1.00
Cl971  Cl    0.95574   0.73633   0.73192   0.00000  Uiso   1.00
Cl972  Cl    0.71093   0.93033   0.76808   0.00000  Uiso   1.00
loop_
_geom_bond_atom_site_label_1
_geom_bond_atom_site_label_2
_geom_bond_distance
_geom_bond_site_symmetry_2
_ccdc_geom_bond_type
C1     O35     1.300   .     A
C1     O38     1.300   .     A
C1     C26     1.473   .     S
C2     O37     1.300   .     A
C2     C25     1.473   .     S
C2     O36     1.300   .     A
C3     O42     1.298   .     A
C3     C21     1.466   .     S
C3     O39     1.298   .     A
C4     C22     1.466   .     S
C4     O41     1.298   .     A
C4     O40     1.298   .     A
C5     N34     1.373   .     A
C5     Cl43    1.763   .     S
C5     C332    1.418   1_545 S
C6     N33     1.373   .     A
C6     Cl44    1.763   .     S
C6     C169    1.418   .     S
C7     Cl45    1.763   .     S
C7     N34     1.373   .     A
C7     C330    1.418   1_545 S
C8     N33     1.373   .     A
C8     Cl46    1.763   .     S
C8     C167    1.418   .     S
C9     C26     1.416   .     A
C9     Cl51    1.778   .     S
C9     C119    1.392   1_455 S
C10    Cl52    1.778   .     S
C10    C25     1.416   .     A
C10    C66     1.392   .     S
C11    Cl53    1.778   .     S
C11    C25     1.415   .     A
C11    C63     1.392   .     S
C12    Cl54    1.778   .     S
C12    C26     1.415   .     A
C12    C118    1.392   1_455 S
C13    C17     1.392   .     A
C13    C23     1.417   .     A
C13    Cl47    1.767   .     S
C14    C18     1.392   .     A
C14    C24     1.417   .     A
C14    Cl48    1.767   .     S
C15    C19     1.392   .     A
C15    C24     1.417   .     A
C15    Cl49    1.767   .     S
C16    C23     1.417   .     A
C16    C20     1.392   .     A
C16    Cl50    1.767   .     S
C17    H29     1.082   .     S
C17    C21     1.400   .     A
C18    H30     1.082   .     S
C18    C22     1.400   .     A
C19    H31     1.082   .     S
C19    C22     1.400   .     A
C20    C21     1.400   .     A
C20    H32     1.082   .     S
C23    C510    1.510   1_554 S
C24    C509    1.510   .     S
Cu27   N33     2.021   .     S
Cu27   O37     1.985   .     S
Cu27   O39     1.956   .     S
Cu27   Cu28    2.689   .     S
Cu27   O35     1.984   .     S
Cu27   O41     1.956   .     S
Cu28   O38     1.985   .     S
Cu28   N34     2.021   .     S
Cu28   O42     1.956   .     S
Cu28   O40     1.956   .     S
Cu28   O36     1.984   .     S
C55    O89     1.300   .     A
C55    O92     1.300   .     A
C55    C80     1.473   .     S
C56    O91     1.300   .     A
C56    C79     1.473   .     S
C56    O90     1.300   .     A
C57    O96     1.298   .     A
C57    C75     1.466   .     S
C57    O93     1.298   .     A
C58    C76     1.466   .     S
C58    O95     1.298   .     A
C58    O94     1.298   .     A
C59    N88     1.373   .     A
C59    Cl97    1.763   .     S
C59    C386    1.418   1_545 S
C60    N87     1.373   .     A
C60    Cl98    1.763   .     S
C60    C223    1.418   .     S
C61    Cl99    1.763   .     S
C61    N88     1.373   .     A
C61    C384    1.418   1_545 S
C62    N87     1.373   .     A
C62    Cl100   1.763   .     S
C62    C221    1.418   .     S
C63    C80     1.416   .     A
C63    Cl105   1.778   .     S
C64    Cl106   1.778   .     S
C64    C79     1.416   .     A
C64    C120    1.392   .     S
C65    Cl107   1.778   .     S
C65    C79     1.415   .     A
C65    C117    1.392   .     S
C66    Cl108   1.778   .     S
C66    C80     1.415   .     A
C67    C71     1.392   .     A
C67    C77     1.417   .     A
C67    Cl101   1.767   .     S
C68    C72     1.392   .     A
C68    C78     1.417   .     A
C68    Cl102   1.767   .     S
C69    C73     1.392   .     A
C69    C78     1.417   .     A
C69    Cl103   1.767   .     S
C70    C77     1.417   .     A
C70    C74     1.392   .     A
C70    Cl104   1.767   .     S
C71    H83     1.082   .     S
C71    C75     1.400   .     A
C72    H84     1.082   .     S
C72    C76     1.400   .     A
C73    H85     1.082   .     S
C73    C76     1.400   .     A
C74    C75     1.400   .     A
C74    H86     1.082   .     S
C77    C564    1.510   1_554 S
C78    C563    1.510   .     S
Cu81   N87     2.021   .     S
Cu81   O91     1.985   .     S
Cu81   O93     1.956   .     S
Cu81   Cu82    2.689   .     S
Cu81   O89     1.984   .     S
Cu81   O95     1.956   .     S
Cu82   O92     1.985   .     S
Cu82   N88     2.021   .     S
Cu82   O96     1.956   .     S
Cu82   O94     1.956   .     S
Cu82   O90     1.984   .     S
C109   O143    1.300   .     A
C109   O146    1.300   .     A
C109   C134    1.473   .     S
C110   O145    1.300   .     A
C110   C133    1.473   .     S
C110   O144    1.300   .     A
C111   O150    1.298   .     A
C111   C129    1.466   .     S
C111   O147    1.298   .     A
C112   C130    1.466   .     S
C112   O149    1.298   .     A
C112   O148    1.298   .     A
C113   N142    1.373   .     A
C113   Cl151   1.763   .     S
C113   C440    1.418   1_545 S
C114   N141    1.373   .     A
C114   Cl152   1.763   .     S
C114   C277    1.418   .     S
C115   Cl153   1.763   .     S
C115   N142    1.373   .     A
C115   C438    1.418   1_545 S
C116   N141    1.373   .     A
C116   Cl154   1.763   .     S
C116   C275    1.418   .     S
C117   C134    1.416   .     A
C117   Cl159   1.778   .     S
C118   Cl160   1.778   .     S
C118   C133    1.416   .     A
C118   C12     1.392   1_655 S
C119   Cl161   1.778   .     S
C119   C133    1.415   .     A
C119   C9      1.392   1_655 S
C120   Cl162   1.778   .     S
C120   C134    1.415   .     A
C121   C125    1.392   .     A
C121   C131    1.417   .     A
C121   Cl155   1.767   .     S
C122   C126    1.392   .     A
C122   C132    1.417   .     A
C122   Cl156   1.767   .     S
C123   C127    1.392   .     A
C123   C132    1.417   .     A
C123   Cl157   1.767   .     S
C124   C131    1.417   .     A
C124   C128    1.392   .     A
C124   Cl158   1.767   .     S
C125   H137    1.082   .     S
C125   C129    1.400   .     A
C126   H138    1.082   .     S
C126   C130    1.400   .     A
C127   H139    1.082   .     S
C127   C130    1.400   .     A
C128   C129    1.400   .     A
C128   H140    1.082   .     S
C131   C618    1.510   1_554 S
C132   C617    1.510   .     S
Cu135  N141    2.021   .     S
Cu135  O145    1.985   .     S
Cu135  O147    1.956   .     S
Cu135  Cu136   2.689   .     S
Cu135  O143    1.984   .     S
Cu135  O149    1.956   .     S
Cu136  O146    1.985   .     S
Cu136  N142    2.021   .     S
Cu136  O150    1.956   .     S
Cu136  O148    1.956   .     S
Cu136  O144    1.984   .     S
C163   O197    1.300   .     A
C163   O200    1.300   .     A
C163   C188    1.473   .     S
C164   O199    1.300   .     A
C164   C187    1.473   .     S
C164   O198    1.300   .     A
C165   O204    1.298   .     A
C165   C183    1.466   .     S
C165   O201    1.298   .     A
C166   C184    1.466   .     S
C166   O203    1.298   .     A
C166   O202    1.298   .     A
C167   N196    1.373   .     A
C167   Cl205   1.763   .     S
C168   N195    1.373   .     A
C168   Cl206   1.763   .     S
C168   C331    1.418   .     S
C169   Cl207   1.763   .     S
C169   N196    1.373   .     A
C170   N195    1.373   .     A
C170   Cl208   1.763   .     S
C170   C329    1.418   .     S
C171   C188    1.416   .     A
C171   Cl213   1.778   .     S
C171   C281    1.392   1_455 S
C172   Cl214   1.778   .     S
C172   C187    1.416   .     A
C172   C228    1.392   .     S
C173   Cl215   1.778   .     S
C173   C187    1.415   .     A
C173   C225    1.392   .     S
C174   Cl216   1.778   .     S
C174   C188    1.415   .     A
C174   C280    1.392   1_455 S
C175   C179    1.392   .     A
C175   C185    1.417   .     A
C175   Cl209   1.767   .     S
C176   C180    1.392   .     A
C176   C186    1.417   .     A
C176   Cl210   1.767   .     S
C177   C181    1.392   .     A
C177   C186    1.417   .     A
C177   Cl211   1.767   .     S
C178   C185    1.417   .     A
C178   C182    1.392   .     A
C178   Cl212   1.767   .     S
C179   H191    1.082   .     S
C179   C183    1.400   .     A
C180   H192    1.082   .     S
C180   C184    1.400   .     A
C181   H193    1.082   .     S
C181   C184    1.400   .     A
C182   C183    1.400   .     A
C182   H194    1.082   .     S
C185   C672    1.510   1_554 S
C186   C671    1.510   .     S
Cu189  N195    2.021   .     S
Cu189  O199    1.985   .     S
Cu189  O201    1.956   .     S
Cu189  Cu190   2.689   .     S
Cu189  O197    1.984   .     S
Cu189  O203    1.956   .     S
Cu190  O200    1.985   .     S
Cu190  N196    2.021   .     S
Cu190  O204    1.956   .     S
Cu190  O202    1.956   .     S
Cu190  O198    1.984   .     S
C217   O251    1.300   .     A
C217   O254    1.300   .     A
C217   C242    1.473   .     S
C218   O253    1.300   .     A
C218   C241    1.473   .     S
C218   O252    1.300   .     A
C219   O258    1.298   .     A
C219   C237    1.466   .     S
C219   O255    1.298   .     A
C220   C238    1.466   .     S
C220   O257    1.298   .     A
C220   O256    1.298   .     A
C221   N250    1.373   .     A
C221   Cl259   1.763   .     S
C222   N249    1.373   .     A
C222   Cl260   1.763   .     S
C222   C385    1.418   .     S
C223   Cl261   1.763   .     S
C223   N250    1.373   .     A
C224   N249    1.373   .     A
C224   Cl262   1.763   .     S
C224   C383    1.418   .     S
C225   C242    1.416   .     A
C225   Cl267   1.778   .     S
C226   Cl268   1.778   .     S
C226   C241    1.416   .     A
C226   C282    1.392   .     S
C227   Cl269   1.778   .     S
C227   C241    1.415   .     A
C227   C279    1.392   .     S
C228   Cl270   1.778   .     S
C228   C242    1.415   .     A
C229   C233    1.392   .     A
C229   C239    1.417   .     A
C229   Cl263   1.767   .     S
C230   C234    1.392   .     A
C230   C240    1.417   .     A
C230   Cl264   1.767   .     S
C231   C235    1.392   .     A
C231   C240    1.417   .     A
C231   Cl265   1.767   .     S
C232   C239    1.417   .     A
C232   C236    1.392   .     A
C232   Cl266   1.767   .     S
C233   H245    1.082   .     S
C233   C237    1.400   .     A
C234   H246    1.082   .     S
C234   C238    1.400   .     A
C235   H247    1.082   .     S
C235   C238    1.400   .     A
C236   C237    1.400   .     A
C236   H248    1.082   .     S
C239   C726    1.510   1_554 S
C240   C725    1.510   .     S
Cu243  N249    2.021   .     S
Cu243  O253    1.985   .     S
Cu243  O255    1.956   .     S
Cu243  Cu244   2.689   .     S
Cu243  O251    1.984   .     S
Cu243  O257    1.956   .     S
Cu244  O254    1.985   .     S
Cu244  N250    2.021   .     S
Cu244  O258    1.956   .     S
Cu244  O256    1.956   .     S
Cu244  O252    1.984   .     S
C271   O305    1.300   .     A
C271   O308    1.300   .     A
C271   C296    1.473   .     S
C272   O307    1.300   .     A
C272   C295    1.473   .     S
C272   O306    1.300   .     A
C273   O312    1.298   .     A
C273   C291    1.466   .     S
C273   O309    1.298   .     A
C274   C292    1.466   .     S
C274   O311    1.298   .     A
C274   O310    1.298   .     A
C275   N304    1.373   .     A
C275   Cl313   1.763   .     S
C276   N303    1.373   .     A
C276   Cl314   1.763   .     S
C276   C439    1.418   .     S
C277   Cl315   1.763   .     S
C277   N304    1.373   .     A
C278   N303    1.373   .     A
C278   Cl316   1.763   .     S
C278   C437    1.418   .     S
C279   C296    1.416   .     A
C279   Cl321   1.778   .     S
C280   Cl322   1.778   .     S
C280   C295    1.416   .     A
C280   C174    1.392   1_655 S
C281   Cl323   1.778   .     S
C281   C295    1.415   .     A
C281   C171    1.392   1_655 S
C282   Cl324   1.778   .     S
C282   C296    1.415   .     A
C283   C287    1.392   .     A
C283   C293    1.417   .     A
C283   Cl317   1.767   .     S
C284   C288    1.392   .     A
C284   C294    1.417   .     A
C284   Cl318   1.767   .     S
C285   C289    1.392   .     A
C285   C294    1.417   .     A
C285   Cl319   1.767   .     S
C286   C293    1.417   .     A
C286   C290    1.392   .     A
C286   Cl320   1.767   .     S
C287   H299    1.082   .     S
C287   C291    1.400   .     A
C288   H300    1.082   .     S
C288   C292    1.400   .     A
C289   H301    1.082   .     S
C289   C292    1.400   .     A
C290   C291    1.400   .     A
C290   H302    1.082   .     S
C293   C780    1.510   1_554 S
C294   C779    1.510   .     S
Cu297  N303    2.021   .     S
Cu297  O307    1.985   .     S
Cu297  O309    1.956   .     S
Cu297  Cu298   2.689   .     S
Cu297  O305    1.984   .     S
Cu297  O311    1.956   .     S
Cu298  O308    1.985   .     S
Cu298  N304    2.021   .     S
Cu298  O312    1.956   .     S
Cu298  O310    1.956   .     S
Cu298  O306    1.984   .     S
C325   O359    1.300   .     A
C325   O362    1.300   .     A
C325   C350    1.473   .     S
C326   O361    1.300   .     A
C326   C349    1.473   .     S
C326   O360    1.300   .     A
C327   O366    1.298   .     A
C327   C345    1.466   .     S
C327   O363    1.298   .     A
C328   C346    1.466   .     S
C328   O365    1.298   .     A
C328   O364    1.298   .     A
C329   N358    1.373   .     A
C329   Cl367   1.763   .     S
C330   N357    1.373   .     A
C330   Cl368   1.763   .     S
C330   C7      1.418   1_565 S
C331   Cl369   1.763   .     S
C331   N358    1.373   .     A
C332   N357    1.373   .     A
C332   Cl370   1.763   .     S
C332   C5      1.418   1_565 S
C333   C350    1.416   .     A
C333   Cl375   1.778   .     S
C333   C443    1.392   1_455 S
C334   Cl376   1.778   .     S
C334   C349    1.416   .     A
C334   C390    1.392   .     S
C335   Cl377   1.778   .     S
C335   C349    1.415   .     A
C335   C387    1.392   .     S
C336   Cl378   1.778   .     S
C336   C350    1.415   .     A
C336   C442    1.392   1_455 S
C337   C341    1.392   .     A
C337   C347    1.417   .     A
C337   Cl371   1.767   .     S
C338   C342    1.392   .     A
C338   C348    1.417   .     A
C338   Cl372   1.767   .     S
C339   C343    1.392   .     A
C339   C348    1.417   .     A
C339   Cl373   1.767   .     S
C340   C347    1.417   .     A
C340   C344    1.392   .     A
C340   Cl374   1.767   .     S
C341   H353    1.082   .     S
C341   C345    1.400   .     A
C342   H354    1.082   .     S
C342   C346    1.400   .     A
C343   H355    1.082   .     S
C343   C346    1.400   .     A
C344   C345    1.400   .     A
C344   H356    1.082   .     S
C347   C834    1.510   1_554 S
C348   C833    1.510   .     S
Cu351  N357    2.021   .     S
Cu351  O361    1.985   .     S
Cu351  O363    1.956   .     S
Cu351  Cu352   2.689   .     S
Cu351  O359    1.984   .     S
Cu351  O365    1.956   .     S
Cu352  O362    1.985   .     S
Cu352  N358    2.021   .     S
Cu352  O366    1.956   .     S
Cu352  O364    1.956   .     S
Cu352  O360    1.984   .     S
C379   O413    1.300   .     A
C379   O416    1.300   .     A
C379   C404    1.473   .     S
C380   O415    1.300   .     A
C380   C403    1.473   .     S
C380   O414    1.300   .     A
C381   O420    1.298   .     A
C381   C399    1.466   .     S
C381   O417    1.298   .     A
C382   C400    1.466   .     S
C382   O419    1.298   .     A
C382   O418    1.298   .     A
C383   N412    1.373   .     A
C383   Cl421   1.763   .     S
C384   N411    1.373   .     A
C384   Cl422   1.763   .     S
C384   C61     1.418   1_565 S
C385   Cl423   1.763   .     S
C385   N412    1.373   .     A
C386   N411    1.373   .     A
C386   Cl424   1.763   .     S
C386   C59     1.418   1_565 S
C387   C404    1.416   .     A
C387   Cl429   1.778   .     S
C388   Cl430   1.778   .     S
C388   C403    1.416   .     A
C388   C444    1.392   .     S
C389   Cl431   1.778   .     S
C389   C403    1.415   .     A
C389   C441    1.392   .     S
C390   Cl432   1.778   .     S
C390   C404    1.415   .     A
C391   C395    1.392   .     A
C391   C401    1.417   .     A
C391   Cl425   1.767   .     S
C392   C396    1.392   .     A
C392   C402    1.417   .     A
C392   Cl426   1.767   .     S
C393   C397    1.392   .     A
C393   C402    1.417   .     A
C393   Cl427   1.767   .     S
C394   C401    1.417   .     A
C394   C398    1.392   .     A
C394   Cl428   1.767   .     S
C395   H407    1.082   .     S
C395   C399    1.400   .     A
C396   H408    1.082   .     S
C396   C400    1.400   .     A
C397   H409    1.082   .     S
C397   C400    1.400   .     A
C398   C399    1.400   .     A
C398   H410    1.082   .     S
C401   C888    1.510   1_554 S
C402   C887    1.510   .     S
Cu405  N411    2.021   .     S
Cu405  O415    1.985   .     S
Cu405  O417    1.956   .     S
Cu405  Cu406   2.689   .     S
Cu405  O413    1.984   .     S
Cu405  O419    1.956   .     S
Cu406  O416    1.985   .     S
Cu406  N412    2.021   .     S
Cu406  O420    1.956   .     S
Cu406  O418    1.956   .     S
Cu406  O414    1.984   .     S
C433   O467    1.300   .     A
C433   O470    1.300   .     A
C433   C458    1.473   .     S
C434   O469    1.300   .     A
C434   C457    1.473   .     S
C434   O468    1.300   .     A
C435   O474    1.298   .     A
C435   C453    1.466   .     S
C435   O471    1.298   .     A
C436   C454    1.466   .     S
C436   O473    1.298   .     A
C436   O472    1.298   .     A
C437   N466    1.373   .     A
C437   Cl475   1.763   .     S
C438   N465    1.373   .     A
C438   Cl476   1.763   .     S
C438   C115    1.418   1_565 S
C439   Cl477   1.763   .     S
C439   N466    1.373   .     A
C440   N465    1.373   .     A
C440   Cl478   1.763   .     S
C440   C113    1.418   1_565 S
C441   C458    1.416   .     A
C441   Cl483   1.778   .     S
C442   Cl484   1.778   .     S
C442   C457    1.416   .     A
C442   C336    1.392   1_655 S
C443   Cl485   1.778   .     S
C443   C457    1.415   .     A
C443   C333    1.392   1_655 S
C444   Cl486   1.778   .     S
C444   C458    1.415   .     A
C445   C449    1.392   .     A
C445   C455    1.417   .     A
C445   Cl479   1.767   .     S
C446   C450    1.392   .     A
C446   C456    1.417   .     A
C446   Cl480   1.767   .     S
C447   C451    1.392   .     A
C447   C456    1.417   .     A
C447   Cl481   1.767   .     S
C448   C455    1.417   .     A
C448   C452    1.392   .     A
C448   Cl482   1.767   .     S
C449   H461    1.082   .     S
C449   C453    1.400   .     A
C450   H462    1.082   .     S
C450   C454    1.400   .     A
C451   H463    1.082   .     S
C451   C454    1.400   .     A
C452   C453    1.400   .     A
C452   H464    1.082   .     S
C455   C942    1.510   1_554 S
C456   C941    1.510   .     S
Cu459  N465    2.021   .     S
Cu459  O469    1.985   .     S
Cu459  O471    1.956   .     S
Cu459  Cu460   2.689   .     S
Cu459  O467    1.984   .     S
Cu459  O473    1.956   .     S
Cu460  O470    1.985   .     S
Cu460  N466    2.021   .     S
Cu460  O474    1.956   .     S
Cu460  O472    1.956   .     S
Cu460  O468    1.984   .     S
C487   O521    1.300   .     A
C487   O524    1.300   .     A
C487   C512    1.473   .     S
C488   O523    1.300   .     A
C488   C511    1.473   .     S
C488   O522    1.300   .     A
C489   O528    1.298   .     A
C489   C507    1.466   .     S
C489   O525    1.298   .     A
C490   C508    1.466   .     S
C490   O527    1.298   .     A
C490   O526    1.298   .     A
C491   N520    1.373   .     A
C491   Cl529   1.763   .     S
C491   C818    1.418   1_545 S
C492   N519    1.373   .     A
C492   Cl530   1.763   .     S
C492   C655    1.418   .     S
C493   Cl531   1.763   .     S
C493   N520    1.373   .     A
C493   C816    1.418   1_545 S
C494   N519    1.373   .     A
C494   Cl532   1.763   .     S
C494   C653    1.418   .     S
C495   C512    1.416   .     A
C495   Cl537   1.778   .     S
C495   C605    1.392   1_455 S
C496   Cl538   1.778   .     S
C496   C511    1.416   .     A
C496   C552    1.392   .     S
C497   Cl539   1.778   .     S
C497   C511    1.415   .     A
C497   C549    1.392   .     S
C498   Cl540   1.778   .     S
C498   C512    1.415   .     A
C498   C604    1.392   1_455 S
C499   C503    1.392   .     A
C499   C509    1.417   .     A
C499   Cl533   1.767   .     S
C500   C504    1.392   .     A
C500   C510    1.417   .     A
C500   Cl534   1.767   .     S
C501   C505    1.392   .     A
C501   C510    1.417   .     A
C501   Cl535   1.767   .     S
C502   C509    1.417   .     A
C502   C506    1.392   .     A
C502   Cl536   1.767   .     S
C503   H515    1.082   .     S
C503   C507    1.400   .     A
C504   H516    1.082   .     S
C504   C508    1.400   .     A
C505   H517    1.082   .     S
C505   C508    1.400   .     A
C506   C507    1.400   .     A
C506   H518    1.082   .     S
C510   C23     1.510   1_556 S
Cu513  N519    2.021   .     S
Cu513  O523    1.985   .     S
Cu513  O525    1.956   .     S
Cu513  Cu514   2.689   .     S
Cu513  O521    1.984   .     S
Cu513  O527    1.956   .     S
Cu514  O524    1.985   .     S
Cu514  N520    2.021   .     S
Cu514  O528    1.956   .     S
Cu514  O526    1.956   .     S
Cu514  O522    1.984   .     S
C541   O575    1.300   .     A
C541   O578    1.300   .     A
C541   C566    1.473   .     S
C542   O577    1.300   .     A
C542   C565    1.473   .     S
C542   O576    1.300   .     A
C543   O582    1.298   .     A
C543   C561    1.466   .     S
C543   O579    1.298   .     A
C544   C562    1.466   .     S
C544   O581    1.298   .     A
C544   O580    1.298   .     A
C545   N574    1.373   .     A
C545   Cl583   1.763   .     S
C545   C872    1.418   1_545 S
C546   N573    1.373   .     A
C546   Cl584   1.763   .     S
C546   C709    1.418   .     S
C547   Cl585   1.763   .     S
C547   N574    1.373   .     A
C547   C870    1.418   1_545 S
C548   N573    1.373   .     A
C548   Cl586   1.763   .     S
C548   C707    1.418   .     S
C549   C566    1.416   .     A
C549   Cl591   1.778   .     S
C550   Cl592   1.778   .     S
C550   C565    1.416   .     A
C550   C606    1.392   .     S
C551   Cl593   1.778   .     S
C551   C565    1.415   .     A
C551   C603    1.392   .     S
C552   Cl594   1.778   .     S
C552   C566    1.415   .     A
C553   C557    1.392   .     A
C553   C563    1.417   .     A
C553   Cl587   1.767   .     S
C554   C558    1.392   .     A
C554   C564    1.417   .     A
C554   Cl588   1.767   .     S
C555   C559    1.392   .     A
C555   C564    1.417   .     A
C555   Cl589   1.767   .     S
C556   C563    1.417   .     A
C556   C560    1.392   .     A
C556   Cl590   1.767   .     S
C557   H569    1.082   .     S
C557   C561    1.400   .     A
C558   H570    1.082   .     S
C558   C562    1.400   .     A
C559   H571    1.082   .     S
C559   C562    1.400   .     A
C560   C561    1.400   .     A
C560   H572    1.082   .     S
C564   C77     1.510   1_556 S
Cu567  N573    2.021   .     S
Cu567  O577    1.985   .     S
Cu567  O579    1.956   .     S
Cu567  Cu568   2.689   .     S
Cu567  O575    1.984   .     S
Cu567  O581    1.956   .     S
Cu568  O578    1.985   .     S
Cu568  N574    2.021   .     S
Cu568  O582    1.956   .     S
Cu568  O580    1.956   .     S
Cu568  O576    1.984   .     S
C595   O629    1.300   .     A
C595   O632    1.300   .     A
C595   C620    1.473   .     S
C596   O631    1.300   .     A
C596   C619    1.473   .     S
C596   O630    1.300   .     A
C597   O636    1.298   .     A
C597   C615    1.466   .     S
C597   O633    1.298   .     A
C598   C616    1.466   .     S
C598   O635    1.298   .     A
C598   O634    1.298   .     A
C599   N628    1.373   .     A
C599   Cl637   1.763   .     S
C599   C926    1.418   1_545 S
C600   N627    1.373   .     A
C600   Cl638   1.763   .     S
C600   C763    1.418   .     S
C601   Cl639   1.763   .     S
C601   N628    1.373   .     A
C601   C924    1.418   1_545 S
C602   N627    1.373   .     A
C602   Cl640   1.763   .     S
C602   C761    1.418   .     S
C603   C620    1.416   .     A
C603   Cl645   1.778   .     S
C604   Cl646   1.778   .     S
C604   C619    1.416   .     A
C604   C498    1.392   1_655 S
C605   Cl647   1.778   .     S
C605   C619    1.415   .     A
C605   C495    1.392   1_655 S
C606   Cl648   1.778   .     S
C606   C620    1.415   .     A
C607   C611    1.392   .     A
C607   C617    1.417   .     A
C607   Cl641   1.767   .     S
C608   C612    1.392   .     A
C608   C618    1.417   .     A
C608   Cl642   1.767   .     S
C609   C613    1.392   .     A
C609   C618    1.417   .     A
C609   Cl643   1.767   .     S
C610   C617    1.417   .     A
C610   C614    1.392   .     A
C610   Cl644   1.767   .     S
C611   H623    1.082   .     S
C611   C615    1.400   .     A
C612   H624    1.082   .     S
C612   C616    1.400   .     A
C613   H625    1.082   .     S
C613   C616    1.400   .     A
C614   C615    1.400   .     A
C614   H626    1.082   .     S
C618   C131    1.510   1_556 S
Cu621  N627    2.021   .     S
Cu621  O631    1.985   .     S
Cu621  O633    1.956   .     S
Cu621  Cu622   2.689   .     S
Cu621  O629    1.984   .     S
Cu621  O635    1.956   .     S
Cu622  O632    1.985   .     S
Cu622  N628    2.021   .     S
Cu622  O636    1.956   .     S
Cu622  O634    1.956   .     S
Cu622  O630    1.984   .     S
C649   O683    1.300   .     A
C649   O686    1.300   .     A
C649   C674    1.473   .     S
C650   O685    1.300   .     A
C650   C673    1.473   .     S
C650   O684    1.300   .     A
C651   O690    1.298   .     A
C651   C669    1.466   .     S
C651   O687    1.298   .     A
C652   C670    1.466   .     S
C652   O689    1.298   .     A
C652   O688    1.298   .     A
C653   N682    1.373   .     A
C653   Cl691   1.763   .     S
C654   N681    1.373   .     A
C654   Cl692   1.763   .     S
C654   C817    1.418   .     S
C655   Cl693   1.763   .     S
C655   N682    1.373   .     A
C656   N681    1.373   .     A
C656   Cl694   1.763   .     S
C656   C815    1.418   .     S
C657   C674    1.416   .     A
C657   Cl699   1.778   .     S
C657   C767    1.392   1_455 S
C658   Cl700   1.778   .     S
C658   C673    1.416   .     A
C658   C714    1.392   .     S
C659   Cl701   1.778   .     S
C659   C673    1.415   .     A
C659   C711    1.392   .     S
C660   Cl702   1.778   .     S
C660   C674    1.415   .     A
C660   C766    1.392   1_455 S
C661   C665    1.392   .     A
C661   C671    1.417   .     A
C661   Cl695   1.767   .     S
C662   C666    1.392   .     A
C662   C672    1.417   .     A
C662   Cl696   1.767   .     S
C663   C667    1.392   .     A
C663   C672    1.417   .     A
C663   Cl697   1.767   .     S
C664   C671    1.417   .     A
C664   C668    1.392   .     A
C664   Cl698   1.767   .     S
C665   H677    1.082   .     S
C665   C669    1.400   .     A
C666   H678    1.082   .     S
C666   C670    1.400   .     A
C667   H679    1.082   .     S
C667   C670    1.400   .     A
C668   C669    1.400   .     A
C668   H680    1.082   .     S
C672   C185    1.510   1_556 S
Cu675  N681    2.021   .     S
Cu675  O685    1.985   .     S
Cu675  O687    1.956   .     S
Cu675  Cu676   2.689   .     S
Cu675  O683    1.984   .     S
Cu675  O689    1.956   .     S
Cu676  O686    1.985   .     S
Cu676  N682    2.021   .     S
Cu676  O690    1.956   .     S
Cu676  O688    1.956   .     S
Cu676  O684    1.984   .     S
C703   O737    1.300   .     A
C703   O740    1.300   .     A
C703   C728    1.473   .     S
C704   O739    1.300   .     A
C704   C727    1.473   .     S
C704   O738    1.300   .     A
C705   O744    1.298   .     A
C705   C723    1.466   .     S
C705   O741    1.298   .     A
C706   C724    1.466   .     S
C706   O743    1.298   .     A
C706   O742    1.298   .     A
C707   N736    1.373   .     A
C707   Cl745   1.763   .     S
C708   N735    1.373   .     A
C708   Cl746   1.763   .     S
C708   C871    1.418   .     S
C709   Cl747   1.763   .     S
C709   N736    1.373   .     A
C710   N735    1.373   .     A
C710   Cl748   1.763   .     S
C710   C869    1.418   .     S
C711   C728    1.416   .     A
C711   Cl753   1.778   .     S
C712   Cl754   1.778   .     S
C712   C727    1.416   .     A
C712   C768    1.392   .     S
C713   Cl755   1.778   .     S
C713   C727    1.415   .     A
C713   C765    1.392   .     S
C714   Cl756   1.778   .     S
C714   C728    1.415   .     A
C715   C719    1.392   .     A
C715   C725    1.417   .     A
C715   Cl749   1.767   .     S
C716   C720    1.392   .     A
C716   C726    1.417   .     A
C716   Cl750   1.767   .     S
C717   C721    1.392   .     A
C717   C726    1.417   .     A
C717   Cl751   1.767   .     S
C718   C725    1.417   .     A
C718   C722    1.392   .     A
C718   Cl752   1.767   .     S
C719   H731    1.082   .     S
C719   C723    1.400   .     A
C720   H732    1.082   .     S
C720   C724    1.400   .     A
C721   H733    1.082   .     S
C721   C724    1.400   .     A
C722   C723    1.400   .     A
C722   H734    1.082   .     S
C726   C239    1.510   1_556 S
Cu729  N735    2.021   .     S
Cu729  O739    1.985   .     S
Cu729  O741    1.956   .     S
Cu729  Cu730   2.689   .     S
Cu729  O737    1.984   .     S
Cu729  O743    1.956   .     S
Cu730  O740    1.985   .     S
Cu730  N736    2.021   .     S
Cu730  O744    1.956   .     S
Cu730  O742    1.956   .     S
Cu730  O738    1.984   .     S
C757   O791    1.300   .     A
C757   O794    1.300   .     A
C757   C782    1.473   .     S
C758   O793    1.300   .     A
C758   C781    1.473   .     S
C758   O792    1.300   .     A
C759   O798    1.298   .     A
C759   C777    1.466   .     S
C759   O795    1.298   .     A
C760   C778    1.466   .     S
C760   O797    1.298   .     A
C760   O796    1.298   .     A
C761   N790    1.373   .     A
C761   Cl799   1.763   .     S
C762   N789    1.373   .     A
C762   Cl800   1.763   .     S
C762   C925    1.418   .     S
C763   Cl801   1.763   .     S
C763   N790    1.373   .     A
C764   N789    1.373   .     A
C764   Cl802   1.763   .     S
C764   C923    1.418   .     S
C765   C782    1.416   .     A
C765   Cl807   1.778   .     S
C766   Cl808   1.778   .     S
C766   C781    1.416   .     A
C766   C660    1.392   1_655 S
C767   Cl809   1.778   .     S
C767   C781    1.415   .     A
C767   C657    1.392   1_655 S
C768   Cl810   1.778   .     S
C768   C782    1.415   .     A
C769   C773    1.392   .     A
C769   C779    1.417   .     A
C769   Cl803   1.767   .     S
C770   C774    1.392   .     A
C770   C780    1.417   .     A
C770   Cl804   1.767   .     S
C771   C775    1.392   .     A
C771   C780    1.417   .     A
C771   Cl805   1.767   .     S
C772   C779    1.417   .     A
C772   C776    1.392   .     A
C772   Cl806   1.767   .     S
C773   H785    1.082   .     S
C773   C777    1.400   .     A
C774   H786    1.082   .     S
C774   C778    1.400   .     A
C775   H787    1.082   .     S
C775   C778    1.400   .     A
C776   C777    1.400   .     A
C776   H788    1.082   .     S
C780   C293    1.510   1_556 S
Cu783  N789    2.021   .     S
Cu783  O793    1.985   .     S
Cu783  O795    1.956   .     S
Cu783  Cu784   2.689   .     S
Cu783  O791    1.984   .     S
Cu783  O797    1.956   .     S
Cu784  O794    1.985   .     S
Cu784  N790    2.021   .     S
Cu784  O798    1.956   .     S
Cu784  O796    1.956   .     S
Cu784  O792    1.984   .     S
C811   O845    1.300   .     A
C811   O848    1.300   .     A
C811   C836    1.473   .     S
C812   O847    1.300   .     A
C812   C835    1.473   .     S
C812   O846    1.300   .     A
C813   O852    1.298   .     A
C813   C831    1.466   .     S
C813   O849    1.298   .     A
C814   C832    1.466   .     S
C814   O851    1.298   .     A
C814   O850    1.298   .     A
C815   N844    1.373   .     A
C815   Cl853   1.763   .     S
C816   N843    1.373   .     A
C816   Cl854   1.763   .     S
C816   C493    1.418   1_565 S
C817   Cl855   1.763   .     S
C817   N844    1.373   .     A
C818   N843    1.373   .     A
C818   Cl856   1.763   .     S
C818   C491    1.418   1_565 S
C819   C836    1.416   .     A
C819   Cl861   1.778   .     S
C819   C929    1.392   1_455 S
C820   Cl862   1.778   .     S
C820   C835    1.416   .     A
C820   C876    1.392   .     S
C821   Cl863   1.778   .     S
C821   C835    1.415   .     A
C821   C873    1.392   .     S
C822   Cl864   1.778   .     S
C822   C836    1.415   .     A
C822   C928    1.392   1_455 S
C823   C827    1.392   .     A
C823   C833    1.417   .     A
C823   Cl857   1.767   .     S
C824   C828    1.392   .     A
C824   C834    1.417   .     A
C824   Cl858   1.767   .     S
C825   C829    1.392   .     A
C825   C834    1.417   .     A
C825   Cl859   1.767   .     S
C826   C833    1.417   .     A
C826   C830    1.392   .     A
C826   Cl860   1.767   .     S
C827   H839    1.082   .     S
C827   C831    1.400   .     A
C828   H840    1.082   .     S
C828   C832    1.400   .     A
C829   H841    1.082   .     S
C829   C832    1.400   .     A
C830   C831    1.400   .     A
C830   H842    1.082   .     S
C834   C347    1.510   1_556 S
Cu837  N843    2.021   .     S
Cu837  O847    1.985   .     S
Cu837  O849    1.956   .     S
Cu837  Cu838   2.689   .     S
Cu837  O845    1.984   .     S
Cu837  O851    1.956   .     S
Cu838  O848    1.985   .     S
Cu838  N844    2.021   .     S
Cu838  O852    1.956   .     S
Cu838  O850    1.956   .     S
Cu838  O846    1.984   .     S
C865   O899    1.300   .     A
C865   O902    1.300   .     A
C865   C890    1.473   .     S
C866   O901    1.300   .     A
C866   C889    1.473   .     S
C866   O900    1.300   .     A
C867   O906    1.298   .     A
C867   C885    1.466   .     S
C867   O903    1.298   .     A
C868   C886    1.466   .     S
C868   O905    1.298   .     A
C868   O904    1.298   .     A
C869   N898    1.373   .     A
C869   Cl907   1.763   .     S
C870   N897    1.373   .     A
C870   Cl908   1.763   .     S
C870   C547    1.418   1_565 S
C871   Cl909   1.763   .     S
C871   N898    1.373   .     A
C872   N897    1.373   .     A
C872   Cl910   1.763   .     S
C872   C545    1.418   1_565 S
C873   C890    1.416   .     A
C873   Cl915   1.778   .     S
C874   Cl916   1.778   .     S
C874   C889    1.416   .     A
C874   C930    1.392   .     S
C875   Cl917   1.778   .     S
C875   C889    1.415   .     A
C875   C927    1.392   .     S
C876   Cl918   1.778   .     S
C876   C890    1.415   .     A
C877   C881    1.392   .     A
C877   C887    1.417   .     A
C877   Cl911   1.767   .     S
C878   C882    1.392   .     A
C878   C888    1.417   .     A
C878   Cl912   1.767   .     S
C879   C883    1.392   .     A
C879   C888    1.417   .     A
C879   Cl913   1.767   .     S
C880   C887    1.417   .     A
C880   C884    1.392   .     A
C880   Cl914   1.767   .     S
C881   H893    1.082   .     S
C881   C885    1.400   .     A
C882   H894    1.082   .     S
C882   C886    1.400   .     A
C883   H895    1.082   .     S
C883   C886    1.400   .     A
C884   C885    1.400   .     A
C884   H896    1.082   .     S
C888   C401    1.510   1_556 S
Cu891  N897    2.021   .     S
Cu891  O901    1.985   .     S
Cu891  O903    1.956   .     S
Cu891  Cu892   2.689   .     S
Cu891  O899    1.984   .     S
Cu891  O905    1.956   .     S
Cu892  O902    1.985   .     S
Cu892  N898    2.021   .     S
Cu892  O906    1.956   .     S
Cu892  O904    1.956   .     S
Cu892  O900    1.984   .     S
C919   O953    1.300   .     A
C919   O956    1.300   .     A
C919   C944    1.473   .     S
C920   O955    1.300   .     A
C920   C943    1.473   .     S
C920   O954    1.300   .     A
C921   O960    1.298   .     A
C921   C939    1.466   .     S
C921   O957    1.298   .     A
C922   C940    1.466   .     S
C922   O959    1.298   .     A
C922   O958    1.298   .     A
C923   N952    1.373   .     A
C923   Cl961   1.763   .     S
C924   N951    1.373   .     A
C924   Cl962   1.763   .     S
C924   C601    1.418   1_565 S
C925   Cl963   1.763   .     S
C925   N952    1.373   .     A
C926   N951    1.373   .     A
C926   Cl964   1.763   .     S
C926   C599    1.418   1_565 S
C927   C944    1.416   .     A
C927   Cl969   1.778   .     S
C928   Cl970   1.778   .     S
C928   C943    1.416   .     A
C928   C822    1.392   1_655 S
C929   Cl971   1.778   .     S
C929   C943    1.415   .     A
C929   C819    1.392   1_655 S
C930   Cl972   1.778   .     S
C930   C944    1.415   .     A
C931   C935    1.392   .     A
C931   C941    1.417   .     A
C931   Cl965   1.767   .     S
C932   C936    1.392   .     A
C932   C942    1.417   .     A
C932   Cl966   1.767   .     S
C933   C937    1.392   .     A
C933   C942    1.417   .     A
C933   Cl967   1.767   .     S
C934   C941    1.417   .     A
C934   C938    1.392   .     A
C934   Cl968   1.767   .     S
C935   H947    1.082   .     S
C935   C939    1.400   .     A
C936   H948    1.082   .     S
C936   C940    1.400   .     A
C937   H949    1.082   .     S
C937   C940    1.400   .     A
C938   C939    1.400   .     A
C938   H950    1.082   .     S
C942   C455    1.510   1_556 S
Cu945  N951    2.021   .     S
Cu945  O955    1.985   .     S
Cu945  O957    1.956   .     S
Cu945  Cu946   2.689   .     S
Cu945  O953    1.984   .     S
Cu945  O959    1.956   .     S
Cu946  O956    1.985   .     S
Cu946  N952    2.021   .     S
Cu946  O960    1.956   .     S
Cu946  O958    1.956   .     S
Cu946  O954    1.984   .     S
