data_str_m2_o2_o5_pcu_sym.90
_audit_creation_date              2020-01-03
_audit_creation_method            'Materials Studio'
_symmetry_space_group_name_H-M    'P1'
_symmetry_Int_Tables_number       1
_symmetry_cell_setting            triclinic
loop_
_symmetry_equiv_pos_as_xyz
  x,y,z
_cell_length_a                    30.4123
_cell_length_b                    27.9044
_cell_length_c                    27.2232
_cell_angle_alpha                 90.0000
_cell_angle_beta                  90.8651
_cell_angle_gamma                 90.0000
loop_
_atom_site_label
_atom_site_type_symbol
_atom_site_fract_x
_atom_site_fract_y
_atom_site_fract_z
_atom_site_U_iso_or_equiv
_atom_site_adp_type
_atom_site_occupancy
C1     C     0.16485   0.25023   0.16631   0.00000  Uiso   1.00
C2     C     0.27997   0.44583   0.19582   0.00000  Uiso   1.00
C3     C     0.25009   0.24999   0.07358   0.00000  Uiso   1.00
C4     C     0.24991   0.24999   0.25976   0.00000  Uiso   1.00
C5     C     0.25000   0.02663   0.16667   0.00000  Uiso   1.00
C6     C     0.25000   0.47226   0.16667   0.00000  Uiso   1.00
C7     C     0.25004   0.24993   0.02185   0.00000  Uiso   1.00
C8     C     0.24996   0.24993   0.31148   0.00000  Uiso   1.00
C9     C     0.04740   0.28611   0.19490   0.00000  Uiso   1.00
C10    C     0.45458   0.22081   0.19639   0.00000  Uiso   1.00
C11    C     0.45260   0.28611   0.13844   0.00000  Uiso   1.00
C12    C     0.33515   0.25023   0.16702   0.00000  Uiso   1.00
C13    C     0.04542   0.22081   0.13695   0.00000  Uiso   1.00
C14    C     0.09340   0.28584   0.19560   0.00000  Uiso   1.00
C15    C     0.40870   0.21974   0.19786   0.00000  Uiso   1.00
C16    C     0.40660   0.28584   0.13773   0.00000  Uiso   1.00
C17    C     0.09130   0.21975   0.13548   0.00000  Uiso   1.00
C18    C     0.11617   0.25153   0.16618   0.00000  Uiso   1.00
C19    C     0.38383   0.25153   0.16715   0.00000  Uiso   1.00
C20    C     0.02388   0.25359   0.16629   0.00000  Uiso   1.00
C21    C     0.47612   0.25359   0.16704   0.00000  Uiso   1.00
C22    C     0.11598   0.32223   0.22912   0.00000  Uiso   1.00
C23    C     0.26648   0.10374   0.20619   0.00000  Uiso   1.00
C24    C     0.13608   0.29806   0.27461   0.00000  Uiso   1.00
C25    C     0.15882   0.33430   0.30837   0.00000  Uiso   1.00
C26    C     0.38855   0.18668   0.23548   0.00000  Uiso   1.00
C27    C     0.37012   0.21512   0.27889   0.00000  Uiso   1.00
C28    C     0.36644   0.18426   0.32506   0.00000  Uiso   1.00
C29    C     0.38402   0.32222   0.10421   0.00000  Uiso   1.00
C30    C     0.36392   0.29806   0.05872   0.00000  Uiso   1.00
C31    C     0.34118   0.33430   0.02496   0.00000  Uiso   1.00
C32    C     0.11145   0.18668   0.09785   0.00000  Uiso   1.00
C33    C     0.12988   0.21512   0.05444   0.00000  Uiso   1.00
C34    C     0.22081   0.39526   0.13740   0.00000  Uiso   1.00
C35    C     0.13356   0.18426   0.00827   0.00000  Uiso   1.00
C36    C     0.23353   0.10374   0.12714   0.00000  Uiso   1.00
C37    C     0.27919   0.39526   0.19593   0.00000  Uiso   1.00
C38    C     0.26545   0.05309   0.20707   0.00000  Uiso   1.00
C39    C     0.22003   0.44583   0.13752   0.00000  Uiso   1.00
C40    C     0.23455   0.05308   0.12626   0.00000  Uiso   1.00
Cu41   Cu    0.25000   0.29822   0.16667   0.00000  Uiso   1.00
Cu42   Cu    0.25000   0.20178   0.16667   0.00000  Uiso   1.00
H43    H     0.02948   0.31131   0.21738   0.00000  Uiso   1.00
H44    H     0.26655   0.12036   0.27797   0.00000  Uiso   1.00
H45    H     0.15885   0.37942   0.11554   0.00000  Uiso   1.00
H46    H     0.19605   0.38055   0.07006   0.00000  Uiso   1.00
H47    H     0.18351   0.11189   0.07939   0.00000  Uiso   1.00
H48    H     0.23345   0.12036   0.05537   0.00000  Uiso   1.00
H49    H     0.34115   0.37942   0.21779   0.00000  Uiso   1.00
H50    H     0.30395   0.38055   0.26327   0.00000  Uiso   1.00
H51    H     0.18632   0.35202   0.28904   0.00000  Uiso   1.00
H52    H     0.13505   0.36188   0.32064   0.00000  Uiso   1.00
H53    H     0.17226   0.31555   0.00794   0.00000  Uiso   1.00
H54    H     0.47402   0.19674   0.21924   0.00000  Uiso   1.00
H55    H     0.10959   0.27988   0.29519   0.00000  Uiso   1.00
H56    H     0.16042   0.27080   0.26351   0.00000  Uiso   1.00
H57    H     0.14064   0.34355   0.20909   0.00000  Uiso   1.00
H58    H     0.09183   0.34923   0.24201   0.00000  Uiso   1.00
H59    H     0.34692   0.20329   0.01965   0.00000  Uiso   1.00
H60    H     0.34984   0.14982   0.31707   0.00000  Uiso   1.00
H61    H     0.39970   0.17675   0.00730   0.00000  Uiso   1.00
H62    H     0.39189   0.24606   0.28769   0.00000  Uiso   1.00
H63    H     0.33730   0.22944   0.26875   0.00000  Uiso   1.00
H64    H     0.36316   0.16390   0.21796   0.00000  Uiso   1.00
H65    H     0.47052   0.31131   0.11595   0.00000  Uiso   1.00
H66    H     0.41376   0.16114   0.24982   0.00000  Uiso   1.00
H67    H     0.31368   0.35202   0.04429   0.00000  Uiso   1.00
H68    H     0.36495   0.36187   0.01269   0.00000  Uiso   1.00
H69    H     0.32774   0.31555   0.32539   0.00000  Uiso   1.00
H70    H     0.39041   0.27988   0.03814   0.00000  Uiso   1.00
H71    H     0.33958   0.27080   0.06982   0.00000  Uiso   1.00
H72    H     0.35936   0.34354   0.12424   0.00000  Uiso   1.00
H73    H     0.40817   0.34923   0.09132   0.00000  Uiso   1.00
H74    H     0.15307   0.20330   0.31368   0.00000  Uiso   1.00
H75    H     0.15017   0.14982   0.01627   0.00000  Uiso   1.00
H76    H     0.02598   0.19674   0.11409   0.00000  Uiso   1.00
H77    H     0.10031   0.17675   0.32603   0.00000  Uiso   1.00
H78    H     0.10810   0.24606   0.04564   0.00000  Uiso   1.00
H79    H     0.16270   0.22944   0.06458   0.00000  Uiso   1.00
H80    H     0.13684   0.16390   0.11537   0.00000  Uiso   1.00
H81    H     0.08624   0.16114   0.08351   0.00000  Uiso   1.00
H82    H     0.27713   0.03493   0.23986   0.00000  Uiso   1.00
H83    H     0.19552   0.46387   0.11503   0.00000  Uiso   1.00
H84    H     0.22288   0.03493   0.09347   0.00000  Uiso   1.00
H85    H     0.30448   0.46387   0.21830   0.00000  Uiso   1.00
H86    H     0.31649   0.11189   0.25394   0.00000  Uiso   1.00
N87    N     0.25000   0.12934   0.16667   0.00000  Uiso   1.00
N88    N     0.25000   0.37066   0.16667   0.00000  Uiso   1.00
N89    N     0.28583   0.12766   0.24736   0.00000  Uiso   1.00
N90    N     0.19084   0.36957   0.10622   0.00000  Uiso   1.00
N91    N     0.21417   0.12766   0.08597   0.00000  Uiso   1.00
N92    N     0.30916   0.36957   0.22711   0.00000  Uiso   1.00
O93    O     0.18573   0.29072   0.16667   0.00000  Uiso   1.00
O94    O     0.31427   0.20928   0.16666   0.00000  Uiso   1.00
O95    O     0.31427   0.29072   0.16666   0.00000  Uiso   1.00
O96    O     0.18573   0.20929   0.16667   0.00000  Uiso   1.00
O97    O     0.25000   0.29071   0.09613   0.00000  Uiso   1.00
O98    O     0.25000   0.20929   0.23720   0.00000  Uiso   1.00
O99    O     0.25000   0.29071   0.23720   0.00000  Uiso   1.00
O100   O     0.25000   0.20929   0.09613   0.00000  Uiso   1.00
C101   C     0.66485   0.25023   0.16631   0.00000  Uiso   1.00
C102   C     0.77997   0.44583   0.19582   0.00000  Uiso   1.00
C103   C     0.75009   0.24999   0.07358   0.00000  Uiso   1.00
C104   C     0.74991   0.24999   0.25976   0.00000  Uiso   1.00
C105   C     0.75000   0.02663   0.16667   0.00000  Uiso   1.00
C106   C     0.75000   0.47226   0.16667   0.00000  Uiso   1.00
C107   C     0.75004   0.24993   0.02185   0.00000  Uiso   1.00
C108   C     0.74996   0.24993   0.31148   0.00000  Uiso   1.00
C109   C     0.54740   0.28611   0.19490   0.00000  Uiso   1.00
C110   C     0.95458   0.22081   0.19639   0.00000  Uiso   1.00
C111   C     0.95260   0.28611   0.13844   0.00000  Uiso   1.00
C112   C     0.83515   0.25023   0.16702   0.00000  Uiso   1.00
C113   C     0.54542   0.22081   0.13695   0.00000  Uiso   1.00
C114   C     0.59340   0.28584   0.19560   0.00000  Uiso   1.00
C115   C     0.90870   0.21974   0.19786   0.00000  Uiso   1.00
C116   C     0.90660   0.28584   0.13773   0.00000  Uiso   1.00
C117   C     0.59130   0.21975   0.13548   0.00000  Uiso   1.00
C118   C     0.61617   0.25153   0.16618   0.00000  Uiso   1.00
C119   C     0.88383   0.25153   0.16715   0.00000  Uiso   1.00
C120   C     0.52388   0.25359   0.16629   0.00000  Uiso   1.00
C121   C     0.97612   0.25359   0.16704   0.00000  Uiso   1.00
C122   C     0.61598   0.32223   0.22912   0.00000  Uiso   1.00
C123   C     0.76648   0.10374   0.20619   0.00000  Uiso   1.00
C124   C     0.63608   0.29806   0.27461   0.00000  Uiso   1.00
C125   C     0.65882   0.33430   0.30837   0.00000  Uiso   1.00
C126   C     0.88855   0.18668   0.23548   0.00000  Uiso   1.00
C127   C     0.87012   0.21512   0.27889   0.00000  Uiso   1.00
C128   C     0.86644   0.18426   0.32506   0.00000  Uiso   1.00
C129   C     0.88402   0.32222   0.10421   0.00000  Uiso   1.00
C130   C     0.86392   0.29806   0.05872   0.00000  Uiso   1.00
C131   C     0.84118   0.33430   0.02496   0.00000  Uiso   1.00
C132   C     0.61145   0.18668   0.09785   0.00000  Uiso   1.00
C133   C     0.62988   0.21512   0.05444   0.00000  Uiso   1.00
C134   C     0.72081   0.39526   0.13740   0.00000  Uiso   1.00
C135   C     0.63356   0.18426   0.00827   0.00000  Uiso   1.00
C136   C     0.73353   0.10374   0.12714   0.00000  Uiso   1.00
C137   C     0.77919   0.39526   0.19593   0.00000  Uiso   1.00
C138   C     0.76545   0.05309   0.20707   0.00000  Uiso   1.00
C139   C     0.72003   0.44583   0.13752   0.00000  Uiso   1.00
C140   C     0.73455   0.05308   0.12626   0.00000  Uiso   1.00
Cu141  Cu    0.75000   0.29822   0.16667   0.00000  Uiso   1.00
Cu142  Cu    0.75000   0.20178   0.16667   0.00000  Uiso   1.00
H143   H     0.52948   0.31131   0.21738   0.00000  Uiso   1.00
H144   H     0.76655   0.12036   0.27797   0.00000  Uiso   1.00
H145   H     0.65885   0.37942   0.11554   0.00000  Uiso   1.00
H146   H     0.69605   0.38055   0.07006   0.00000  Uiso   1.00
H147   H     0.68351   0.11189   0.07939   0.00000  Uiso   1.00
H148   H     0.73345   0.12036   0.05537   0.00000  Uiso   1.00
H149   H     0.84115   0.37942   0.21779   0.00000  Uiso   1.00
H150   H     0.80395   0.38055   0.26327   0.00000  Uiso   1.00
H151   H     0.68632   0.35202   0.28904   0.00000  Uiso   1.00
H152   H     0.63505   0.36188   0.32064   0.00000  Uiso   1.00
H153   H     0.67226   0.31555   0.00794   0.00000  Uiso   1.00
H154   H     0.97402   0.19674   0.21924   0.00000  Uiso   1.00
H155   H     0.60959   0.27988   0.29519   0.00000  Uiso   1.00
H156   H     0.66042   0.27080   0.26351   0.00000  Uiso   1.00
H157   H     0.64064   0.34355   0.20909   0.00000  Uiso   1.00
H158   H     0.59183   0.34923   0.24201   0.00000  Uiso   1.00
H159   H     0.84692   0.20329   0.01965   0.00000  Uiso   1.00
H160   H     0.84984   0.14982   0.31707   0.00000  Uiso   1.00
H161   H     0.89970   0.17675   0.00730   0.00000  Uiso   1.00
H162   H     0.89189   0.24606   0.28769   0.00000  Uiso   1.00
H163   H     0.83730   0.22944   0.26875   0.00000  Uiso   1.00
H164   H     0.86316   0.16390   0.21796   0.00000  Uiso   1.00
H165   H     0.97052   0.31131   0.11595   0.00000  Uiso   1.00
H166   H     0.91376   0.16114   0.24982   0.00000  Uiso   1.00
H167   H     0.81368   0.35202   0.04429   0.00000  Uiso   1.00
H168   H     0.86495   0.36187   0.01269   0.00000  Uiso   1.00
H169   H     0.82774   0.31555   0.32539   0.00000  Uiso   1.00
H170   H     0.89041   0.27988   0.03814   0.00000  Uiso   1.00
H171   H     0.83958   0.27080   0.06982   0.00000  Uiso   1.00
H172   H     0.85936   0.34354   0.12424   0.00000  Uiso   1.00
H173   H     0.90817   0.34923   0.09132   0.00000  Uiso   1.00
H174   H     0.65307   0.20330   0.31368   0.00000  Uiso   1.00
H175   H     0.65017   0.14982   0.01627   0.00000  Uiso   1.00
H176   H     0.52598   0.19674   0.11409   0.00000  Uiso   1.00
H177   H     0.60031   0.17675   0.32603   0.00000  Uiso   1.00
H178   H     0.60810   0.24606   0.04564   0.00000  Uiso   1.00
H179   H     0.66270   0.22944   0.06458   0.00000  Uiso   1.00
H180   H     0.63684   0.16390   0.11537   0.00000  Uiso   1.00
H181   H     0.58624   0.16114   0.08351   0.00000  Uiso   1.00
H182   H     0.77713   0.03493   0.23986   0.00000  Uiso   1.00
H183   H     0.69552   0.46387   0.11503   0.00000  Uiso   1.00
H184   H     0.72288   0.03493   0.09347   0.00000  Uiso   1.00
H185   H     0.80448   0.46387   0.21830   0.00000  Uiso   1.00
H186   H     0.81649   0.11189   0.25394   0.00000  Uiso   1.00
N187   N     0.75000   0.12934   0.16667   0.00000  Uiso   1.00
N188   N     0.75000   0.37066   0.16667   0.00000  Uiso   1.00
N189   N     0.78583   0.12766   0.24736   0.00000  Uiso   1.00
N190   N     0.69084   0.36957   0.10622   0.00000  Uiso   1.00
N191   N     0.71417   0.12766   0.08597   0.00000  Uiso   1.00
N192   N     0.80916   0.36957   0.22711   0.00000  Uiso   1.00
O193   O     0.68573   0.29072   0.16667   0.00000  Uiso   1.00
O194   O     0.81427   0.20928   0.16666   0.00000  Uiso   1.00
O195   O     0.81427   0.29072   0.16666   0.00000  Uiso   1.00
O196   O     0.68573   0.20929   0.16667   0.00000  Uiso   1.00
O197   O     0.75000   0.29071   0.09613   0.00000  Uiso   1.00
O198   O     0.75000   0.20929   0.23720   0.00000  Uiso   1.00
O199   O     0.75000   0.29071   0.23720   0.00000  Uiso   1.00
O200   O     0.75000   0.20929   0.09613   0.00000  Uiso   1.00
C201   C     0.16485   0.75023   0.16631   0.00000  Uiso   1.00
C202   C     0.27997   0.94583   0.19582   0.00000  Uiso   1.00
C203   C     0.25009   0.74999   0.07358   0.00000  Uiso   1.00
C204   C     0.24991   0.74999   0.25976   0.00000  Uiso   1.00
C205   C     0.25000   0.52663   0.16667   0.00000  Uiso   1.00
C206   C     0.25000   0.97226   0.16667   0.00000  Uiso   1.00
C207   C     0.25004   0.74993   0.02185   0.00000  Uiso   1.00
C208   C     0.24996   0.74993   0.31148   0.00000  Uiso   1.00
C209   C     0.04740   0.78611   0.19490   0.00000  Uiso   1.00
C210   C     0.45458   0.72081   0.19639   0.00000  Uiso   1.00
C211   C     0.45260   0.78611   0.13844   0.00000  Uiso   1.00
C212   C     0.33515   0.75023   0.16702   0.00000  Uiso   1.00
C213   C     0.04542   0.72081   0.13695   0.00000  Uiso   1.00
C214   C     0.09340   0.78584   0.19560   0.00000  Uiso   1.00
C215   C     0.40870   0.71974   0.19786   0.00000  Uiso   1.00
C216   C     0.40660   0.78584   0.13773   0.00000  Uiso   1.00
C217   C     0.09130   0.71975   0.13548   0.00000  Uiso   1.00
C218   C     0.11617   0.75153   0.16618   0.00000  Uiso   1.00
C219   C     0.38383   0.75153   0.16715   0.00000  Uiso   1.00
C220   C     0.02388   0.75359   0.16629   0.00000  Uiso   1.00
C221   C     0.47612   0.75359   0.16704   0.00000  Uiso   1.00
C222   C     0.11598   0.82223   0.22912   0.00000  Uiso   1.00
C223   C     0.26648   0.60374   0.20619   0.00000  Uiso   1.00
C224   C     0.13608   0.79806   0.27461   0.00000  Uiso   1.00
C225   C     0.15882   0.83430   0.30837   0.00000  Uiso   1.00
C226   C     0.38855   0.68668   0.23548   0.00000  Uiso   1.00
C227   C     0.37012   0.71512   0.27889   0.00000  Uiso   1.00
C228   C     0.36644   0.68426   0.32506   0.00000  Uiso   1.00
C229   C     0.38402   0.82222   0.10421   0.00000  Uiso   1.00
C230   C     0.36392   0.79806   0.05872   0.00000  Uiso   1.00
C231   C     0.34118   0.83430   0.02496   0.00000  Uiso   1.00
C232   C     0.11145   0.68668   0.09785   0.00000  Uiso   1.00
C233   C     0.12988   0.71512   0.05444   0.00000  Uiso   1.00
C234   C     0.22081   0.89526   0.13740   0.00000  Uiso   1.00
C235   C     0.13356   0.68426   0.00827   0.00000  Uiso   1.00
C236   C     0.23353   0.60374   0.12714   0.00000  Uiso   1.00
C237   C     0.27919   0.89526   0.19593   0.00000  Uiso   1.00
C238   C     0.26545   0.55309   0.20707   0.00000  Uiso   1.00
C239   C     0.22003   0.94583   0.13752   0.00000  Uiso   1.00
C240   C     0.23455   0.55308   0.12626   0.00000  Uiso   1.00
Cu241  Cu    0.25000   0.79822   0.16667   0.00000  Uiso   1.00
Cu242  Cu    0.25000   0.70178   0.16667   0.00000  Uiso   1.00
H243   H     0.02948   0.81131   0.21738   0.00000  Uiso   1.00
H244   H     0.26655   0.62036   0.27797   0.00000  Uiso   1.00
H245   H     0.15885   0.87942   0.11554   0.00000  Uiso   1.00
H246   H     0.19605   0.88055   0.07006   0.00000  Uiso   1.00
H247   H     0.18351   0.61189   0.07939   0.00000  Uiso   1.00
H248   H     0.23345   0.62036   0.05537   0.00000  Uiso   1.00
H249   H     0.34115   0.87942   0.21779   0.00000  Uiso   1.00
H250   H     0.30395   0.88055   0.26327   0.00000  Uiso   1.00
H251   H     0.18632   0.85202   0.28904   0.00000  Uiso   1.00
H252   H     0.13505   0.86188   0.32064   0.00000  Uiso   1.00
H253   H     0.17226   0.81555   0.00794   0.00000  Uiso   1.00
H254   H     0.47402   0.69674   0.21924   0.00000  Uiso   1.00
H255   H     0.10959   0.77988   0.29519   0.00000  Uiso   1.00
H256   H     0.16042   0.77080   0.26351   0.00000  Uiso   1.00
H257   H     0.14064   0.84355   0.20909   0.00000  Uiso   1.00
H258   H     0.09183   0.84923   0.24201   0.00000  Uiso   1.00
H259   H     0.34692   0.70329   0.01965   0.00000  Uiso   1.00
H260   H     0.34984   0.64982   0.31707   0.00000  Uiso   1.00
H261   H     0.39970   0.67675   0.00730   0.00000  Uiso   1.00
H262   H     0.39189   0.74606   0.28769   0.00000  Uiso   1.00
H263   H     0.33730   0.72944   0.26875   0.00000  Uiso   1.00
H264   H     0.36316   0.66390   0.21796   0.00000  Uiso   1.00
H265   H     0.47052   0.81131   0.11595   0.00000  Uiso   1.00
H266   H     0.41376   0.66114   0.24982   0.00000  Uiso   1.00
H267   H     0.31368   0.85202   0.04429   0.00000  Uiso   1.00
H268   H     0.36495   0.86187   0.01269   0.00000  Uiso   1.00
H269   H     0.32774   0.81555   0.32539   0.00000  Uiso   1.00
H270   H     0.39041   0.77988   0.03814   0.00000  Uiso   1.00
H271   H     0.33958   0.77080   0.06982   0.00000  Uiso   1.00
H272   H     0.35936   0.84354   0.12424   0.00000  Uiso   1.00
H273   H     0.40817   0.84923   0.09132   0.00000  Uiso   1.00
H274   H     0.15307   0.70330   0.31368   0.00000  Uiso   1.00
H275   H     0.15017   0.64982   0.01627   0.00000  Uiso   1.00
H276   H     0.02598   0.69674   0.11409   0.00000  Uiso   1.00
H277   H     0.10031   0.67675   0.32603   0.00000  Uiso   1.00
H278   H     0.10810   0.74606   0.04564   0.00000  Uiso   1.00
H279   H     0.16270   0.72944   0.06458   0.00000  Uiso   1.00
H280   H     0.13684   0.66390   0.11537   0.00000  Uiso   1.00
H281   H     0.08624   0.66114   0.08351   0.00000  Uiso   1.00
H282   H     0.27713   0.53493   0.23986   0.00000  Uiso   1.00
H283   H     0.19552   0.96387   0.11503   0.00000  Uiso   1.00
H284   H     0.22288   0.53493   0.09347   0.00000  Uiso   1.00
H285   H     0.30448   0.96387   0.21830   0.00000  Uiso   1.00
H286   H     0.31649   0.61189   0.25394   0.00000  Uiso   1.00
N287   N     0.25000   0.62934   0.16667   0.00000  Uiso   1.00
N288   N     0.25000   0.87066   0.16667   0.00000  Uiso   1.00
N289   N     0.28583   0.62766   0.24736   0.00000  Uiso   1.00
N290   N     0.19084   0.86957   0.10622   0.00000  Uiso   1.00
N291   N     0.21417   0.62766   0.08597   0.00000  Uiso   1.00
N292   N     0.30916   0.86957   0.22711   0.00000  Uiso   1.00
O293   O     0.18573   0.79072   0.16667   0.00000  Uiso   1.00
O294   O     0.31427   0.70928   0.16666   0.00000  Uiso   1.00
O295   O     0.31427   0.79072   0.16666   0.00000  Uiso   1.00
O296   O     0.18573   0.70929   0.16667   0.00000  Uiso   1.00
O297   O     0.25000   0.79071   0.09613   0.00000  Uiso   1.00
O298   O     0.25000   0.70929   0.23720   0.00000  Uiso   1.00
O299   O     0.25000   0.79071   0.23720   0.00000  Uiso   1.00
O300   O     0.25000   0.70929   0.09613   0.00000  Uiso   1.00
C301   C     0.66485   0.75023   0.16631   0.00000  Uiso   1.00
C302   C     0.77997   0.94583   0.19582   0.00000  Uiso   1.00
C303   C     0.75009   0.74999   0.07358   0.00000  Uiso   1.00
C304   C     0.74991   0.74999   0.25976   0.00000  Uiso   1.00
C305   C     0.75000   0.52663   0.16667   0.00000  Uiso   1.00
C306   C     0.75000   0.97226   0.16667   0.00000  Uiso   1.00
C307   C     0.75004   0.74993   0.02185   0.00000  Uiso   1.00
C308   C     0.74996   0.74993   0.31148   0.00000  Uiso   1.00
C309   C     0.54740   0.78611   0.19490   0.00000  Uiso   1.00
C310   C     0.95458   0.72081   0.19639   0.00000  Uiso   1.00
C311   C     0.95260   0.78611   0.13844   0.00000  Uiso   1.00
C312   C     0.83515   0.75023   0.16702   0.00000  Uiso   1.00
C313   C     0.54542   0.72081   0.13695   0.00000  Uiso   1.00
C314   C     0.59340   0.78584   0.19560   0.00000  Uiso   1.00
C315   C     0.90870   0.71974   0.19786   0.00000  Uiso   1.00
C316   C     0.90660   0.78584   0.13773   0.00000  Uiso   1.00
C317   C     0.59130   0.71975   0.13548   0.00000  Uiso   1.00
C318   C     0.61617   0.75153   0.16618   0.00000  Uiso   1.00
C319   C     0.88383   0.75153   0.16715   0.00000  Uiso   1.00
C320   C     0.52388   0.75359   0.16629   0.00000  Uiso   1.00
C321   C     0.97612   0.75359   0.16704   0.00000  Uiso   1.00
C322   C     0.61598   0.82223   0.22912   0.00000  Uiso   1.00
C323   C     0.76648   0.60374   0.20619   0.00000  Uiso   1.00
C324   C     0.63608   0.79806   0.27461   0.00000  Uiso   1.00
C325   C     0.65882   0.83430   0.30837   0.00000  Uiso   1.00
C326   C     0.88855   0.68668   0.23548   0.00000  Uiso   1.00
C327   C     0.87012   0.71512   0.27889   0.00000  Uiso   1.00
C328   C     0.86644   0.68426   0.32506   0.00000  Uiso   1.00
C329   C     0.88402   0.82222   0.10421   0.00000  Uiso   1.00
C330   C     0.86392   0.79806   0.05872   0.00000  Uiso   1.00
C331   C     0.84118   0.83430   0.02496   0.00000  Uiso   1.00
C332   C     0.61145   0.68668   0.09785   0.00000  Uiso   1.00
C333   C     0.62988   0.71512   0.05444   0.00000  Uiso   1.00
C334   C     0.72081   0.89526   0.13740   0.00000  Uiso   1.00
C335   C     0.63356   0.68426   0.00827   0.00000  Uiso   1.00
C336   C     0.73353   0.60374   0.12714   0.00000  Uiso   1.00
C337   C     0.77919   0.89526   0.19593   0.00000  Uiso   1.00
C338   C     0.76545   0.55309   0.20707   0.00000  Uiso   1.00
C339   C     0.72003   0.94583   0.13752   0.00000  Uiso   1.00
C340   C     0.73455   0.55308   0.12626   0.00000  Uiso   1.00
Cu341  Cu    0.75000   0.79822   0.16667   0.00000  Uiso   1.00
Cu342  Cu    0.75000   0.70178   0.16667   0.00000  Uiso   1.00
H343   H     0.52948   0.81131   0.21738   0.00000  Uiso   1.00
H344   H     0.76655   0.62036   0.27797   0.00000  Uiso   1.00
H345   H     0.65885   0.87942   0.11554   0.00000  Uiso   1.00
H346   H     0.69605   0.88055   0.07006   0.00000  Uiso   1.00
H347   H     0.68351   0.61189   0.07939   0.00000  Uiso   1.00
H348   H     0.73345   0.62036   0.05537   0.00000  Uiso   1.00
H349   H     0.84115   0.87942   0.21779   0.00000  Uiso   1.00
H350   H     0.80395   0.88055   0.26327   0.00000  Uiso   1.00
H351   H     0.68632   0.85202   0.28904   0.00000  Uiso   1.00
H352   H     0.63505   0.86188   0.32064   0.00000  Uiso   1.00
H353   H     0.67226   0.81555   0.00794   0.00000  Uiso   1.00
H354   H     0.97402   0.69674   0.21924   0.00000  Uiso   1.00
H355   H     0.60959   0.77988   0.29519   0.00000  Uiso   1.00
H356   H     0.66042   0.77080   0.26351   0.00000  Uiso   1.00
H357   H     0.64064   0.84355   0.20909   0.00000  Uiso   1.00
H358   H     0.59183   0.84923   0.24201   0.00000  Uiso   1.00
H359   H     0.84692   0.70329   0.01965   0.00000  Uiso   1.00
H360   H     0.84984   0.64982   0.31707   0.00000  Uiso   1.00
H361   H     0.89970   0.67675   0.00730   0.00000  Uiso   1.00
H362   H     0.89189   0.74606   0.28769   0.00000  Uiso   1.00
H363   H     0.83730   0.72944   0.26875   0.00000  Uiso   1.00
H364   H     0.86316   0.66390   0.21796   0.00000  Uiso   1.00
H365   H     0.97052   0.81131   0.11595   0.00000  Uiso   1.00
H366   H     0.91376   0.66114   0.24982   0.00000  Uiso   1.00
H367   H     0.81368   0.85202   0.04429   0.00000  Uiso   1.00
H368   H     0.86495   0.86187   0.01269   0.00000  Uiso   1.00
H369   H     0.82774   0.81555   0.32539   0.00000  Uiso   1.00
H370   H     0.89041   0.77988   0.03814   0.00000  Uiso   1.00
H371   H     0.83958   0.77080   0.06982   0.00000  Uiso   1.00
H372   H     0.85936   0.84354   0.12424   0.00000  Uiso   1.00
H373   H     0.90817   0.84923   0.09132   0.00000  Uiso   1.00
H374   H     0.65307   0.70330   0.31368   0.00000  Uiso   1.00
H375   H     0.65017   0.64982   0.01627   0.00000  Uiso   1.00
H376   H     0.52598   0.69674   0.11409   0.00000  Uiso   1.00
H377   H     0.60031   0.67675   0.32603   0.00000  Uiso   1.00
H378   H     0.60810   0.74606   0.04564   0.00000  Uiso   1.00
H379   H     0.66270   0.72944   0.06458   0.00000  Uiso   1.00
H380   H     0.63684   0.66390   0.11537   0.00000  Uiso   1.00
H381   H     0.58624   0.66114   0.08351   0.00000  Uiso   1.00
H382   H     0.77713   0.53493   0.23986   0.00000  Uiso   1.00
H383   H     0.69552   0.96387   0.11503   0.00000  Uiso   1.00
H384   H     0.72288   0.53493   0.09347   0.00000  Uiso   1.00
H385   H     0.80448   0.96387   0.21830   0.00000  Uiso   1.00
H386   H     0.81649   0.61189   0.25394   0.00000  Uiso   1.00
N387   N     0.75000   0.62934   0.16667   0.00000  Uiso   1.00
N388   N     0.75000   0.87066   0.16667   0.00000  Uiso   1.00
N389   N     0.78583   0.62766   0.24736   0.00000  Uiso   1.00
N390   N     0.69084   0.86957   0.10622   0.00000  Uiso   1.00
N391   N     0.71417   0.62766   0.08597   0.00000  Uiso   1.00
N392   N     0.80916   0.86957   0.22711   0.00000  Uiso   1.00
O393   O     0.68573   0.79072   0.16667   0.00000  Uiso   1.00
O394   O     0.81427   0.70928   0.16666   0.00000  Uiso   1.00
O395   O     0.81427   0.79072   0.16666   0.00000  Uiso   1.00
O396   O     0.68573   0.70929   0.16667   0.00000  Uiso   1.00
O397   O     0.75000   0.79071   0.09613   0.00000  Uiso   1.00
O398   O     0.75000   0.70929   0.23720   0.00000  Uiso   1.00
O399   O     0.75000   0.79071   0.23720   0.00000  Uiso   1.00
O400   O     0.75000   0.70929   0.09613   0.00000  Uiso   1.00
C401   C     0.16485   0.25023   0.49965   0.00000  Uiso   1.00
C402   C     0.27997   0.44583   0.52915   0.00000  Uiso   1.00
C403   C     0.25009   0.24999   0.40691   0.00000  Uiso   1.00
C404   C     0.24991   0.24999   0.59309   0.00000  Uiso   1.00
C405   C     0.25000   0.02663   0.50000   0.00000  Uiso   1.00
C406   C     0.25000   0.47226   0.50000   0.00000  Uiso   1.00
C407   C     0.25004   0.24993   0.35518   0.00000  Uiso   1.00
C408   C     0.24996   0.24993   0.64481   0.00000  Uiso   1.00
C409   C     0.04740   0.28611   0.52823   0.00000  Uiso   1.00
C410   C     0.45458   0.22081   0.52972   0.00000  Uiso   1.00
C411   C     0.45260   0.28611   0.47177   0.00000  Uiso   1.00
C412   C     0.33515   0.25023   0.50035   0.00000  Uiso   1.00
C413   C     0.04542   0.22081   0.47028   0.00000  Uiso   1.00
C414   C     0.09340   0.28584   0.52894   0.00000  Uiso   1.00
C415   C     0.40870   0.21974   0.53119   0.00000  Uiso   1.00
C416   C     0.40660   0.28584   0.47106   0.00000  Uiso   1.00
C417   C     0.09130   0.21975   0.46881   0.00000  Uiso   1.00
C418   C     0.11617   0.25153   0.49951   0.00000  Uiso   1.00
C419   C     0.38383   0.25153   0.50049   0.00000  Uiso   1.00
C420   C     0.02388   0.25359   0.49963   0.00000  Uiso   1.00
C421   C     0.47612   0.25359   0.50037   0.00000  Uiso   1.00
C422   C     0.11598   0.32223   0.56245   0.00000  Uiso   1.00
C423   C     0.26648   0.10374   0.53952   0.00000  Uiso   1.00
C424   C     0.13608   0.29806   0.60794   0.00000  Uiso   1.00
C425   C     0.15882   0.33430   0.64171   0.00000  Uiso   1.00
C426   C     0.38855   0.18668   0.56882   0.00000  Uiso   1.00
C427   C     0.37012   0.21512   0.61223   0.00000  Uiso   1.00
C428   C     0.36644   0.18426   0.65839   0.00000  Uiso   1.00
C429   C     0.38402   0.32222   0.43755   0.00000  Uiso   1.00
C430   C     0.36392   0.29806   0.39206   0.00000  Uiso   1.00
C431   C     0.34118   0.33430   0.35829   0.00000  Uiso   1.00
C432   C     0.11145   0.18668   0.43118   0.00000  Uiso   1.00
C433   C     0.12988   0.21512   0.38777   0.00000  Uiso   1.00
C434   C     0.22081   0.39526   0.47073   0.00000  Uiso   1.00
C435   C     0.13356   0.18426   0.34161   0.00000  Uiso   1.00
C436   C     0.23353   0.10374   0.46048   0.00000  Uiso   1.00
C437   C     0.27919   0.39526   0.52927   0.00000  Uiso   1.00
C438   C     0.26545   0.05309   0.54040   0.00000  Uiso   1.00
C439   C     0.22003   0.44583   0.47085   0.00000  Uiso   1.00
C440   C     0.23455   0.05308   0.45960   0.00000  Uiso   1.00
Cu441  Cu    0.25000   0.29822   0.50000   0.00000  Uiso   1.00
Cu442  Cu    0.25000   0.20178   0.50000   0.00000  Uiso   1.00
H443   H     0.02948   0.31131   0.55071   0.00000  Uiso   1.00
H444   H     0.26655   0.12036   0.61130   0.00000  Uiso   1.00
H445   H     0.15885   0.37942   0.44887   0.00000  Uiso   1.00
H446   H     0.19605   0.38055   0.40339   0.00000  Uiso   1.00
H447   H     0.18351   0.11189   0.41273   0.00000  Uiso   1.00
H448   H     0.23345   0.12036   0.38870   0.00000  Uiso   1.00
H449   H     0.34115   0.37942   0.55113   0.00000  Uiso   1.00
H450   H     0.30395   0.38055   0.59661   0.00000  Uiso   1.00
H451   H     0.18632   0.35202   0.62238   0.00000  Uiso   1.00
H452   H     0.13505   0.36188   0.65397   0.00000  Uiso   1.00
H453   H     0.17226   0.31555   0.34127   0.00000  Uiso   1.00
H454   H     0.47402   0.19674   0.55258   0.00000  Uiso   1.00
H455   H     0.10959   0.27988   0.62853   0.00000  Uiso   1.00
H456   H     0.16042   0.27080   0.59684   0.00000  Uiso   1.00
H457   H     0.14064   0.34355   0.54242   0.00000  Uiso   1.00
H458   H     0.09183   0.34923   0.57534   0.00000  Uiso   1.00
H459   H     0.34692   0.20329   0.35299   0.00000  Uiso   1.00
H460   H     0.34984   0.14982   0.65040   0.00000  Uiso   1.00
H461   H     0.39970   0.17675   0.34064   0.00000  Uiso   1.00
H462   H     0.39189   0.24606   0.62102   0.00000  Uiso   1.00
H463   H     0.33730   0.22944   0.60208   0.00000  Uiso   1.00
H464   H     0.36316   0.16390   0.55129   0.00000  Uiso   1.00
H465   H     0.47052   0.31131   0.44929   0.00000  Uiso   1.00
H466   H     0.41376   0.16114   0.58315   0.00000  Uiso   1.00
H467   H     0.31368   0.35202   0.37762   0.00000  Uiso   1.00
H468   H     0.36495   0.36187   0.34602   0.00000  Uiso   1.00
H469   H     0.32774   0.31555   0.65872   0.00000  Uiso   1.00
H470   H     0.39041   0.27988   0.37147   0.00000  Uiso   1.00
H471   H     0.33958   0.27080   0.40315   0.00000  Uiso   1.00
H472   H     0.35936   0.34354   0.45757   0.00000  Uiso   1.00
H473   H     0.40817   0.34923   0.42466   0.00000  Uiso   1.00
H474   H     0.15307   0.20330   0.64701   0.00000  Uiso   1.00
H475   H     0.15017   0.14982   0.34960   0.00000  Uiso   1.00
H476   H     0.02598   0.19674   0.44742   0.00000  Uiso   1.00
H477   H     0.10031   0.17675   0.65936   0.00000  Uiso   1.00
H478   H     0.10810   0.24606   0.37898   0.00000  Uiso   1.00
H479   H     0.16270   0.22944   0.39792   0.00000  Uiso   1.00
H480   H     0.13684   0.16390   0.44871   0.00000  Uiso   1.00
H481   H     0.08624   0.16114   0.41685   0.00000  Uiso   1.00
H482   H     0.27713   0.03493   0.57320   0.00000  Uiso   1.00
H483   H     0.19552   0.46387   0.44836   0.00000  Uiso   1.00
H484   H     0.22288   0.03493   0.42680   0.00000  Uiso   1.00
H485   H     0.30448   0.46387   0.55164   0.00000  Uiso   1.00
H486   H     0.31649   0.11189   0.58727   0.00000  Uiso   1.00
N487   N     0.25000   0.12934   0.50000   0.00000  Uiso   1.00
N488   N     0.25000   0.37066   0.50000   0.00000  Uiso   1.00
N489   N     0.28583   0.12766   0.58070   0.00000  Uiso   1.00
N490   N     0.19084   0.36957   0.43956   0.00000  Uiso   1.00
N491   N     0.21417   0.12766   0.41930   0.00000  Uiso   1.00
N492   N     0.30916   0.36957   0.56044   0.00000  Uiso   1.00
O493   O     0.18573   0.29072   0.50000   0.00000  Uiso   1.00
O494   O     0.31427   0.20928   0.50000   0.00000  Uiso   1.00
O495   O     0.31427   0.29072   0.50000   0.00000  Uiso   1.00
O496   O     0.18573   0.20929   0.50000   0.00000  Uiso   1.00
O497   O     0.25000   0.29071   0.42946   0.00000  Uiso   1.00
O498   O     0.25000   0.20929   0.57054   0.00000  Uiso   1.00
O499   O     0.25000   0.29071   0.57054   0.00000  Uiso   1.00
O500   O     0.25000   0.20929   0.42946   0.00000  Uiso   1.00
C501   C     0.66485   0.25023   0.49965   0.00000  Uiso   1.00
C502   C     0.77997   0.44583   0.52915   0.00000  Uiso   1.00
C503   C     0.75009   0.24999   0.40691   0.00000  Uiso   1.00
C504   C     0.74991   0.24999   0.59309   0.00000  Uiso   1.00
C505   C     0.75000   0.02663   0.50000   0.00000  Uiso   1.00
C506   C     0.75000   0.47226   0.50000   0.00000  Uiso   1.00
C507   C     0.75004   0.24993   0.35518   0.00000  Uiso   1.00
C508   C     0.74996   0.24993   0.64481   0.00000  Uiso   1.00
C509   C     0.54740   0.28611   0.52823   0.00000  Uiso   1.00
C510   C     0.95458   0.22081   0.52972   0.00000  Uiso   1.00
C511   C     0.95260   0.28611   0.47177   0.00000  Uiso   1.00
C512   C     0.83515   0.25023   0.50035   0.00000  Uiso   1.00
C513   C     0.54542   0.22081   0.47028   0.00000  Uiso   1.00
C514   C     0.59340   0.28584   0.52894   0.00000  Uiso   1.00
C515   C     0.90870   0.21974   0.53119   0.00000  Uiso   1.00
C516   C     0.90660   0.28584   0.47106   0.00000  Uiso   1.00
C517   C     0.59130   0.21975   0.46881   0.00000  Uiso   1.00
C518   C     0.61617   0.25153   0.49951   0.00000  Uiso   1.00
C519   C     0.88383   0.25153   0.50049   0.00000  Uiso   1.00
C520   C     0.52388   0.25359   0.49963   0.00000  Uiso   1.00
C521   C     0.97612   0.25359   0.50037   0.00000  Uiso   1.00
C522   C     0.61598   0.32223   0.56245   0.00000  Uiso   1.00
C523   C     0.76648   0.10374   0.53952   0.00000  Uiso   1.00
C524   C     0.63608   0.29806   0.60794   0.00000  Uiso   1.00
C525   C     0.65882   0.33430   0.64171   0.00000  Uiso   1.00
C526   C     0.88855   0.18668   0.56882   0.00000  Uiso   1.00
C527   C     0.87012   0.21512   0.61223   0.00000  Uiso   1.00
C528   C     0.86644   0.18426   0.65839   0.00000  Uiso   1.00
C529   C     0.88402   0.32222   0.43755   0.00000  Uiso   1.00
C530   C     0.86392   0.29806   0.39206   0.00000  Uiso   1.00
C531   C     0.84118   0.33430   0.35829   0.00000  Uiso   1.00
C532   C     0.61145   0.18668   0.43118   0.00000  Uiso   1.00
C533   C     0.62988   0.21512   0.38777   0.00000  Uiso   1.00
C534   C     0.72081   0.39526   0.47073   0.00000  Uiso   1.00
C535   C     0.63356   0.18426   0.34161   0.00000  Uiso   1.00
C536   C     0.73353   0.10374   0.46048   0.00000  Uiso   1.00
C537   C     0.77919   0.39526   0.52927   0.00000  Uiso   1.00
C538   C     0.76545   0.05309   0.54040   0.00000  Uiso   1.00
C539   C     0.72003   0.44583   0.47085   0.00000  Uiso   1.00
C540   C     0.73455   0.05308   0.45960   0.00000  Uiso   1.00
Cu541  Cu    0.75000   0.29822   0.50000   0.00000  Uiso   1.00
Cu542  Cu    0.75000   0.20178   0.50000   0.00000  Uiso   1.00
H543   H     0.52948   0.31131   0.55071   0.00000  Uiso   1.00
H544   H     0.76655   0.12036   0.61130   0.00000  Uiso   1.00
H545   H     0.65885   0.37942   0.44887   0.00000  Uiso   1.00
H546   H     0.69605   0.38055   0.40339   0.00000  Uiso   1.00
H547   H     0.68351   0.11189   0.41273   0.00000  Uiso   1.00
H548   H     0.73345   0.12036   0.38870   0.00000  Uiso   1.00
H549   H     0.84115   0.37942   0.55113   0.00000  Uiso   1.00
H550   H     0.80395   0.38055   0.59661   0.00000  Uiso   1.00
H551   H     0.68632   0.35202   0.62238   0.00000  Uiso   1.00
H552   H     0.63505   0.36188   0.65397   0.00000  Uiso   1.00
H553   H     0.67226   0.31555   0.34127   0.00000  Uiso   1.00
H554   H     0.97402   0.19674   0.55258   0.00000  Uiso   1.00
H555   H     0.60959   0.27988   0.62853   0.00000  Uiso   1.00
H556   H     0.66042   0.27080   0.59684   0.00000  Uiso   1.00
H557   H     0.64064   0.34355   0.54242   0.00000  Uiso   1.00
H558   H     0.59183   0.34923   0.57534   0.00000  Uiso   1.00
H559   H     0.84692   0.20329   0.35299   0.00000  Uiso   1.00
H560   H     0.84984   0.14982   0.65040   0.00000  Uiso   1.00
H561   H     0.89970   0.17675   0.34064   0.00000  Uiso   1.00
H562   H     0.89189   0.24606   0.62102   0.00000  Uiso   1.00
H563   H     0.83730   0.22944   0.60208   0.00000  Uiso   1.00
H564   H     0.86316   0.16390   0.55129   0.00000  Uiso   1.00
H565   H     0.97052   0.31131   0.44929   0.00000  Uiso   1.00
H566   H     0.91376   0.16114   0.58315   0.00000  Uiso   1.00
H567   H     0.81368   0.35202   0.37762   0.00000  Uiso   1.00
H568   H     0.86495   0.36187   0.34602   0.00000  Uiso   1.00
H569   H     0.82774   0.31555   0.65872   0.00000  Uiso   1.00
H570   H     0.89041   0.27988   0.37147   0.00000  Uiso   1.00
H571   H     0.83958   0.27080   0.40315   0.00000  Uiso   1.00
H572   H     0.85936   0.34354   0.45757   0.00000  Uiso   1.00
H573   H     0.90817   0.34923   0.42466   0.00000  Uiso   1.00
H574   H     0.65307   0.20330   0.64701   0.00000  Uiso   1.00
H575   H     0.65017   0.14982   0.34960   0.00000  Uiso   1.00
H576   H     0.52598   0.19674   0.44742   0.00000  Uiso   1.00
H577   H     0.60031   0.17675   0.65936   0.00000  Uiso   1.00
H578   H     0.60810   0.24606   0.37898   0.00000  Uiso   1.00
H579   H     0.66270   0.22944   0.39792   0.00000  Uiso   1.00
H580   H     0.63684   0.16390   0.44871   0.00000  Uiso   1.00
H581   H     0.58624   0.16114   0.41685   0.00000  Uiso   1.00
H582   H     0.77713   0.03493   0.57320   0.00000  Uiso   1.00
H583   H     0.69552   0.46387   0.44836   0.00000  Uiso   1.00
H584   H     0.72288   0.03493   0.42680   0.00000  Uiso   1.00
H585   H     0.80448   0.46387   0.55164   0.00000  Uiso   1.00
H586   H     0.81649   0.11189   0.58727   0.00000  Uiso   1.00
N587   N     0.75000   0.12934   0.50000   0.00000  Uiso   1.00
N588   N     0.75000   0.37066   0.50000   0.00000  Uiso   1.00
N589   N     0.78583   0.12766   0.58070   0.00000  Uiso   1.00
N590   N     0.69084   0.36957   0.43956   0.00000  Uiso   1.00
N591   N     0.71417   0.12766   0.41930   0.00000  Uiso   1.00
N592   N     0.80916   0.36957   0.56044   0.00000  Uiso   1.00
O593   O     0.68573   0.29072   0.50000   0.00000  Uiso   1.00
O594   O     0.81427   0.20928   0.50000   0.00000  Uiso   1.00
O595   O     0.81427   0.29072   0.50000   0.00000  Uiso   1.00
O596   O     0.68573   0.20929   0.50000   0.00000  Uiso   1.00
O597   O     0.75000   0.29071   0.42946   0.00000  Uiso   1.00
O598   O     0.75000   0.20929   0.57054   0.00000  Uiso   1.00
O599   O     0.75000   0.29071   0.57054   0.00000  Uiso   1.00
O600   O     0.75000   0.20929   0.42946   0.00000  Uiso   1.00
C601   C     0.16485   0.75023   0.49965   0.00000  Uiso   1.00
C602   C     0.27997   0.94583   0.52915   0.00000  Uiso   1.00
C603   C     0.25009   0.74999   0.40691   0.00000  Uiso   1.00
C604   C     0.24991   0.74999   0.59309   0.00000  Uiso   1.00
C605   C     0.25000   0.52663   0.50000   0.00000  Uiso   1.00
C606   C     0.25000   0.97226   0.50000   0.00000  Uiso   1.00
C607   C     0.25004   0.74993   0.35518   0.00000  Uiso   1.00
C608   C     0.24996   0.74993   0.64481   0.00000  Uiso   1.00
C609   C     0.04740   0.78611   0.52823   0.00000  Uiso   1.00
C610   C     0.45458   0.72081   0.52972   0.00000  Uiso   1.00
C611   C     0.45260   0.78611   0.47177   0.00000  Uiso   1.00
C612   C     0.33515   0.75023   0.50035   0.00000  Uiso   1.00
C613   C     0.04542   0.72081   0.47028   0.00000  Uiso   1.00
C614   C     0.09340   0.78584   0.52894   0.00000  Uiso   1.00
C615   C     0.40870   0.71974   0.53119   0.00000  Uiso   1.00
C616   C     0.40660   0.78584   0.47106   0.00000  Uiso   1.00
C617   C     0.09130   0.71975   0.46881   0.00000  Uiso   1.00
C618   C     0.11617   0.75153   0.49951   0.00000  Uiso   1.00
C619   C     0.38383   0.75153   0.50049   0.00000  Uiso   1.00
C620   C     0.02388   0.75359   0.49963   0.00000  Uiso   1.00
C621   C     0.47612   0.75359   0.50037   0.00000  Uiso   1.00
C622   C     0.11598   0.82223   0.56245   0.00000  Uiso   1.00
C623   C     0.26648   0.60374   0.53952   0.00000  Uiso   1.00
C624   C     0.13608   0.79806   0.60794   0.00000  Uiso   1.00
C625   C     0.15882   0.83430   0.64171   0.00000  Uiso   1.00
C626   C     0.38855   0.68668   0.56882   0.00000  Uiso   1.00
C627   C     0.37012   0.71512   0.61223   0.00000  Uiso   1.00
C628   C     0.36644   0.68426   0.65839   0.00000  Uiso   1.00
C629   C     0.38402   0.82222   0.43755   0.00000  Uiso   1.00
C630   C     0.36392   0.79806   0.39206   0.00000  Uiso   1.00
C631   C     0.34118   0.83430   0.35829   0.00000  Uiso   1.00
C632   C     0.11145   0.68668   0.43118   0.00000  Uiso   1.00
C633   C     0.12988   0.71512   0.38777   0.00000  Uiso   1.00
C634   C     0.22081   0.89526   0.47073   0.00000  Uiso   1.00
C635   C     0.13356   0.68426   0.34161   0.00000  Uiso   1.00
C636   C     0.23353   0.60374   0.46048   0.00000  Uiso   1.00
C637   C     0.27919   0.89526   0.52927   0.00000  Uiso   1.00
C638   C     0.26545   0.55309   0.54040   0.00000  Uiso   1.00
C639   C     0.22003   0.94583   0.47085   0.00000  Uiso   1.00
C640   C     0.23455   0.55308   0.45960   0.00000  Uiso   1.00
Cu641  Cu    0.25000   0.79822   0.50000   0.00000  Uiso   1.00
Cu642  Cu    0.25000   0.70178   0.50000   0.00000  Uiso   1.00
H643   H     0.02948   0.81131   0.55071   0.00000  Uiso   1.00
H644   H     0.26655   0.62036   0.61130   0.00000  Uiso   1.00
H645   H     0.15885   0.87942   0.44887   0.00000  Uiso   1.00
H646   H     0.19605   0.88055   0.40339   0.00000  Uiso   1.00
H647   H     0.18351   0.61189   0.41273   0.00000  Uiso   1.00
H648   H     0.23345   0.62036   0.38870   0.00000  Uiso   1.00
H649   H     0.34115   0.87942   0.55113   0.00000  Uiso   1.00
H650   H     0.30395   0.88055   0.59661   0.00000  Uiso   1.00
H651   H     0.18632   0.85202   0.62238   0.00000  Uiso   1.00
H652   H     0.13505   0.86188   0.65397   0.00000  Uiso   1.00
H653   H     0.17226   0.81555   0.34127   0.00000  Uiso   1.00
H654   H     0.47402   0.69674   0.55258   0.00000  Uiso   1.00
H655   H     0.10959   0.77988   0.62853   0.00000  Uiso   1.00
H656   H     0.16042   0.77080   0.59684   0.00000  Uiso   1.00
H657   H     0.14064   0.84355   0.54242   0.00000  Uiso   1.00
H658   H     0.09183   0.84923   0.57534   0.00000  Uiso   1.00
H659   H     0.34692   0.70329   0.35299   0.00000  Uiso   1.00
H660   H     0.34984   0.64982   0.65040   0.00000  Uiso   1.00
H661   H     0.39970   0.67675   0.34064   0.00000  Uiso   1.00
H662   H     0.39189   0.74606   0.62102   0.00000  Uiso   1.00
H663   H     0.33730   0.72944   0.60208   0.00000  Uiso   1.00
H664   H     0.36316   0.66390   0.55129   0.00000  Uiso   1.00
H665   H     0.47052   0.81131   0.44929   0.00000  Uiso   1.00
H666   H     0.41376   0.66114   0.58315   0.00000  Uiso   1.00
H667   H     0.31368   0.85202   0.37762   0.00000  Uiso   1.00
H668   H     0.36495   0.86187   0.34602   0.00000  Uiso   1.00
H669   H     0.32774   0.81555   0.65872   0.00000  Uiso   1.00
H670   H     0.39041   0.77988   0.37147   0.00000  Uiso   1.00
H671   H     0.33958   0.77080   0.40315   0.00000  Uiso   1.00
H672   H     0.35936   0.84354   0.45757   0.00000  Uiso   1.00
H673   H     0.40817   0.84923   0.42466   0.00000  Uiso   1.00
H674   H     0.15307   0.70330   0.64701   0.00000  Uiso   1.00
H675   H     0.15017   0.64982   0.34960   0.00000  Uiso   1.00
H676   H     0.02598   0.69674   0.44742   0.00000  Uiso   1.00
H677   H     0.10031   0.67675   0.65936   0.00000  Uiso   1.00
H678   H     0.10810   0.74606   0.37898   0.00000  Uiso   1.00
H679   H     0.16270   0.72944   0.39792   0.00000  Uiso   1.00
H680   H     0.13684   0.66390   0.44871   0.00000  Uiso   1.00
H681   H     0.08624   0.66114   0.41685   0.00000  Uiso   1.00
H682   H     0.27713   0.53493   0.57320   0.00000  Uiso   1.00
H683   H     0.19552   0.96387   0.44836   0.00000  Uiso   1.00
H684   H     0.22288   0.53493   0.42680   0.00000  Uiso   1.00
H685   H     0.30448   0.96387   0.55164   0.00000  Uiso   1.00
H686   H     0.31649   0.61189   0.58727   0.00000  Uiso   1.00
N687   N     0.25000   0.62934   0.50000   0.00000  Uiso   1.00
N688   N     0.25000   0.87066   0.50000   0.00000  Uiso   1.00
N689   N     0.28583   0.62766   0.58070   0.00000  Uiso   1.00
N690   N     0.19084   0.86957   0.43956   0.00000  Uiso   1.00
N691   N     0.21417   0.62766   0.41930   0.00000  Uiso   1.00
N692   N     0.30916   0.86957   0.56044   0.00000  Uiso   1.00
O693   O     0.18573   0.79072   0.50000   0.00000  Uiso   1.00
O694   O     0.31427   0.70928   0.50000   0.00000  Uiso   1.00
O695   O     0.31427   0.79072   0.50000   0.00000  Uiso   1.00
O696   O     0.18573   0.70929   0.50000   0.00000  Uiso   1.00
O697   O     0.25000   0.79071   0.42946   0.00000  Uiso   1.00
O698   O     0.25000   0.70929   0.57054   0.00000  Uiso   1.00
O699   O     0.25000   0.79071   0.57054   0.00000  Uiso   1.00
O700   O     0.25000   0.70929   0.42946   0.00000  Uiso   1.00
C701   C     0.66485   0.75023   0.49965   0.00000  Uiso   1.00
C702   C     0.77997   0.94583   0.52915   0.00000  Uiso   1.00
C703   C     0.75009   0.74999   0.40691   0.00000  Uiso   1.00
C704   C     0.74991   0.74999   0.59309   0.00000  Uiso   1.00
C705   C     0.75000   0.52663   0.50000   0.00000  Uiso   1.00
C706   C     0.75000   0.97226   0.50000   0.00000  Uiso   1.00
C707   C     0.75004   0.74993   0.35518   0.00000  Uiso   1.00
C708   C     0.74996   0.74993   0.64481   0.00000  Uiso   1.00
C709   C     0.54740   0.78611   0.52823   0.00000  Uiso   1.00
C710   C     0.95458   0.72081   0.52972   0.00000  Uiso   1.00
C711   C     0.95260   0.78611   0.47177   0.00000  Uiso   1.00
C712   C     0.83515   0.75023   0.50035   0.00000  Uiso   1.00
C713   C     0.54542   0.72081   0.47028   0.00000  Uiso   1.00
C714   C     0.59340   0.78584   0.52894   0.00000  Uiso   1.00
C715   C     0.90870   0.71974   0.53119   0.00000  Uiso   1.00
C716   C     0.90660   0.78584   0.47106   0.00000  Uiso   1.00
C717   C     0.59130   0.71975   0.46881   0.00000  Uiso   1.00
C718   C     0.61617   0.75153   0.49951   0.00000  Uiso   1.00
C719   C     0.88383   0.75153   0.50049   0.00000  Uiso   1.00
C720   C     0.52388   0.75359   0.49963   0.00000  Uiso   1.00
C721   C     0.97612   0.75359   0.50037   0.00000  Uiso   1.00
C722   C     0.61598   0.82223   0.56245   0.00000  Uiso   1.00
C723   C     0.76648   0.60374   0.53952   0.00000  Uiso   1.00
C724   C     0.63608   0.79806   0.60794   0.00000  Uiso   1.00
C725   C     0.65882   0.83430   0.64171   0.00000  Uiso   1.00
C726   C     0.88855   0.68668   0.56882   0.00000  Uiso   1.00
C727   C     0.87012   0.71512   0.61223   0.00000  Uiso   1.00
C728   C     0.86644   0.68426   0.65839   0.00000  Uiso   1.00
C729   C     0.88402   0.82222   0.43755   0.00000  Uiso   1.00
C730   C     0.86392   0.79806   0.39206   0.00000  Uiso   1.00
C731   C     0.84118   0.83430   0.35829   0.00000  Uiso   1.00
C732   C     0.61145   0.68668   0.43118   0.00000  Uiso   1.00
C733   C     0.62988   0.71512   0.38777   0.00000  Uiso   1.00
C734   C     0.72081   0.89526   0.47073   0.00000  Uiso   1.00
C735   C     0.63356   0.68426   0.34161   0.00000  Uiso   1.00
C736   C     0.73353   0.60374   0.46048   0.00000  Uiso   1.00
C737   C     0.77919   0.89526   0.52927   0.00000  Uiso   1.00
C738   C     0.76545   0.55309   0.54040   0.00000  Uiso   1.00
C739   C     0.72003   0.94583   0.47085   0.00000  Uiso   1.00
C740   C     0.73455   0.55308   0.45960   0.00000  Uiso   1.00
Cu741  Cu    0.75000   0.79822   0.50000   0.00000  Uiso   1.00
Cu742  Cu    0.75000   0.70178   0.50000   0.00000  Uiso   1.00
H743   H     0.52948   0.81131   0.55071   0.00000  Uiso   1.00
H744   H     0.76655   0.62036   0.61130   0.00000  Uiso   1.00
H745   H     0.65885   0.87942   0.44887   0.00000  Uiso   1.00
H746   H     0.69605   0.88055   0.40339   0.00000  Uiso   1.00
H747   H     0.68351   0.61189   0.41273   0.00000  Uiso   1.00
H748   H     0.73345   0.62036   0.38870   0.00000  Uiso   1.00
H749   H     0.84115   0.87942   0.55113   0.00000  Uiso   1.00
H750   H     0.80395   0.88055   0.59661   0.00000  Uiso   1.00
H751   H     0.68632   0.85202   0.62238   0.00000  Uiso   1.00
H752   H     0.63505   0.86188   0.65397   0.00000  Uiso   1.00
H753   H     0.67226   0.81555   0.34127   0.00000  Uiso   1.00
H754   H     0.97402   0.69674   0.55258   0.00000  Uiso   1.00
H755   H     0.60959   0.77988   0.62853   0.00000  Uiso   1.00
H756   H     0.66042   0.77080   0.59684   0.00000  Uiso   1.00
H757   H     0.64064   0.84355   0.54242   0.00000  Uiso   1.00
H758   H     0.59183   0.84923   0.57534   0.00000  Uiso   1.00
H759   H     0.84692   0.70329   0.35299   0.00000  Uiso   1.00
H760   H     0.84984   0.64982   0.65040   0.00000  Uiso   1.00
H761   H     0.89970   0.67675   0.34064   0.00000  Uiso   1.00
H762   H     0.89189   0.74606   0.62102   0.00000  Uiso   1.00
H763   H     0.83730   0.72944   0.60208   0.00000  Uiso   1.00
H764   H     0.86316   0.66390   0.55129   0.00000  Uiso   1.00
H765   H     0.97052   0.81131   0.44929   0.00000  Uiso   1.00
H766   H     0.91376   0.66114   0.58315   0.00000  Uiso   1.00
H767   H     0.81368   0.85202   0.37762   0.00000  Uiso   1.00
H768   H     0.86495   0.86187   0.34602   0.00000  Uiso   1.00
H769   H     0.82774   0.81555   0.65872   0.00000  Uiso   1.00
H770   H     0.89041   0.77988   0.37147   0.00000  Uiso   1.00
H771   H     0.83958   0.77080   0.40315   0.00000  Uiso   1.00
H772   H     0.85936   0.84354   0.45757   0.00000  Uiso   1.00
H773   H     0.90817   0.84923   0.42466   0.00000  Uiso   1.00
H774   H     0.65307   0.70330   0.64701   0.00000  Uiso   1.00
H775   H     0.65017   0.64982   0.34960   0.00000  Uiso   1.00
H776   H     0.52598   0.69674   0.44742   0.00000  Uiso   1.00
H777   H     0.60031   0.67675   0.65936   0.00000  Uiso   1.00
H778   H     0.60810   0.74606   0.37898   0.00000  Uiso   1.00
H779   H     0.66270   0.72944   0.39792   0.00000  Uiso   1.00
H780   H     0.63684   0.66390   0.44871   0.00000  Uiso   1.00
H781   H     0.58624   0.66114   0.41685   0.00000  Uiso   1.00
H782   H     0.77713   0.53493   0.57320   0.00000  Uiso   1.00
H783   H     0.69552   0.96387   0.44836   0.00000  Uiso   1.00
H784   H     0.72288   0.53493   0.42680   0.00000  Uiso   1.00
H785   H     0.80448   0.96387   0.55164   0.00000  Uiso   1.00
H786   H     0.81649   0.61189   0.58727   0.00000  Uiso   1.00
N787   N     0.75000   0.62934   0.50000   0.00000  Uiso   1.00
N788   N     0.75000   0.87066   0.50000   0.00000  Uiso   1.00
N789   N     0.78583   0.62766   0.58070   0.00000  Uiso   1.00
N790   N     0.69084   0.86957   0.43956   0.00000  Uiso   1.00
N791   N     0.71417   0.62766   0.41930   0.00000  Uiso   1.00
N792   N     0.80916   0.86957   0.56044   0.00000  Uiso   1.00
O793   O     0.68573   0.79072   0.50000   0.00000  Uiso   1.00
O794   O     0.81427   0.70928   0.50000   0.00000  Uiso   1.00
O795   O     0.81427   0.79072   0.50000   0.00000  Uiso   1.00
O796   O     0.68573   0.70929   0.50000   0.00000  Uiso   1.00
O797   O     0.75000   0.79071   0.42946   0.00000  Uiso   1.00
O798   O     0.75000   0.70929   0.57054   0.00000  Uiso   1.00
O799   O     0.75000   0.79071   0.57054   0.00000  Uiso   1.00
O800   O     0.75000   0.70929   0.42946   0.00000  Uiso   1.00
C801   C     0.16485   0.25023   0.83298   0.00000  Uiso   1.00
C802   C     0.27997   0.44583   0.86248   0.00000  Uiso   1.00
C803   C     0.25009   0.24999   0.74024   0.00000  Uiso   1.00
C804   C     0.24991   0.24999   0.92642   0.00000  Uiso   1.00
C805   C     0.25000   0.02663   0.83333   0.00000  Uiso   1.00
C806   C     0.25000   0.47226   0.83333   0.00000  Uiso   1.00
C807   C     0.25004   0.24993   0.68852   0.00000  Uiso   1.00
C808   C     0.24996   0.24993   0.97815   0.00000  Uiso   1.00
C809   C     0.04740   0.28611   0.86156   0.00000  Uiso   1.00
C810   C     0.45458   0.22081   0.86305   0.00000  Uiso   1.00
C811   C     0.45260   0.28611   0.80510   0.00000  Uiso   1.00
C812   C     0.33515   0.25023   0.83369   0.00000  Uiso   1.00
C813   C     0.04542   0.22081   0.80361   0.00000  Uiso   1.00
C814   C     0.09340   0.28584   0.86227   0.00000  Uiso   1.00
C815   C     0.40870   0.21974   0.86452   0.00000  Uiso   1.00
C816   C     0.40660   0.28584   0.80439   0.00000  Uiso   1.00
C817   C     0.09130   0.21975   0.80214   0.00000  Uiso   1.00
C818   C     0.11617   0.25153   0.83285   0.00000  Uiso   1.00
C819   C     0.38383   0.25153   0.83382   0.00000  Uiso   1.00
C820   C     0.02388   0.25359   0.83296   0.00000  Uiso   1.00
C821   C     0.47612   0.25359   0.83371   0.00000  Uiso   1.00
C822   C     0.11598   0.32223   0.89578   0.00000  Uiso   1.00
C823   C     0.26648   0.10374   0.87286   0.00000  Uiso   1.00
C824   C     0.13608   0.29806   0.94128   0.00000  Uiso   1.00
C825   C     0.15882   0.33430   0.97504   0.00000  Uiso   1.00
C826   C     0.38855   0.18668   0.90215   0.00000  Uiso   1.00
C827   C     0.37012   0.21512   0.94556   0.00000  Uiso   1.00
C828   C     0.36644   0.18426   0.99173   0.00000  Uiso   1.00
C829   C     0.38402   0.32222   0.77088   0.00000  Uiso   1.00
C830   C     0.36392   0.29806   0.72539   0.00000  Uiso   1.00
C831   C     0.34118   0.33430   0.69162   0.00000  Uiso   1.00
C832   C     0.11145   0.18668   0.76452   0.00000  Uiso   1.00
C833   C     0.12988   0.21512   0.72110   0.00000  Uiso   1.00
C834   C     0.22081   0.39526   0.80407   0.00000  Uiso   1.00
C835   C     0.13356   0.18426   0.67494   0.00000  Uiso   1.00
C836   C     0.23353   0.10374   0.79381   0.00000  Uiso   1.00
C837   C     0.27919   0.39526   0.86260   0.00000  Uiso   1.00
C838   C     0.26545   0.05309   0.87374   0.00000  Uiso   1.00
C839   C     0.22003   0.44583   0.80418   0.00000  Uiso   1.00
C840   C     0.23455   0.05308   0.79293   0.00000  Uiso   1.00
Cu841  Cu    0.25000   0.29822   0.83333   0.00000  Uiso   1.00
Cu842  Cu    0.25000   0.20178   0.83333   0.00000  Uiso   1.00
H843   H     0.02948   0.31131   0.88404   0.00000  Uiso   1.00
H844   H     0.26655   0.12036   0.94463   0.00000  Uiso   1.00
H845   H     0.15885   0.37942   0.78220   0.00000  Uiso   1.00
H846   H     0.19605   0.38055   0.73673   0.00000  Uiso   1.00
H847   H     0.18351   0.11189   0.74606   0.00000  Uiso   1.00
H848   H     0.23345   0.12036   0.72203   0.00000  Uiso   1.00
H849   H     0.34115   0.37942   0.88446   0.00000  Uiso   1.00
H850   H     0.30395   0.38055   0.92994   0.00000  Uiso   1.00
H851   H     0.18632   0.35202   0.95571   0.00000  Uiso   1.00
H852   H     0.13505   0.36188   0.98731   0.00000  Uiso   1.00
H853   H     0.17226   0.31555   0.67461   0.00000  Uiso   1.00
H854   H     0.47402   0.19674   0.88591   0.00000  Uiso   1.00
H855   H     0.10959   0.27988   0.96186   0.00000  Uiso   1.00
H856   H     0.16042   0.27080   0.93018   0.00000  Uiso   1.00
H857   H     0.14064   0.34355   0.87576   0.00000  Uiso   1.00
H858   H     0.09183   0.34923   0.90867   0.00000  Uiso   1.00
H859   H     0.34692   0.20329   0.68632   0.00000  Uiso   1.00
H860   H     0.34984   0.14982   0.98373   0.00000  Uiso   1.00
H861   H     0.39970   0.17675   0.67397   0.00000  Uiso   1.00
H862   H     0.39189   0.24606   0.95435   0.00000  Uiso   1.00
H863   H     0.33730   0.22944   0.93541   0.00000  Uiso   1.00
H864   H     0.36316   0.16390   0.88462   0.00000  Uiso   1.00
H865   H     0.47052   0.31131   0.78262   0.00000  Uiso   1.00
H866   H     0.41376   0.16114   0.91649   0.00000  Uiso   1.00
H867   H     0.31368   0.35202   0.71095   0.00000  Uiso   1.00
H868   H     0.36495   0.36187   0.67936   0.00000  Uiso   1.00
H869   H     0.32774   0.31555   0.99206   0.00000  Uiso   1.00
H870   H     0.39041   0.27988   0.70480   0.00000  Uiso   1.00
H871   H     0.33958   0.27080   0.73649   0.00000  Uiso   1.00
H872   H     0.35936   0.34354   0.79091   0.00000  Uiso   1.00
H873   H     0.40817   0.34923   0.75799   0.00000  Uiso   1.00
H874   H     0.15307   0.20330   0.98034   0.00000  Uiso   1.00
H875   H     0.15017   0.14982   0.68293   0.00000  Uiso   1.00
H876   H     0.02598   0.19674   0.78076   0.00000  Uiso   1.00
H877   H     0.10031   0.17675   0.99270   0.00000  Uiso   1.00
H878   H     0.10810   0.24606   0.71231   0.00000  Uiso   1.00
H879   H     0.16270   0.22944   0.73125   0.00000  Uiso   1.00
H880   H     0.13684   0.16390   0.78204   0.00000  Uiso   1.00
H881   H     0.08624   0.16114   0.75018   0.00000  Uiso   1.00
H882   H     0.27713   0.03493   0.90653   0.00000  Uiso   1.00
H883   H     0.19552   0.46387   0.78170   0.00000  Uiso   1.00
H884   H     0.22288   0.03493   0.76014   0.00000  Uiso   1.00
H885   H     0.30448   0.46387   0.88497   0.00000  Uiso   1.00
H886   H     0.31649   0.11189   0.92061   0.00000  Uiso   1.00
N887   N     0.25000   0.12934   0.83333   0.00000  Uiso   1.00
N888   N     0.25000   0.37066   0.83333   0.00000  Uiso   1.00
N889   N     0.28583   0.12766   0.91403   0.00000  Uiso   1.00
N890   N     0.19084   0.36957   0.77289   0.00000  Uiso   1.00
N891   N     0.21417   0.12766   0.75264   0.00000  Uiso   1.00
N892   N     0.30916   0.36957   0.89378   0.00000  Uiso   1.00
O893   O     0.18573   0.29072   0.83334   0.00000  Uiso   1.00
O894   O     0.31427   0.20928   0.83333   0.00000  Uiso   1.00
O895   O     0.31427   0.29072   0.83333   0.00000  Uiso   1.00
O896   O     0.18573   0.20929   0.83334   0.00000  Uiso   1.00
O897   O     0.25000   0.29071   0.76280   0.00000  Uiso   1.00
O898   O     0.25000   0.20929   0.90387   0.00000  Uiso   1.00
O899   O     0.25000   0.29071   0.90387   0.00000  Uiso   1.00
O900   O     0.25000   0.20929   0.76280   0.00000  Uiso   1.00
C901   C     0.66485   0.25023   0.83298   0.00000  Uiso   1.00
C902   C     0.77997   0.44583   0.86248   0.00000  Uiso   1.00
C903   C     0.75009   0.24999   0.74024   0.00000  Uiso   1.00
C904   C     0.74991   0.24999   0.92642   0.00000  Uiso   1.00
C905   C     0.75000   0.02663   0.83333   0.00000  Uiso   1.00
C906   C     0.75000   0.47226   0.83333   0.00000  Uiso   1.00
C907   C     0.75004   0.24993   0.68852   0.00000  Uiso   1.00
C908   C     0.74996   0.24993   0.97815   0.00000  Uiso   1.00
C909   C     0.54740   0.28611   0.86156   0.00000  Uiso   1.00
C910   C     0.95458   0.22081   0.86305   0.00000  Uiso   1.00
C911   C     0.95260   0.28611   0.80510   0.00000  Uiso   1.00
C912   C     0.83515   0.25023   0.83369   0.00000  Uiso   1.00
C913   C     0.54542   0.22081   0.80361   0.00000  Uiso   1.00
C914   C     0.59340   0.28584   0.86227   0.00000  Uiso   1.00
C915   C     0.90870   0.21974   0.86452   0.00000  Uiso   1.00
C916   C     0.90660   0.28584   0.80439   0.00000  Uiso   1.00
C917   C     0.59130   0.21975   0.80214   0.00000  Uiso   1.00
C918   C     0.61617   0.25153   0.83285   0.00000  Uiso   1.00
C919   C     0.88383   0.25153   0.83382   0.00000  Uiso   1.00
C920   C     0.52388   0.25359   0.83296   0.00000  Uiso   1.00
C921   C     0.97612   0.25359   0.83371   0.00000  Uiso   1.00
C922   C     0.61598   0.32223   0.89578   0.00000  Uiso   1.00
C923   C     0.76648   0.10374   0.87286   0.00000  Uiso   1.00
C924   C     0.63608   0.29806   0.94128   0.00000  Uiso   1.00
C925   C     0.65882   0.33430   0.97504   0.00000  Uiso   1.00
C926   C     0.88855   0.18668   0.90215   0.00000  Uiso   1.00
C927   C     0.87012   0.21512   0.94556   0.00000  Uiso   1.00
C928   C     0.86644   0.18426   0.99173   0.00000  Uiso   1.00
C929   C     0.88402   0.32222   0.77088   0.00000  Uiso   1.00
C930   C     0.86392   0.29806   0.72539   0.00000  Uiso   1.00
C931   C     0.84118   0.33430   0.69162   0.00000  Uiso   1.00
C932   C     0.61145   0.18668   0.76452   0.00000  Uiso   1.00
C933   C     0.62988   0.21512   0.72110   0.00000  Uiso   1.00
C934   C     0.72081   0.39526   0.80407   0.00000  Uiso   1.00
C935   C     0.63356   0.18426   0.67494   0.00000  Uiso   1.00
C936   C     0.73353   0.10374   0.79381   0.00000  Uiso   1.00
C937   C     0.77919   0.39526   0.86260   0.00000  Uiso   1.00
C938   C     0.76545   0.05309   0.87374   0.00000  Uiso   1.00
C939   C     0.72003   0.44583   0.80418   0.00000  Uiso   1.00
C940   C     0.73455   0.05308   0.79293   0.00000  Uiso   1.00
Cu941  Cu    0.75000   0.29822   0.83333   0.00000  Uiso   1.00
Cu942  Cu    0.75000   0.20178   0.83333   0.00000  Uiso   1.00
H943   H     0.52948   0.31131   0.88404   0.00000  Uiso   1.00
H944   H     0.76655   0.12036   0.94463   0.00000  Uiso   1.00
H945   H     0.65885   0.37942   0.78220   0.00000  Uiso   1.00
H946   H     0.69605   0.38055   0.73673   0.00000  Uiso   1.00
H947   H     0.68351   0.11189   0.74606   0.00000  Uiso   1.00
H948   H     0.73345   0.12036   0.72203   0.00000  Uiso   1.00
H949   H     0.84115   0.37942   0.88446   0.00000  Uiso   1.00
H950   H     0.80395   0.38055   0.92994   0.00000  Uiso   1.00
H951   H     0.68632   0.35202   0.95571   0.00000  Uiso   1.00
H952   H     0.63505   0.36188   0.98731   0.00000  Uiso   1.00
H953   H     0.67226   0.31555   0.67461   0.00000  Uiso   1.00
H954   H     0.97402   0.19674   0.88591   0.00000  Uiso   1.00
H955   H     0.60959   0.27988   0.96186   0.00000  Uiso   1.00
H956   H     0.66042   0.27080   0.93018   0.00000  Uiso   1.00
H957   H     0.64064   0.34355   0.87576   0.00000  Uiso   1.00
H958   H     0.59183   0.34923   0.90867   0.00000  Uiso   1.00
H959   H     0.84692   0.20329   0.68632   0.00000  Uiso   1.00
H960   H     0.84984   0.14982   0.98373   0.00000  Uiso   1.00
H961   H     0.89970   0.17675   0.67397   0.00000  Uiso   1.00
H962   H     0.89189   0.24606   0.95435   0.00000  Uiso   1.00
H963   H     0.83730   0.22944   0.93541   0.00000  Uiso   1.00
H964   H     0.86316   0.16390   0.88462   0.00000  Uiso   1.00
H965   H     0.97052   0.31131   0.78262   0.00000  Uiso   1.00
H966   H     0.91376   0.16114   0.91649   0.00000  Uiso   1.00
H967   H     0.81368   0.35202   0.71095   0.00000  Uiso   1.00
H968   H     0.86495   0.36187   0.67936   0.00000  Uiso   1.00
H969   H     0.82774   0.31555   0.99206   0.00000  Uiso   1.00
H970   H     0.89041   0.27988   0.70480   0.00000  Uiso   1.00
H971   H     0.83958   0.27080   0.73649   0.00000  Uiso   1.00
H972   H     0.85936   0.34354   0.79091   0.00000  Uiso   1.00
H973   H     0.90817   0.34923   0.75799   0.00000  Uiso   1.00
H974   H     0.65307   0.20330   0.98034   0.00000  Uiso   1.00
H975   H     0.65017   0.14982   0.68293   0.00000  Uiso   1.00
H976   H     0.52598   0.19674   0.78076   0.00000  Uiso   1.00
H977   H     0.60031   0.17675   0.99270   0.00000  Uiso   1.00
H978   H     0.60810   0.24606   0.71231   0.00000  Uiso   1.00
H979   H     0.66270   0.22944   0.73125   0.00000  Uiso   1.00
H980   H     0.63684   0.16390   0.78204   0.00000  Uiso   1.00
H981   H     0.58624   0.16114   0.75018   0.00000  Uiso   1.00
H982   H     0.77713   0.03493   0.90653   0.00000  Uiso   1.00
H983   H     0.69552   0.46387   0.78170   0.00000  Uiso   1.00
H984   H     0.72288   0.03493   0.76014   0.00000  Uiso   1.00
H985   H     0.80448   0.46387   0.88497   0.00000  Uiso   1.00
H986   H     0.81649   0.11189   0.92061   0.00000  Uiso   1.00
N987   N     0.75000   0.12934   0.83333   0.00000  Uiso   1.00
N988   N     0.75000   0.37066   0.83333   0.00000  Uiso   1.00
N989   N     0.78583   0.12766   0.91403   0.00000  Uiso   1.00
N990   N     0.69084   0.36957   0.77289   0.00000  Uiso   1.00
N991   N     0.71417   0.12766   0.75264   0.00000  Uiso   1.00
N992   N     0.80916   0.36957   0.89378   0.00000  Uiso   1.00
O993   O     0.68573   0.29072   0.83334   0.00000  Uiso   1.00
O994   O     0.81427   0.20928   0.83333   0.00000  Uiso   1.00
O995   O     0.81427   0.29072   0.83333   0.00000  Uiso   1.00
O996   O     0.68573   0.20929   0.83334   0.00000  Uiso   1.00
O997   O     0.75000   0.29071   0.76280   0.00000  Uiso   1.00
O998   O     0.75000   0.20929   0.90387   0.00000  Uiso   1.00
O999   O     0.75000   0.29071   0.90387   0.00000  Uiso   1.00
O1000  O     0.75000   0.20929   0.76280   0.00000  Uiso   1.00
C1001  C     0.16485   0.75023   0.83298   0.00000  Uiso   1.00
C1002  C     0.27997   0.94583   0.86248   0.00000  Uiso   1.00
C1003  C     0.25009   0.74999   0.74024   0.00000  Uiso   1.00
C1004  C     0.24991   0.74999   0.92642   0.00000  Uiso   1.00
C1005  C     0.25000   0.52663   0.83333   0.00000  Uiso   1.00
C1006  C     0.25000   0.97226   0.83333   0.00000  Uiso   1.00
C1007  C     0.25004   0.74993   0.68852   0.00000  Uiso   1.00
C1008  C     0.24996   0.74993   0.97815   0.00000  Uiso   1.00
C1009  C     0.04740   0.78611   0.86156   0.00000  Uiso   1.00
C1010  C     0.45458   0.72081   0.86305   0.00000  Uiso   1.00
C1011  C     0.45260   0.78611   0.80510   0.00000  Uiso   1.00
C1012  C     0.33515   0.75023   0.83369   0.00000  Uiso   1.00
C1013  C     0.04542   0.72081   0.80361   0.00000  Uiso   1.00
C1014  C     0.09340   0.78584   0.86227   0.00000  Uiso   1.00
C1015  C     0.40870   0.71974   0.86452   0.00000  Uiso   1.00
C1016  C     0.40660   0.78584   0.80439   0.00000  Uiso   1.00
C1017  C     0.09130   0.71975   0.80214   0.00000  Uiso   1.00
C1018  C     0.11617   0.75153   0.83285   0.00000  Uiso   1.00
C1019  C     0.38383   0.75153   0.83382   0.00000  Uiso   1.00
C1020  C     0.02388   0.75359   0.83296   0.00000  Uiso   1.00
C1021  C     0.47612   0.75359   0.83371   0.00000  Uiso   1.00
C1022  C     0.11598   0.82223   0.89578   0.00000  Uiso   1.00
C1023  C     0.26648   0.60374   0.87286   0.00000  Uiso   1.00
C1024  C     0.13608   0.79806   0.94128   0.00000  Uiso   1.00
C1025  C     0.15882   0.83430   0.97504   0.00000  Uiso   1.00
C1026  C     0.38855   0.68668   0.90215   0.00000  Uiso   1.00
C1027  C     0.37012   0.71512   0.94556   0.00000  Uiso   1.00
C1028  C     0.36644   0.68426   0.99173   0.00000  Uiso   1.00
C1029  C     0.38402   0.82222   0.77088   0.00000  Uiso   1.00
C1030  C     0.36392   0.79806   0.72539   0.00000  Uiso   1.00
C1031  C     0.34118   0.83430   0.69162   0.00000  Uiso   1.00
C1032  C     0.11145   0.68668   0.76452   0.00000  Uiso   1.00
C1033  C     0.12988   0.71512   0.72110   0.00000  Uiso   1.00
C1034  C     0.22081   0.89526   0.80407   0.00000  Uiso   1.00
C1035  C     0.13356   0.68426   0.67494   0.00000  Uiso   1.00
C1036  C     0.23353   0.60374   0.79381   0.00000  Uiso   1.00
C1037  C     0.27919   0.89526   0.86260   0.00000  Uiso   1.00
C1038  C     0.26545   0.55309   0.87374   0.00000  Uiso   1.00
C1039  C     0.22003   0.94583   0.80418   0.00000  Uiso   1.00
C1040  C     0.23455   0.55308   0.79293   0.00000  Uiso   1.00
Cu1041 Cu    0.25000   0.79822   0.83333   0.00000  Uiso   1.00
Cu1042 Cu    0.25000   0.70178   0.83333   0.00000  Uiso   1.00
H1043  H     0.02948   0.81131   0.88404   0.00000  Uiso   1.00
H1044  H     0.26655   0.62036   0.94463   0.00000  Uiso   1.00
H1045  H     0.15885   0.87942   0.78220   0.00000  Uiso   1.00
H1046  H     0.19605   0.88055   0.73673   0.00000  Uiso   1.00
H1047  H     0.18351   0.61189   0.74606   0.00000  Uiso   1.00
H1048  H     0.23345   0.62036   0.72203   0.00000  Uiso   1.00
H1049  H     0.34115   0.87942   0.88446   0.00000  Uiso   1.00
H1050  H     0.30395   0.88055   0.92994   0.00000  Uiso   1.00
H1051  H     0.18632   0.85202   0.95571   0.00000  Uiso   1.00
H1052  H     0.13505   0.86188   0.98731   0.00000  Uiso   1.00
H1053  H     0.17226   0.81555   0.67461   0.00000  Uiso   1.00
H1054  H     0.47402   0.69674   0.88591   0.00000  Uiso   1.00
H1055  H     0.10959   0.77988   0.96186   0.00000  Uiso   1.00
H1056  H     0.16042   0.77080   0.93018   0.00000  Uiso   1.00
H1057  H     0.14064   0.84355   0.87576   0.00000  Uiso   1.00
H1058  H     0.09183   0.84923   0.90867   0.00000  Uiso   1.00
H1059  H     0.34692   0.70329   0.68632   0.00000  Uiso   1.00
H1060  H     0.34984   0.64982   0.98373   0.00000  Uiso   1.00
H1061  H     0.39970   0.67675   0.67397   0.00000  Uiso   1.00
H1062  H     0.39189   0.74606   0.95435   0.00000  Uiso   1.00
H1063  H     0.33730   0.72944   0.93541   0.00000  Uiso   1.00
H1064  H     0.36316   0.66390   0.88462   0.00000  Uiso   1.00
H1065  H     0.47052   0.81131   0.78262   0.00000  Uiso   1.00
H1066  H     0.41376   0.66114   0.91649   0.00000  Uiso   1.00
H1067  H     0.31368   0.85202   0.71095   0.00000  Uiso   1.00
H1068  H     0.36495   0.86187   0.67936   0.00000  Uiso   1.00
H1069  H     0.32774   0.81555   0.99206   0.00000  Uiso   1.00
H1070  H     0.39041   0.77988   0.70480   0.00000  Uiso   1.00
H1071  H     0.33958   0.77080   0.73649   0.00000  Uiso   1.00
H1072  H     0.35936   0.84354   0.79091   0.00000  Uiso   1.00
H1073  H     0.40817   0.84923   0.75799   0.00000  Uiso   1.00
H1074  H     0.15307   0.70330   0.98034   0.00000  Uiso   1.00
H1075  H     0.15017   0.64982   0.68293   0.00000  Uiso   1.00
H1076  H     0.02598   0.69674   0.78076   0.00000  Uiso   1.00
H1077  H     0.10031   0.67675   0.99270   0.00000  Uiso   1.00
H1078  H     0.10810   0.74606   0.71231   0.00000  Uiso   1.00
H1079  H     0.16270   0.72944   0.73125   0.00000  Uiso   1.00
H1080  H     0.13684   0.66390   0.78204   0.00000  Uiso   1.00
H1081  H     0.08624   0.66114   0.75018   0.00000  Uiso   1.00
H1082  H     0.27713   0.53493   0.90653   0.00000  Uiso   1.00
H1083  H     0.19552   0.96387   0.78170   0.00000  Uiso   1.00
H1084  H     0.22288   0.53493   0.76014   0.00000  Uiso   1.00
H1085  H     0.30448   0.96387   0.88497   0.00000  Uiso   1.00
H1086  H     0.31649   0.61189   0.92061   0.00000  Uiso   1.00
N1087  N     0.25000   0.62934   0.83333   0.00000  Uiso   1.00
N1088  N     0.25000   0.87066   0.83333   0.00000  Uiso   1.00
N1089  N     0.28583   0.62766   0.91403   0.00000  Uiso   1.00
N1090  N     0.19084   0.86957   0.77289   0.00000  Uiso   1.00
N1091  N     0.21417   0.62766   0.75264   0.00000  Uiso   1.00
N1092  N     0.30916   0.86957   0.89378   0.00000  Uiso   1.00
O1093  O     0.18573   0.79072   0.83334   0.00000  Uiso   1.00
O1094  O     0.31427   0.70928   0.83333   0.00000  Uiso   1.00
O1095  O     0.31427   0.79072   0.83333   0.00000  Uiso   1.00
O1096  O     0.18573   0.70929   0.83334   0.00000  Uiso   1.00
O1097  O     0.25000   0.79071   0.76280   0.00000  Uiso   1.00
O1098  O     0.25000   0.70929   0.90387   0.00000  Uiso   1.00
O1099  O     0.25000   0.79071   0.90387   0.00000  Uiso   1.00
O1100  O     0.25000   0.70929   0.76280   0.00000  Uiso   1.00
C1101  C     0.66485   0.75023   0.83298   0.00000  Uiso   1.00
C1102  C     0.77997   0.94583   0.86248   0.00000  Uiso   1.00
C1103  C     0.75009   0.74999   0.74024   0.00000  Uiso   1.00
C1104  C     0.74991   0.74999   0.92642   0.00000  Uiso   1.00
C1105  C     0.75000   0.52663   0.83333   0.00000  Uiso   1.00
C1106  C     0.75000   0.97226   0.83333   0.00000  Uiso   1.00
C1107  C     0.75004   0.74993   0.68852   0.00000  Uiso   1.00
C1108  C     0.74996   0.74993   0.97815   0.00000  Uiso   1.00
C1109  C     0.54740   0.78611   0.86156   0.00000  Uiso   1.00
C1110  C     0.95458   0.72081   0.86305   0.00000  Uiso   1.00
C1111  C     0.95260   0.78611   0.80510   0.00000  Uiso   1.00
C1112  C     0.83515   0.75023   0.83369   0.00000  Uiso   1.00
C1113  C     0.54542   0.72081   0.80361   0.00000  Uiso   1.00
C1114  C     0.59340   0.78584   0.86227   0.00000  Uiso   1.00
C1115  C     0.90870   0.71974   0.86452   0.00000  Uiso   1.00
C1116  C     0.90660   0.78584   0.80439   0.00000  Uiso   1.00
C1117  C     0.59130   0.71975   0.80214   0.00000  Uiso   1.00
C1118  C     0.61617   0.75153   0.83285   0.00000  Uiso   1.00
C1119  C     0.88383   0.75153   0.83382   0.00000  Uiso   1.00
C1120  C     0.52388   0.75359   0.83296   0.00000  Uiso   1.00
C1121  C     0.97612   0.75359   0.83371   0.00000  Uiso   1.00
C1122  C     0.61598   0.82223   0.89578   0.00000  Uiso   1.00
C1123  C     0.76648   0.60374   0.87286   0.00000  Uiso   1.00
C1124  C     0.63608   0.79806   0.94128   0.00000  Uiso   1.00
C1125  C     0.65882   0.83430   0.97504   0.00000  Uiso   1.00
C1126  C     0.88855   0.68668   0.90215   0.00000  Uiso   1.00
C1127  C     0.87012   0.71512   0.94556   0.00000  Uiso   1.00
C1128  C     0.86644   0.68426   0.99173   0.00000  Uiso   1.00
C1129  C     0.88402   0.82222   0.77088   0.00000  Uiso   1.00
C1130  C     0.86392   0.79806   0.72539   0.00000  Uiso   1.00
C1131  C     0.84118   0.83430   0.69162   0.00000  Uiso   1.00
C1132  C     0.61145   0.68668   0.76452   0.00000  Uiso   1.00
C1133  C     0.62988   0.71512   0.72110   0.00000  Uiso   1.00
C1134  C     0.72081   0.89526   0.80407   0.00000  Uiso   1.00
C1135  C     0.63356   0.68426   0.67494   0.00000  Uiso   1.00
C1136  C     0.73353   0.60374   0.79381   0.00000  Uiso   1.00
C1137  C     0.77919   0.89526   0.86260   0.00000  Uiso   1.00
C1138  C     0.76545   0.55309   0.87374   0.00000  Uiso   1.00
C1139  C     0.72003   0.94583   0.80418   0.00000  Uiso   1.00
C1140  C     0.73455   0.55308   0.79293   0.00000  Uiso   1.00
Cu1141 Cu    0.75000   0.79822   0.83333   0.00000  Uiso   1.00
Cu1142 Cu    0.75000   0.70178   0.83333   0.00000  Uiso   1.00
H1143  H     0.52948   0.81131   0.88404   0.00000  Uiso   1.00
H1144  H     0.76655   0.62036   0.94463   0.00000  Uiso   1.00
H1145  H     0.65885   0.87942   0.78220   0.00000  Uiso   1.00
H1146  H     0.69605   0.88055   0.73673   0.00000  Uiso   1.00
H1147  H     0.68351   0.61189   0.74606   0.00000  Uiso   1.00
H1148  H     0.73345   0.62036   0.72203   0.00000  Uiso   1.00
H1149  H     0.84115   0.87942   0.88446   0.00000  Uiso   1.00
H1150  H     0.80395   0.88055   0.92994   0.00000  Uiso   1.00
H1151  H     0.68632   0.85202   0.95571   0.00000  Uiso   1.00
H1152  H     0.63505   0.86188   0.98731   0.00000  Uiso   1.00
H1153  H     0.67226   0.81555   0.67461   0.00000  Uiso   1.00
H1154  H     0.97402   0.69674   0.88591   0.00000  Uiso   1.00
H1155  H     0.60959   0.77988   0.96186   0.00000  Uiso   1.00
H1156  H     0.66042   0.77080   0.93018   0.00000  Uiso   1.00
H1157  H     0.64064   0.84355   0.87576   0.00000  Uiso   1.00
H1158  H     0.59183   0.84923   0.90867   0.00000  Uiso   1.00
H1159  H     0.84692   0.70329   0.68632   0.00000  Uiso   1.00
H1160  H     0.84984   0.64982   0.98373   0.00000  Uiso   1.00
H1161  H     0.89970   0.67675   0.67397   0.00000  Uiso   1.00
H1162  H     0.89189   0.74606   0.95435   0.00000  Uiso   1.00
H1163  H     0.83730   0.72944   0.93541   0.00000  Uiso   1.00
H1164  H     0.86316   0.66390   0.88462   0.00000  Uiso   1.00
H1165  H     0.97052   0.81131   0.78262   0.00000  Uiso   1.00
H1166  H     0.91376   0.66114   0.91649   0.00000  Uiso   1.00
H1167  H     0.81368   0.85202   0.71095   0.00000  Uiso   1.00
H1168  H     0.86495   0.86187   0.67936   0.00000  Uiso   1.00
H1169  H     0.82774   0.81555   0.99206   0.00000  Uiso   1.00
H1170  H     0.89041   0.77988   0.70480   0.00000  Uiso   1.00
H1171  H     0.83958   0.77080   0.73649   0.00000  Uiso   1.00
H1172  H     0.85936   0.84354   0.79091   0.00000  Uiso   1.00
H1173  H     0.90817   0.84923   0.75799   0.00000  Uiso   1.00
H1174  H     0.65307   0.70330   0.98034   0.00000  Uiso   1.00
H1175  H     0.65017   0.64982   0.68293   0.00000  Uiso   1.00
H1176  H     0.52598   0.69674   0.78076   0.00000  Uiso   1.00
H1177  H     0.60031   0.67675   0.99270   0.00000  Uiso   1.00
H1178  H     0.60810   0.74606   0.71231   0.00000  Uiso   1.00
H1179  H     0.66270   0.72944   0.73125   0.00000  Uiso   1.00
H1180  H     0.63684   0.66390   0.78204   0.00000  Uiso   1.00
H1181  H     0.58624   0.66114   0.75018   0.00000  Uiso   1.00
H1182  H     0.77713   0.53493   0.90653   0.00000  Uiso   1.00
H1183  H     0.69552   0.96387   0.78170   0.00000  Uiso   1.00
H1184  H     0.72288   0.53493   0.76014   0.00000  Uiso   1.00
H1185  H     0.80448   0.96387   0.88497   0.00000  Uiso   1.00
H1186  H     0.81649   0.61189   0.92061   0.00000  Uiso   1.00
N1187  N     0.75000   0.62934   0.83333   0.00000  Uiso   1.00
N1188  N     0.75000   0.87066   0.83333   0.00000  Uiso   1.00
N1189  N     0.78583   0.62766   0.91403   0.00000  Uiso   1.00
N1190  N     0.69084   0.86957   0.77289   0.00000  Uiso   1.00
N1191  N     0.71417   0.62766   0.75264   0.00000  Uiso   1.00
N1192  N     0.80916   0.86957   0.89378   0.00000  Uiso   1.00
O1193  O     0.68573   0.79072   0.83334   0.00000  Uiso   1.00
O1194  O     0.81427   0.70928   0.83333   0.00000  Uiso   1.00
O1195  O     0.81427   0.79072   0.83333   0.00000  Uiso   1.00
O1196  O     0.68573   0.70929   0.83334   0.00000  Uiso   1.00
O1197  O     0.75000   0.79071   0.76280   0.00000  Uiso   1.00
O1198  O     0.75000   0.70929   0.90387   0.00000  Uiso   1.00
O1199  O     0.75000   0.79071   0.90387   0.00000  Uiso   1.00
O1200  O     0.75000   0.70929   0.76280   0.00000  Uiso   1.00
loop_
_geom_bond_atom_site_label_1
_geom_bond_atom_site_label_2
_geom_bond_distance
_geom_bond_site_symmetry_2
_ccdc_geom_bond_type
C1     C18     1.481   .     S
C1     O96     1.307   .     A
C1     O93     1.296   .     A
C2     H85     1.082   .     S
C2     C6      1.408   .     A
C2     C37     1.411   .     A
C3     C7      1.408   .     S
C3     O100    1.291   .     A
C3     O97     1.292   .     A
C4     O98     1.291   .     A
C4     C8      1.408   .     S
C4     O99     1.292   .     A
C5     C38     1.400   .     A
C5     C40     1.400   .     A
C5     C206    1.517   1_545 S
C6     C39     1.408   .     A
C6     C205    1.517   .     S
C7     C808    1.190   1_554 S
C8     C407    1.190   .     S
C9     H43     1.085   .     S
C9     C14     1.399   .     A
C9     C20     1.387   .     A
C10    C15     1.397   .     A
C10    C21     1.386   .     A
C10    H54     1.085   .     S
C11    C16     1.399   .     A
C11    C21     1.387   .     A
C11    H65     1.085   .     S
C12    O95     1.296   .     A
C12    O94     1.307   .     A
C12    C19     1.481   .     S
C13    H76     1.085   .     S
C13    C20     1.386   .     A
C13    C17     1.397   .     A
C14    C18     1.433   .     A
C14    C22     1.522   .     S
C15    C26     1.515   .     S
C15    C19     1.428   .     A
C16    C19     1.433   .     A
C16    C29     1.522   .     S
C17    C18     1.428   .     A
C17    C32     1.515   .     S
C20    C121    1.453   1_455 S
C21    C120    1.453   .     S
C22    H57     1.107   .     S
C22    H58     1.113   .     S
C22    C24     1.530   .     S
C23    N87     1.380   .     A
C23    N89     1.424   .     S
C23    C38     1.414   .     A
C24    H55     1.111   .     S
C24    C25     1.525   .     S
C24    H56     1.106   .     S
C25    H51     1.111   .     S
C25    H52     1.111   .     S
C25    H453    1.110   .     S
C26    C27     1.537   .     S
C26    H64     1.103   .     S
C26    H66     1.113   .     S
C27    H62     1.112   .     S
C27    H63     1.106   .     S
C27    C28     1.529   .     S
C28    H60     1.106   .     S
C28    H459    1.107   .     S
C28    H461    1.111   .     S
C29    H73     1.113   .     S
C29    H72     1.107   .     S
C29    C30     1.530   .     S
C30    H71     1.106   .     S
C30    C31     1.525   .     S
C30    H70     1.111   .     S
C31    H67     1.111   .     S
C31    H68     1.111   .     S
C31    H869    1.110   1_554 S
C32    H81     1.113   .     S
C32    H80     1.103   .     S
C32    C33     1.537   .     S
C33    H78     1.112   .     S
C33    H79     1.106   .     S
C33    C35     1.529   .     S
C34    C39     1.411   .     A
C34    N90     1.429   .     S
C34    N88     1.369   .     A
C35    H75     1.106   .     S
C35    H874    1.107   1_554 S
C35    H877    1.111   1_554 S
C36    N87     1.380   .     A
C36    C40     1.414   .     A
C36    N91     1.424   .     S
C37    N88     1.369   .     A
C37    N92     1.429   .     S
C38    H82     1.082   .     S
C39    H83     1.082   .     S
C40    H84     1.082   .     S
Cu41   Cu42    2.691   .     S
Cu41   O93     1.966   .     S
Cu41   O99     1.932   .     S
Cu41   O97     1.932   .     S
Cu41   N88     2.021   .     S
Cu41   O95     1.966   .     S
Cu42   O96     1.966   .     S
Cu42   O98     1.932   .     S
Cu42   O100    1.932   .     S
Cu42   O94     1.966   .     S
Cu42   N87     2.021   .     S
H44    N89     1.046   .     S
H45    N90     1.046   .     S
H46    N90     1.045   .     S
H47    N91     1.044   .     S
H48    N91     1.046   .     S
H49    N92     1.046   .     S
H50    N92     1.045   .     S
H53    C825    1.110   1_554 S
H59    C828    1.107   1_554 S
H61    C828    1.111   1_554 S
H69    C431    1.110   .     S
H74    C435    1.107   .     S
H77    C435    1.111   .     S
H86    N89     1.044   .     S
C101   C118    1.481   .     S
C101   O196    1.307   .     A
C101   O193    1.296   .     A
C102   H185    1.082   .     S
C102   C106    1.408   .     A
C102   C137    1.411   .     A
C103   C107    1.408   .     S
C103   O200    1.291   .     A
C103   O197    1.292   .     A
C104   O198    1.291   .     A
C104   C108    1.408   .     S
C104   O199    1.292   .     A
C105   C138    1.400   .     A
C105   C140    1.400   .     A
C105   C306    1.517   1_545 S
C106   C139    1.408   .     A
C106   C305    1.517   .     S
C107   C908    1.190   1_554 S
C108   C507    1.190   .     S
C109   H143    1.085   .     S
C109   C114    1.399   .     A
C109   C120    1.387   .     A
C110   C115    1.397   .     A
C110   C121    1.386   .     A
C110   H154    1.085   .     S
C111   C116    1.399   .     A
C111   C121    1.387   .     A
C111   H165    1.085   .     S
C112   O195    1.296   .     A
C112   O194    1.307   .     A
C112   C119    1.481   .     S
C113   H176    1.085   .     S
C113   C120    1.386   .     A
C113   C117    1.397   .     A
C114   C118    1.433   .     A
C114   C122    1.522   .     S
C115   C126    1.515   .     S
C115   C119    1.428   .     A
C116   C119    1.433   .     A
C116   C129    1.522   .     S
C117   C118    1.428   .     A
C117   C132    1.515   .     S
C121   C20     1.453   1_655 S
C122   H157    1.107   .     S
C122   H158    1.113   .     S
C122   C124    1.530   .     S
C123   N187    1.380   .     A
C123   N189    1.424   .     S
C123   C138    1.414   .     A
C124   H155    1.111   .     S
C124   C125    1.525   .     S
C124   H156    1.106   .     S
C125   H151    1.111   .     S
C125   H152    1.111   .     S
C125   H553    1.110   .     S
C126   C127    1.537   .     S
C126   H164    1.103   .     S
C126   H166    1.113   .     S
C127   H162    1.112   .     S
C127   H163    1.106   .     S
C127   C128    1.529   .     S
C128   H160    1.106   .     S
C128   H559    1.107   .     S
C128   H561    1.111   .     S
C129   H173    1.113   .     S
C129   H172    1.107   .     S
C129   C130    1.530   .     S
C130   H171    1.106   .     S
C130   C131    1.525   .     S
C130   H170    1.111   .     S
C131   H167    1.111   .     S
C131   H168    1.111   .     S
C131   H969    1.110   1_554 S
C132   H181    1.113   .     S
C132   H180    1.103   .     S
C132   C133    1.537   .     S
C133   H178    1.112   .     S
C133   H179    1.106   .     S
C133   C135    1.529   .     S
C134   C139    1.411   .     A
C134   N190    1.429   .     S
C134   N188    1.369   .     A
C135   H175    1.106   .     S
C135   H974    1.107   1_554 S
C135   H977    1.111   1_554 S
C136   N187    1.380   .     A
C136   C140    1.414   .     A
C136   N191    1.424   .     S
C137   N188    1.369   .     A
C137   N192    1.429   .     S
C138   H182    1.082   .     S
C139   H183    1.082   .     S
C140   H184    1.082   .     S
Cu141  Cu142   2.691   .     S
Cu141  O193    1.966   .     S
Cu141  O199    1.932   .     S
Cu141  O197    1.932   .     S
Cu141  N188    2.021   .     S
Cu141  O195    1.966   .     S
Cu142  O196    1.966   .     S
Cu142  O198    1.932   .     S
Cu142  O200    1.932   .     S
Cu142  O194    1.966   .     S
Cu142  N187    2.021   .     S
H144   N189    1.046   .     S
H145   N190    1.046   .     S
H146   N190    1.045   .     S
H147   N191    1.044   .     S
H148   N191    1.046   .     S
H149   N192    1.046   .     S
H150   N192    1.045   .     S
H153   C925    1.110   1_554 S
H159   C928    1.107   1_554 S
H161   C928    1.111   1_554 S
H169   C531    1.110   .     S
H174   C535    1.107   .     S
H177   C535    1.111   .     S
H186   N189    1.044   .     S
C201   C218    1.481   .     S
C201   O296    1.307   .     A
C201   O293    1.296   .     A
C202   H285    1.082   .     S
C202   C206    1.408   .     A
C202   C237    1.411   .     A
C203   C207    1.408   .     S
C203   O300    1.291   .     A
C203   O297    1.292   .     A
C204   O298    1.291   .     A
C204   C208    1.408   .     S
C204   O299    1.292   .     A
C205   C238    1.400   .     A
C205   C240    1.400   .     A
C206   C239    1.408   .     A
C206   C5      1.517   1_565 S
C207   C1008   1.190   1_554 S
C208   C607    1.190   .     S
C209   H243    1.085   .     S
C209   C214    1.399   .     A
C209   C220    1.387   .     A
C210   C215    1.397   .     A
C210   C221    1.386   .     A
C210   H254    1.085   .     S
C211   C216    1.399   .     A
C211   C221    1.387   .     A
C211   H265    1.085   .     S
C212   O295    1.296   .     A
C212   O294    1.307   .     A
C212   C219    1.481   .     S
C213   H276    1.085   .     S
C213   C220    1.386   .     A
C213   C217    1.397   .     A
C214   C218    1.433   .     A
C214   C222    1.522   .     S
C215   C226    1.515   .     S
C215   C219    1.428   .     A
C216   C219    1.433   .     A
C216   C229    1.522   .     S
C217   C218    1.428   .     A
C217   C232    1.515   .     S
C220   C321    1.453   1_455 S
C221   C320    1.453   .     S
C222   H257    1.107   .     S
C222   H258    1.113   .     S
C222   C224    1.530   .     S
C223   N287    1.380   .     A
C223   N289    1.424   .     S
C223   C238    1.414   .     A
C224   H255    1.111   .     S
C224   C225    1.525   .     S
C224   H256    1.106   .     S
C225   H251    1.111   .     S
C225   H252    1.111   .     S
C225   H653    1.110   .     S
C226   C227    1.537   .     S
C226   H264    1.103   .     S
C226   H266    1.113   .     S
C227   H262    1.112   .     S
C227   H263    1.106   .     S
C227   C228    1.529   .     S
C228   H260    1.106   .     S
C228   H659    1.107   .     S
C228   H661    1.111   .     S
C229   H273    1.113   .     S
C229   H272    1.107   .     S
C229   C230    1.530   .     S
C230   H271    1.106   .     S
C230   C231    1.525   .     S
C230   H270    1.111   .     S
C231   H267    1.111   .     S
C231   H268    1.111   .     S
C231   H1069   1.110   1_554 S
C232   H281    1.113   .     S
C232   H280    1.103   .     S
C232   C233    1.537   .     S
C233   H278    1.112   .     S
C233   H279    1.106   .     S
C233   C235    1.529   .     S
C234   C239    1.411   .     A
C234   N290    1.429   .     S
C234   N288    1.369   .     A
C235   H275    1.106   .     S
C235   H1074   1.107   1_554 S
C235   H1077   1.111   1_554 S
C236   N287    1.380   .     A
C236   C240    1.414   .     A
C236   N291    1.424   .     S
C237   N288    1.369   .     A
C237   N292    1.429   .     S
C238   H282    1.082   .     S
C239   H283    1.082   .     S
C240   H284    1.082   .     S
Cu241  Cu242   2.691   .     S
Cu241  O293    1.966   .     S
Cu241  O299    1.932   .     S
Cu241  O297    1.932   .     S
Cu241  N288    2.021   .     S
Cu241  O295    1.966   .     S
Cu242  O296    1.966   .     S
Cu242  O298    1.932   .     S
Cu242  O300    1.932   .     S
Cu242  O294    1.966   .     S
Cu242  N287    2.021   .     S
H244   N289    1.046   .     S
H245   N290    1.046   .     S
H246   N290    1.045   .     S
H247   N291    1.044   .     S
H248   N291    1.046   .     S
H249   N292    1.046   .     S
H250   N292    1.045   .     S
H253   C1025   1.110   1_554 S
H259   C1028   1.107   1_554 S
H261   C1028   1.111   1_554 S
H269   C631    1.110   .     S
H274   C635    1.107   .     S
H277   C635    1.111   .     S
H286   N289    1.044   .     S
C301   C318    1.481   .     S
C301   O396    1.307   .     A
C301   O393    1.296   .     A
C302   H385    1.082   .     S
C302   C306    1.408   .     A
C302   C337    1.411   .     A
C303   C307    1.408   .     S
C303   O400    1.291   .     A
C303   O397    1.292   .     A
C304   O398    1.291   .     A
C304   C308    1.408   .     S
C304   O399    1.292   .     A
C305   C338    1.400   .     A
C305   C340    1.400   .     A
C306   C339    1.408   .     A
C306   C105    1.517   1_565 S
C307   C1108   1.190   1_554 S
C308   C707    1.190   .     S
C309   H343    1.085   .     S
C309   C314    1.399   .     A
C309   C320    1.387   .     A
C310   C315    1.397   .     A
C310   C321    1.386   .     A
C310   H354    1.085   .     S
C311   C316    1.399   .     A
C311   C321    1.387   .     A
C311   H365    1.085   .     S
C312   O395    1.296   .     A
C312   O394    1.307   .     A
C312   C319    1.481   .     S
C313   H376    1.085   .     S
C313   C320    1.386   .     A
C313   C317    1.397   .     A
C314   C318    1.433   .     A
C314   C322    1.522   .     S
C315   C326    1.515   .     S
C315   C319    1.428   .     A
C316   C319    1.433   .     A
C316   C329    1.522   .     S
C317   C318    1.428   .     A
C317   C332    1.515   .     S
C321   C220    1.453   1_655 S
C322   H357    1.107   .     S
C322   H358    1.113   .     S
C322   C324    1.530   .     S
C323   N387    1.380   .     A
C323   N389    1.424   .     S
C323   C338    1.414   .     A
C324   H355    1.111   .     S
C324   C325    1.525   .     S
C324   H356    1.106   .     S
C325   H351    1.111   .     S
C325   H352    1.111   .     S
C325   H753    1.110   .     S
C326   C327    1.537   .     S
C326   H364    1.103   .     S
C326   H366    1.113   .     S
C327   H362    1.112   .     S
C327   H363    1.106   .     S
C327   C328    1.529   .     S
C328   H360    1.106   .     S
C328   H759    1.107   .     S
C328   H761    1.111   .     S
C329   H373    1.113   .     S
C329   H372    1.107   .     S
C329   C330    1.530   .     S
C330   H371    1.106   .     S
C330   C331    1.525   .     S
C330   H370    1.111   .     S
C331   H367    1.111   .     S
C331   H368    1.111   .     S
C331   H1169   1.110   1_554 S
C332   H381    1.113   .     S
C332   H380    1.103   .     S
C332   C333    1.537   .     S
C333   H378    1.112   .     S
C333   H379    1.106   .     S
C333   C335    1.529   .     S
C334   C339    1.411   .     A
C334   N390    1.429   .     S
C334   N388    1.369   .     A
C335   H375    1.106   .     S
C335   H1174   1.107   1_554 S
C335   H1177   1.111   1_554 S
C336   N387    1.380   .     A
C336   C340    1.414   .     A
C336   N391    1.424   .     S
C337   N388    1.369   .     A
C337   N392    1.429   .     S
C338   H382    1.082   .     S
C339   H383    1.082   .     S
C340   H384    1.082   .     S
Cu341  Cu342   2.691   .     S
Cu341  O393    1.966   .     S
Cu341  O399    1.932   .     S
Cu341  O397    1.932   .     S
Cu341  N388    2.021   .     S
Cu341  O395    1.966   .     S
Cu342  O396    1.966   .     S
Cu342  O398    1.932   .     S
Cu342  O400    1.932   .     S
Cu342  O394    1.966   .     S
Cu342  N387    2.021   .     S
H344   N389    1.046   .     S
H345   N390    1.046   .     S
H346   N390    1.045   .     S
H347   N391    1.044   .     S
H348   N391    1.046   .     S
H349   N392    1.046   .     S
H350   N392    1.045   .     S
H353   C1125   1.110   1_554 S
H359   C1128   1.107   1_554 S
H361   C1128   1.111   1_554 S
H369   C731    1.110   .     S
H374   C735    1.107   .     S
H377   C735    1.111   .     S
H386   N389    1.044   .     S
C401   C418    1.481   .     S
C401   O496    1.307   .     A
C401   O493    1.296   .     A
C402   H485    1.082   .     S
C402   C406    1.408   .     A
C402   C437    1.411   .     A
C403   C407    1.408   .     S
C403   O500    1.291   .     A
C403   O497    1.292   .     A
C404   O498    1.291   .     A
C404   C408    1.408   .     S
C404   O499    1.292   .     A
C405   C438    1.400   .     A
C405   C440    1.400   .     A
C405   C606    1.517   1_545 S
C406   C439    1.408   .     A
C406   C605    1.517   .     S
C408   C807    1.190   .     S
C409   H443    1.085   .     S
C409   C414    1.399   .     A
C409   C420    1.387   .     A
C410   C415    1.397   .     A
C410   C421    1.386   .     A
C410   H454    1.085   .     S
C411   C416    1.399   .     A
C411   C421    1.387   .     A
C411   H465    1.085   .     S
C412   O495    1.296   .     A
C412   O494    1.307   .     A
C412   C419    1.481   .     S
C413   H476    1.085   .     S
C413   C420    1.386   .     A
C413   C417    1.397   .     A
C414   C418    1.433   .     A
C414   C422    1.522   .     S
C415   C426    1.515   .     S
C415   C419    1.428   .     A
C416   C419    1.433   .     A
C416   C429    1.522   .     S
C417   C418    1.428   .     A
C417   C432    1.515   .     S
C420   C521    1.453   1_455 S
C421   C520    1.453   .     S
C422   H457    1.107   .     S
C422   H458    1.113   .     S
C422   C424    1.530   .     S
C423   N487    1.380   .     A
C423   N489    1.424   .     S
C423   C438    1.414   .     A
C424   H455    1.111   .     S
C424   C425    1.525   .     S
C424   H456    1.106   .     S
C425   H451    1.111   .     S
C425   H452    1.111   .     S
C425   H853    1.110   .     S
C426   C427    1.537   .     S
C426   H464    1.103   .     S
C426   H466    1.113   .     S
C427   H462    1.112   .     S
C427   H463    1.106   .     S
C427   C428    1.529   .     S
C428   H460    1.106   .     S
C428   H859    1.107   .     S
C428   H861    1.111   .     S
C429   H473    1.113   .     S
C429   H472    1.107   .     S
C429   C430    1.530   .     S
C430   H471    1.106   .     S
C430   C431    1.525   .     S
C430   H470    1.111   .     S
C431   H467    1.111   .     S
C431   H468    1.111   .     S
C432   H481    1.113   .     S
C432   H480    1.103   .     S
C432   C433    1.537   .     S
C433   H478    1.112   .     S
C433   H479    1.106   .     S
C433   C435    1.529   .     S
C434   C439    1.411   .     A
C434   N490    1.429   .     S
C434   N488    1.369   .     A
C435   H475    1.106   .     S
C436   N487    1.380   .     A
C436   C440    1.414   .     A
C436   N491    1.424   .     S
C437   N488    1.369   .     A
C437   N492    1.429   .     S
C438   H482    1.082   .     S
C439   H483    1.082   .     S
C440   H484    1.082   .     S
Cu441  Cu442   2.691   .     S
Cu441  O493    1.966   .     S
Cu441  O499    1.932   .     S
Cu441  O497    1.932   .     S
Cu441  N488    2.021   .     S
Cu441  O495    1.966   .     S
Cu442  O496    1.966   .     S
Cu442  O498    1.932   .     S
Cu442  O500    1.932   .     S
Cu442  O494    1.966   .     S
Cu442  N487    2.021   .     S
H444   N489    1.046   .     S
H445   N490    1.046   .     S
H446   N490    1.045   .     S
H447   N491    1.044   .     S
H448   N491    1.046   .     S
H449   N492    1.046   .     S
H450   N492    1.045   .     S
H469   C831    1.110   .     S
H474   C835    1.107   .     S
H477   C835    1.111   .     S
H486   N489    1.044   .     S
C501   C518    1.481   .     S
C501   O596    1.307   .     A
C501   O593    1.296   .     A
C502   H585    1.082   .     S
C502   C506    1.408   .     A
C502   C537    1.411   .     A
C503   C507    1.408   .     S
C503   O600    1.291   .     A
C503   O597    1.292   .     A
C504   O598    1.291   .     A
C504   C508    1.408   .     S
C504   O599    1.292   .     A
C505   C538    1.400   .     A
C505   C540    1.400   .     A
C505   C706    1.517   1_545 S
C506   C539    1.408   .     A
C506   C705    1.517   .     S
C508   C907    1.190   .     S
C509   H543    1.085   .     S
C509   C514    1.399   .     A
C509   C520    1.387   .     A
C510   C515    1.397   .     A
C510   C521    1.386   .     A
C510   H554    1.085   .     S
C511   C516    1.399   .     A
C511   C521    1.387   .     A
C511   H565    1.085   .     S
C512   O595    1.296   .     A
C512   O594    1.307   .     A
C512   C519    1.481   .     S
C513   H576    1.085   .     S
C513   C520    1.386   .     A
C513   C517    1.397   .     A
C514   C518    1.433   .     A
C514   C522    1.522   .     S
C515   C526    1.515   .     S
C515   C519    1.428   .     A
C516   C519    1.433   .     A
C516   C529    1.522   .     S
C517   C518    1.428   .     A
C517   C532    1.515   .     S
C521   C420    1.453   1_655 S
C522   H557    1.107   .     S
C522   H558    1.113   .     S
C522   C524    1.530   .     S
C523   N587    1.380   .     A
C523   N589    1.424   .     S
C523   C538    1.414   .     A
C524   H555    1.111   .     S
C524   C525    1.525   .     S
C524   H556    1.106   .     S
C525   H551    1.111   .     S
C525   H552    1.111   .     S
C525   H953    1.110   .     S
C526   C527    1.537   .     S
C526   H564    1.103   .     S
C526   H566    1.113   .     S
C527   H562    1.112   .     S
C527   H563    1.106   .     S
C527   C528    1.529   .     S
C528   H560    1.106   .     S
C528   H959    1.107   .     S
C528   H961    1.111   .     S
C529   H573    1.113   .     S
C529   H572    1.107   .     S
C529   C530    1.530   .     S
C530   H571    1.106   .     S
C530   C531    1.525   .     S
C530   H570    1.111   .     S
C531   H567    1.111   .     S
C531   H568    1.111   .     S
C532   H581    1.113   .     S
C532   H580    1.103   .     S
C532   C533    1.537   .     S
C533   H578    1.112   .     S
C533   H579    1.106   .     S
C533   C535    1.529   .     S
C534   C539    1.411   .     A
C534   N590    1.429   .     S
C534   N588    1.369   .     A
C535   H575    1.106   .     S
C536   N587    1.380   .     A
C536   C540    1.414   .     A
C536   N591    1.424   .     S
C537   N588    1.369   .     A
C537   N592    1.429   .     S
C538   H582    1.082   .     S
C539   H583    1.082   .     S
C540   H584    1.082   .     S
Cu541  Cu542   2.691   .     S
Cu541  O593    1.966   .     S
Cu541  O599    1.932   .     S
Cu541  O597    1.932   .     S
Cu541  N588    2.021   .     S
Cu541  O595    1.966   .     S
Cu542  O596    1.966   .     S
Cu542  O598    1.932   .     S
Cu542  O600    1.932   .     S
Cu542  O594    1.966   .     S
Cu542  N587    2.021   .     S
H544   N589    1.046   .     S
H545   N590    1.046   .     S
H546   N590    1.045   .     S
H547   N591    1.044   .     S
H548   N591    1.046   .     S
H549   N592    1.046   .     S
H550   N592    1.045   .     S
H569   C931    1.110   .     S
H574   C935    1.107   .     S
H577   C935    1.111   .     S
H586   N589    1.044   .     S
C601   C618    1.481   .     S
C601   O696    1.307   .     A
C601   O693    1.296   .     A
C602   H685    1.082   .     S
C602   C606    1.408   .     A
C602   C637    1.411   .     A
C603   C607    1.408   .     S
C603   O700    1.291   .     A
C603   O697    1.292   .     A
C604   O698    1.291   .     A
C604   C608    1.408   .     S
C604   O699    1.292   .     A
C605   C638    1.400   .     A
C605   C640    1.400   .     A
C606   C639    1.408   .     A
C606   C405    1.517   1_565 S
C608   C1007   1.190   .     S
C609   H643    1.085   .     S
C609   C614    1.399   .     A
C609   C620    1.387   .     A
C610   C615    1.397   .     A
C610   C621    1.386   .     A
C610   H654    1.085   .     S
C611   C616    1.399   .     A
C611   C621    1.387   .     A
C611   H665    1.085   .     S
C612   O695    1.296   .     A
C612   O694    1.307   .     A
C612   C619    1.481   .     S
C613   H676    1.085   .     S
C613   C620    1.386   .     A
C613   C617    1.397   .     A
C614   C618    1.433   .     A
C614   C622    1.522   .     S
C615   C626    1.515   .     S
C615   C619    1.428   .     A
C616   C619    1.433   .     A
C616   C629    1.522   .     S
C617   C618    1.428   .     A
C617   C632    1.515   .     S
C620   C721    1.453   1_455 S
C621   C720    1.453   .     S
C622   H657    1.107   .     S
C622   H658    1.113   .     S
C622   C624    1.530   .     S
C623   N687    1.380   .     A
C623   N689    1.424   .     S
C623   C638    1.414   .     A
C624   H655    1.111   .     S
C624   C625    1.525   .     S
C624   H656    1.106   .     S
C625   H651    1.111   .     S
C625   H652    1.111   .     S
C625   H1053   1.110   .     S
C626   C627    1.537   .     S
C626   H664    1.103   .     S
C626   H666    1.113   .     S
C627   H662    1.112   .     S
C627   H663    1.106   .     S
C627   C628    1.529   .     S
C628   H660    1.106   .     S
C628   H1059   1.107   .     S
C628   H1061   1.111   .     S
C629   H673    1.113   .     S
C629   H672    1.107   .     S
C629   C630    1.530   .     S
C630   H671    1.106   .     S
C630   C631    1.525   .     S
C630   H670    1.111   .     S
C631   H667    1.111   .     S
C631   H668    1.111   .     S
C632   H681    1.113   .     S
C632   H680    1.103   .     S
C632   C633    1.537   .     S
C633   H678    1.112   .     S
C633   H679    1.106   .     S
C633   C635    1.529   .     S
C634   C639    1.411   .     A
C634   N690    1.429   .     S
C634   N688    1.369   .     A
C635   H675    1.106   .     S
C636   N687    1.380   .     A
C636   C640    1.414   .     A
C636   N691    1.424   .     S
C637   N688    1.369   .     A
C637   N692    1.429   .     S
C638   H682    1.082   .     S
C639   H683    1.082   .     S
C640   H684    1.082   .     S
Cu641  Cu642   2.691   .     S
Cu641  O693    1.966   .     S
Cu641  O699    1.932   .     S
Cu641  O697    1.932   .     S
Cu641  N688    2.021   .     S
Cu641  O695    1.966   .     S
Cu642  O696    1.966   .     S
Cu642  O698    1.932   .     S
Cu642  O700    1.932   .     S
Cu642  O694    1.966   .     S
Cu642  N687    2.021   .     S
H644   N689    1.046   .     S
H645   N690    1.046   .     S
H646   N690    1.045   .     S
H647   N691    1.044   .     S
H648   N691    1.046   .     S
H649   N692    1.046   .     S
H650   N692    1.045   .     S
H669   C1031   1.110   .     S
H674   C1035   1.107   .     S
H677   C1035   1.111   .     S
H686   N689    1.044   .     S
C701   C718    1.481   .     S
C701   O796    1.307   .     A
C701   O793    1.296   .     A
C702   H785    1.082   .     S
C702   C706    1.408   .     A
C702   C737    1.411   .     A
C703   C707    1.408   .     S
C703   O800    1.291   .     A
C703   O797    1.292   .     A
C704   O798    1.291   .     A
C704   C708    1.408   .     S
C704   O799    1.292   .     A
C705   C738    1.400   .     A
C705   C740    1.400   .     A
C706   C739    1.408   .     A
C706   C505    1.517   1_565 S
C708   C1107   1.190   .     S
C709   H743    1.085   .     S
C709   C714    1.399   .     A
C709   C720    1.387   .     A
C710   C715    1.397   .     A
C710   C721    1.386   .     A
C710   H754    1.085   .     S
C711   C716    1.399   .     A
C711   C721    1.387   .     A
C711   H765    1.085   .     S
C712   O795    1.296   .     A
C712   O794    1.307   .     A
C712   C719    1.481   .     S
C713   H776    1.085   .     S
C713   C720    1.386   .     A
C713   C717    1.397   .     A
C714   C718    1.433   .     A
C714   C722    1.522   .     S
C715   C726    1.515   .     S
C715   C719    1.428   .     A
C716   C719    1.433   .     A
C716   C729    1.522   .     S
C717   C718    1.428   .     A
C717   C732    1.515   .     S
C721   C620    1.453   1_655 S
C722   H757    1.107   .     S
C722   H758    1.113   .     S
C722   C724    1.530   .     S
C723   N787    1.380   .     A
C723   N789    1.424   .     S
C723   C738    1.414   .     A
C724   H755    1.111   .     S
C724   C725    1.525   .     S
C724   H756    1.106   .     S
C725   H751    1.111   .     S
C725   H752    1.111   .     S
C725   H1153   1.110   .     S
C726   C727    1.537   .     S
C726   H764    1.103   .     S
C726   H766    1.113   .     S
C727   H762    1.112   .     S
C727   H763    1.106   .     S
C727   C728    1.529   .     S
C728   H760    1.106   .     S
C728   H1159   1.107   .     S
C728   H1161   1.111   .     S
C729   H773    1.113   .     S
C729   H772    1.107   .     S
C729   C730    1.530   .     S
C730   H771    1.106   .     S
C730   C731    1.525   .     S
C730   H770    1.111   .     S
C731   H767    1.111   .     S
C731   H768    1.111   .     S
C732   H781    1.113   .     S
C732   H780    1.103   .     S
C732   C733    1.537   .     S
C733   H778    1.112   .     S
C733   H779    1.106   .     S
C733   C735    1.529   .     S
C734   C739    1.411   .     A
C734   N790    1.429   .     S
C734   N788    1.369   .     A
C735   H775    1.106   .     S
C736   N787    1.380   .     A
C736   C740    1.414   .     A
C736   N791    1.424   .     S
C737   N788    1.369   .     A
C737   N792    1.429   .     S
C738   H782    1.082   .     S
C739   H783    1.082   .     S
C740   H784    1.082   .     S
Cu741  Cu742   2.691   .     S
Cu741  O793    1.966   .     S
Cu741  O799    1.932   .     S
Cu741  O797    1.932   .     S
Cu741  N788    2.021   .     S
Cu741  O795    1.966   .     S
Cu742  O796    1.966   .     S
Cu742  O798    1.932   .     S
Cu742  O800    1.932   .     S
Cu742  O794    1.966   .     S
Cu742  N787    2.021   .     S
H744   N789    1.046   .     S
H745   N790    1.046   .     S
H746   N790    1.045   .     S
H747   N791    1.044   .     S
H748   N791    1.046   .     S
H749   N792    1.046   .     S
H750   N792    1.045   .     S
H769   C1131   1.110   .     S
H774   C1135   1.107   .     S
H777   C1135   1.111   .     S
H786   N789    1.044   .     S
C801   C818    1.481   .     S
C801   O896    1.307   .     A
C801   O893    1.296   .     A
C802   H885    1.082   .     S
C802   C806    1.408   .     A
C802   C837    1.411   .     A
C803   C807    1.408   .     S
C803   O900    1.291   .     A
C803   O897    1.292   .     A
C804   O898    1.291   .     A
C804   C808    1.408   .     S
C804   O899    1.292   .     A
C805   C838    1.400   .     A
C805   C840    1.400   .     A
C805   C1006   1.517   1_545 S
C806   C839    1.408   .     A
C806   C1005   1.517   .     S
C808   C7      1.190   1_556 S
C809   H843    1.085   .     S
C809   C814    1.399   .     A
C809   C820    1.387   .     A
C810   C815    1.397   .     A
C810   C821    1.386   .     A
C810   H854    1.085   .     S
C811   C816    1.399   .     A
C811   C821    1.387   .     A
C811   H865    1.085   .     S
C812   O895    1.296   .     A
C812   O894    1.307   .     A
C812   C819    1.481   .     S
C813   H876    1.085   .     S
C813   C820    1.386   .     A
C813   C817    1.397   .     A
C814   C818    1.433   .     A
C814   C822    1.522   .     S
C815   C826    1.515   .     S
C815   C819    1.428   .     A
C816   C819    1.433   .     A
C816   C829    1.522   .     S
C817   C818    1.428   .     A
C817   C832    1.515   .     S
C820   C921    1.453   1_455 S
C821   C920    1.453   .     S
C822   H857    1.107   .     S
C822   H858    1.113   .     S
C822   C824    1.530   .     S
C823   N887    1.380   .     A
C823   N889    1.424   .     S
C823   C838    1.414   .     A
C824   H855    1.111   .     S
C824   C825    1.525   .     S
C824   H856    1.106   .     S
C825   H851    1.111   .     S
C825   H852    1.111   .     S
C825   H53     1.110   1_556 S
C826   C827    1.537   .     S
C826   H864    1.103   .     S
C826   H866    1.113   .     S
C827   H862    1.112   .     S
C827   H863    1.106   .     S
C827   C828    1.529   .     S
C828   H860    1.106   .     S
C828   H59     1.107   1_556 S
C828   H61     1.111   1_556 S
C829   H873    1.113   .     S
C829   H872    1.107   .     S
C829   C830    1.530   .     S
C830   H871    1.106   .     S
C830   C831    1.525   .     S
C830   H870    1.111   .     S
C831   H867    1.111   .     S
C831   H868    1.111   .     S
C832   H881    1.113   .     S
C832   H880    1.103   .     S
C832   C833    1.537   .     S
C833   H878    1.112   .     S
C833   H879    1.106   .     S
C833   C835    1.529   .     S
C834   C839    1.411   .     A
C834   N890    1.429   .     S
C834   N888    1.369   .     A
C835   H875    1.106   .     S
C836   N887    1.380   .     A
C836   C840    1.414   .     A
C836   N891    1.424   .     S
C837   N888    1.369   .     A
C837   N892    1.429   .     S
C838   H882    1.082   .     S
C839   H883    1.082   .     S
C840   H884    1.082   .     S
Cu841  Cu842   2.691   .     S
Cu841  O893    1.966   .     S
Cu841  O899    1.932   .     S
Cu841  O897    1.932   .     S
Cu841  N888    2.021   .     S
Cu841  O895    1.966   .     S
Cu842  O896    1.966   .     S
Cu842  O898    1.932   .     S
Cu842  O900    1.932   .     S
Cu842  O894    1.966   .     S
Cu842  N887    2.021   .     S
H844   N889    1.046   .     S
H845   N890    1.046   .     S
H846   N890    1.045   .     S
H847   N891    1.044   .     S
H848   N891    1.046   .     S
H849   N892    1.046   .     S
H850   N892    1.045   .     S
H869   C31     1.110   1_556 S
H874   C35     1.107   1_556 S
H877   C35     1.111   1_556 S
H886   N889    1.044   .     S
C901   C918    1.481   .     S
C901   O996    1.307   .     A
C901   O993    1.296   .     A
C902   H985    1.082   .     S
C902   C906    1.408   .     A
C902   C937    1.411   .     A
C903   C907    1.408   .     S
C903   O1000   1.291   .     A
C903   O997    1.292   .     A
C904   O998    1.291   .     A
C904   C908    1.408   .     S
C904   O999    1.292   .     A
C905   C938    1.400   .     A
C905   C940    1.400   .     A
C905   C1106   1.517   1_545 S
C906   C939    1.408   .     A
C906   C1105   1.517   .     S
C908   C107    1.190   1_556 S
C909   H943    1.085   .     S
C909   C914    1.399   .     A
C909   C920    1.387   .     A
C910   C915    1.397   .     A
C910   C921    1.386   .     A
C910   H954    1.085   .     S
C911   C916    1.399   .     A
C911   C921    1.387   .     A
C911   H965    1.085   .     S
C912   O995    1.296   .     A
C912   O994    1.307   .     A
C912   C919    1.481   .     S
C913   H976    1.085   .     S
C913   C920    1.386   .     A
C913   C917    1.397   .     A
C914   C918    1.433   .     A
C914   C922    1.522   .     S
C915   C926    1.515   .     S
C915   C919    1.428   .     A
C916   C919    1.433   .     A
C916   C929    1.522   .     S
C917   C918    1.428   .     A
C917   C932    1.515   .     S
C921   C820    1.453   1_655 S
C922   H957    1.107   .     S
C922   H958    1.113   .     S
C922   C924    1.530   .     S
C923   N987    1.380   .     A
C923   N989    1.424   .     S
C923   C938    1.414   .     A
C924   H955    1.111   .     S
C924   C925    1.525   .     S
C924   H956    1.106   .     S
C925   H951    1.111   .     S
C925   H952    1.111   .     S
C925   H153    1.110   1_556 S
C926   C927    1.537   .     S
C926   H964    1.103   .     S
C926   H966    1.113   .     S
C927   H962    1.112   .     S
C927   H963    1.106   .     S
C927   C928    1.529   .     S
C928   H960    1.106   .     S
C928   H159    1.107   1_556 S
C928   H161    1.111   1_556 S
C929   H973    1.113   .     S
C929   H972    1.107   .     S
C929   C930    1.530   .     S
C930   H971    1.106   .     S
C930   C931    1.525   .     S
C930   H970    1.111   .     S
C931   H967    1.111   .     S
C931   H968    1.111   .     S
C932   H981    1.113   .     S
C932   H980    1.103   .     S
C932   C933    1.537   .     S
C933   H978    1.112   .     S
C933   H979    1.106   .     S
C933   C935    1.529   .     S
C934   C939    1.411   .     A
C934   N990    1.429   .     S
C934   N988    1.369   .     A
C935   H975    1.106   .     S
C936   N987    1.380   .     A
C936   C940    1.414   .     A
C936   N991    1.424   .     S
C937   N988    1.369   .     A
C937   N992    1.429   .     S
C938   H982    1.082   .     S
C939   H983    1.082   .     S
C940   H984    1.082   .     S
Cu941  Cu942   2.691   .     S
Cu941  O993    1.966   .     S
Cu941  O999    1.932   .     S
Cu941  O997    1.932   .     S
Cu941  N988    2.021   .     S
Cu941  O995    1.966   .     S
Cu942  O996    1.966   .     S
Cu942  O998    1.932   .     S
Cu942  O1000   1.932   .     S
Cu942  O994    1.966   .     S
Cu942  N987    2.021   .     S
H944   N989    1.046   .     S
H945   N990    1.046   .     S
H946   N990    1.045   .     S
H947   N991    1.044   .     S
H948   N991    1.046   .     S
H949   N992    1.046   .     S
H950   N992    1.045   .     S
H969   C131    1.110   1_556 S
H974   C135    1.107   1_556 S
H977   C135    1.111   1_556 S
H986   N989    1.044   .     S
C1001  C1018   1.481   .     S
C1001  O1096   1.307   .     A
C1001  O1093   1.296   .     A
C1002  H1085   1.082   .     S
C1002  C1006   1.408   .     A
C1002  C1037   1.411   .     A
C1003  C1007   1.408   .     S
C1003  O1100   1.291   .     A
C1003  O1097   1.292   .     A
C1004  O1098   1.291   .     A
C1004  C1008   1.408   .     S
C1004  O1099   1.292   .     A
C1005  C1038   1.400   .     A
C1005  C1040   1.400   .     A
C1006  C1039   1.408   .     A
C1006  C805    1.517   1_565 S
C1008  C207    1.190   1_556 S
C1009  H1043   1.085   .     S
C1009  C1014   1.399   .     A
C1009  C1020   1.387   .     A
C1010  C1015   1.397   .     A
C1010  C1021   1.386   .     A
C1010  H1054   1.085   .     S
C1011  C1016   1.399   .     A
C1011  C1021   1.387   .     A
C1011  H1065   1.085   .     S
C1012  O1095   1.296   .     A
C1012  O1094   1.307   .     A
C1012  C1019   1.481   .     S
C1013  H1076   1.085   .     S
C1013  C1020   1.386   .     A
C1013  C1017   1.397   .     A
C1014  C1018   1.433   .     A
C1014  C1022   1.522   .     S
C1015  C1026   1.515   .     S
C1015  C1019   1.428   .     A
C1016  C1019   1.433   .     A
C1016  C1029   1.522   .     S
C1017  C1018   1.428   .     A
C1017  C1032   1.515   .     S
C1020  C1121   1.453   1_455 S
C1021  C1120   1.453   .     S
C1022  H1057   1.107   .     S
C1022  H1058   1.113   .     S
C1022  C1024   1.530   .     S
C1023  N1087   1.380   .     A
C1023  N1089   1.424   .     S
C1023  C1038   1.414   .     A
C1024  H1055   1.111   .     S
C1024  C1025   1.525   .     S
C1024  H1056   1.106   .     S
C1025  H1051   1.111   .     S
C1025  H1052   1.111   .     S
C1025  H253    1.110   1_556 S
C1026  C1027   1.537   .     S
C1026  H1064   1.103   .     S
C1026  H1066   1.113   .     S
C1027  H1062   1.112   .     S
C1027  H1063   1.106   .     S
C1027  C1028   1.529   .     S
C1028  H1060   1.106   .     S
C1028  H259    1.107   1_556 S
C1028  H261    1.111   1_556 S
C1029  H1073   1.113   .     S
C1029  H1072   1.107   .     S
C1029  C1030   1.530   .     S
C1030  H1071   1.106   .     S
C1030  C1031   1.525   .     S
C1030  H1070   1.111   .     S
C1031  H1067   1.111   .     S
C1031  H1068   1.111   .     S
C1032  H1081   1.113   .     S
C1032  H1080   1.103   .     S
C1032  C1033   1.537   .     S
C1033  H1078   1.112   .     S
C1033  H1079   1.106   .     S
C1033  C1035   1.529   .     S
C1034  C1039   1.411   .     A
C1034  N1090   1.429   .     S
C1034  N1088   1.369   .     A
C1035  H1075   1.106   .     S
C1036  N1087   1.380   .     A
C1036  C1040   1.414   .     A
C1036  N1091   1.424   .     S
C1037  N1088   1.369   .     A
C1037  N1092   1.429   .     S
C1038  H1082   1.082   .     S
C1039  H1083   1.082   .     S
C1040  H1084   1.082   .     S
Cu1041 Cu1042  2.691   .     S
Cu1041 O1093   1.966   .     S
Cu1041 O1099   1.932   .     S
Cu1041 O1097   1.932   .     S
Cu1041 N1088   2.021   .     S
Cu1041 O1095   1.966   .     S
Cu1042 O1096   1.966   .     S
Cu1042 O1098   1.932   .     S
Cu1042 O1100   1.932   .     S
Cu1042 O1094   1.966   .     S
Cu1042 N1087   2.021   .     S
H1044  N1089   1.046   .     S
H1045  N1090   1.046   .     S
H1046  N1090   1.045   .     S
H1047  N1091   1.044   .     S
H1048  N1091   1.046   .     S
H1049  N1092   1.046   .     S
H1050  N1092   1.045   .     S
H1069  C231    1.110   1_556 S
H1074  C235    1.107   1_556 S
H1077  C235    1.111   1_556 S
H1086  N1089   1.044   .     S
C1101  C1118   1.481   .     S
C1101  O1196   1.307   .     A
C1101  O1193   1.296   .     A
C1102  H1185   1.082   .     S
C1102  C1106   1.408   .     A
C1102  C1137   1.411   .     A
C1103  C1107   1.408   .     S
C1103  O1200   1.291   .     A
C1103  O1197   1.292   .     A
C1104  O1198   1.291   .     A
C1104  C1108   1.408   .     S
C1104  O1199   1.292   .     A
C1105  C1138   1.400   .     A
C1105  C1140   1.400   .     A
C1106  C1139   1.408   .     A
C1106  C905    1.517   1_565 S
C1108  C307    1.190   1_556 S
C1109  H1143   1.085   .     S
C1109  C1114   1.399   .     A
C1109  C1120   1.387   .     A
C1110  C1115   1.397   .     A
C1110  C1121   1.386   .     A
C1110  H1154   1.085   .     S
C1111  C1116   1.399   .     A
C1111  C1121   1.387   .     A
C1111  H1165   1.085   .     S
C1112  O1195   1.296   .     A
C1112  O1194   1.307   .     A
C1112  C1119   1.481   .     S
C1113  H1176   1.085   .     S
C1113  C1120   1.386   .     A
C1113  C1117   1.397   .     A
C1114  C1118   1.433   .     A
C1114  C1122   1.522   .     S
C1115  C1126   1.515   .     S
C1115  C1119   1.428   .     A
C1116  C1119   1.433   .     A
C1116  C1129   1.522   .     S
C1117  C1118   1.428   .     A
C1117  C1132   1.515   .     S
C1121  C1020   1.453   1_655 S
C1122  H1157   1.107   .     S
C1122  H1158   1.113   .     S
C1122  C1124   1.530   .     S
C1123  N1187   1.380   .     A
C1123  N1189   1.424   .     S
C1123  C1138   1.414   .     A
C1124  H1155   1.111   .     S
C1124  C1125   1.525   .     S
C1124  H1156   1.106   .     S
C1125  H1151   1.111   .     S
C1125  H1152   1.111   .     S
C1125  H353    1.110   1_556 S
C1126  C1127   1.537   .     S
C1126  H1164   1.103   .     S
C1126  H1166   1.113   .     S
C1127  H1162   1.112   .     S
C1127  H1163   1.106   .     S
C1127  C1128   1.529   .     S
C1128  H1160   1.106   .     S
C1128  H359    1.107   1_556 S
C1128  H361    1.111   1_556 S
C1129  H1173   1.113   .     S
C1129  H1172   1.107   .     S
C1129  C1130   1.530   .     S
C1130  H1171   1.106   .     S
C1130  C1131   1.525   .     S
C1130  H1170   1.111   .     S
C1131  H1167   1.111   .     S
C1131  H1168   1.111   .     S
C1132  H1181   1.113   .     S
C1132  H1180   1.103   .     S
C1132  C1133   1.537   .     S
C1133  H1178   1.112   .     S
C1133  H1179   1.106   .     S
C1133  C1135   1.529   .     S
C1134  C1139   1.411   .     A
C1134  N1190   1.429   .     S
C1134  N1188   1.369   .     A
C1135  H1175   1.106   .     S
C1136  N1187   1.380   .     A
C1136  C1140   1.414   .     A
C1136  N1191   1.424   .     S
C1137  N1188   1.369   .     A
C1137  N1192   1.429   .     S
C1138  H1182   1.082   .     S
C1139  H1183   1.082   .     S
C1140  H1184   1.082   .     S
Cu1141 Cu1142  2.691   .     S
Cu1141 O1193   1.966   .     S
Cu1141 O1199   1.932   .     S
Cu1141 O1197   1.932   .     S
Cu1141 N1188   2.021   .     S
Cu1141 O1195   1.966   .     S
Cu1142 O1196   1.966   .     S
Cu1142 O1198   1.932   .     S
Cu1142 O1200   1.932   .     S
Cu1142 O1194   1.966   .     S
Cu1142 N1187   2.021   .     S
H1144  N1189   1.046   .     S
H1145  N1190   1.046   .     S
H1146  N1190   1.045   .     S
H1147  N1191   1.044   .     S
H1148  N1191   1.046   .     S
H1149  N1192   1.046   .     S
H1150  N1192   1.045   .     S
H1169  C331    1.110   1_556 S
H1174  C335    1.107   1_556 S
H1177  C335    1.111   1_556 S
H1186  N1189   1.044   .     S
