data_str_m2_o1_o10_pcu_sym.161
_audit_creation_date              2020-01-03
_audit_creation_method            'Materials Studio'
_symmetry_space_group_name_H-M    'P1'
_symmetry_Int_Tables_number       1
_symmetry_cell_setting            triclinic
loop_
_symmetry_equiv_pos_as_xyz
  x,y,z
_cell_length_a                    26.1669
_cell_length_b                    32.3498
_cell_length_c                    28.7032
_cell_angle_alpha                 90.6968
_cell_angle_beta                  98.3616
_cell_angle_gamma                 90.6716
loop_
_atom_site_label
_atom_site_type_symbol
_atom_site_fract_x
_atom_site_fract_y
_atom_site_fract_z
_atom_site_U_iso_or_equiv
_atom_site_adp_type
_atom_site_occupancy
C1     C     0.16485   0.08748   0.16618   0.00000  Uiso   1.00
C2     C     0.16848   0.24585   0.16715   0.00000  Uiso   1.00
C3     C     0.06792   0.16669   0.15451   0.00000  Uiso   1.00
C4     C     0.26541   0.16664   0.17882   0.00000  Uiso   1.00
C5     C     0.01250   0.16673   0.14792   0.00000  Uiso   1.00
C6     C     0.32083   0.16660   0.18541   0.00000  Uiso   1.00
C7     C     0.19664   0.02247   0.13912   0.00000  Uiso   1.00
C8     C     0.13670   0.31086   0.19421   0.00000  Uiso   1.00
C9     C     0.20111   0.31305   0.14050   0.00000  Uiso   1.00
C10    C     0.13222   0.02029   0.19283   0.00000  Uiso   1.00
C11    C     0.17000   0.29056   0.16787   0.00000  Uiso   1.00
C12    C     0.16333   0.04278   0.16546   0.00000  Uiso   1.00
C13    C     0.13581   0.13952   0.01967   0.00000  Uiso   1.00
C14    C     0.19753   0.19381   0.31366   0.00000  Uiso   1.00
C15    C     0.13607   0.13973   0.30368   0.00000  Uiso   1.00
C16    C     0.19726   0.19360   0.02965   0.00000  Uiso   1.00
Cu17   Cu    0.16667   0.16667   0.21355   0.00000  Uiso   1.00
Cu18   Cu    0.16667   0.16666   0.11978   0.00000  Uiso   1.00
H19    H     0.32556   0.16689   0.11207   0.00000  Uiso   1.00
H20    H     0.00777   0.16645   0.22126   0.00000  Uiso   1.00
H21    H     0.22105   0.04036   0.11916   0.00000  Uiso   1.00
H22    H     0.11229   0.29297   0.21418   0.00000  Uiso   1.00
H23    H     0.11160   0.11827   0.28107   0.00000  Uiso   1.00
H24    H     0.22174   0.21506   0.05226   0.00000  Uiso   1.00
N25    N     0.16668   0.16668   0.28403   0.00000  Uiso   1.00
N26    N     0.16665   0.16666   0.04931   0.00000  Uiso   1.00
O27    O     0.16666   0.10655   0.20625   0.00000  Uiso   1.00
O28    O     0.16667   0.22678   0.12709   0.00000  Uiso   1.00
O29    O     0.16666   0.10654   0.12706   0.00000  Uiso   1.00
O30    O     0.16667   0.22679   0.20628   0.00000  Uiso   1.00
O31    O     0.09161   0.16667   0.19712   0.00000  Uiso   1.00
O32    O     0.24172   0.16666   0.13621   0.00000  Uiso   1.00
O33    O     0.09161   0.16666   0.11793   0.00000  Uiso   1.00
O34    O     0.24172   0.16667   0.21540   0.00000  Uiso   1.00
C35    C     0.24039   0.29353   0.11508   0.00000  Uiso   1.00
O36    O     0.26389   0.26323   0.13120   0.00000  Uiso   1.00
O37    O     0.25180   0.31081   0.07330   0.00000  Uiso   1.00
H38    H     0.27921   0.29492   0.05928   0.00000  Uiso   1.00
C39    C     0.09293   0.03980   0.21824   0.00000  Uiso   1.00
O40    O     0.06943   0.07010   0.20211   0.00000  Uiso   1.00
O41    O     0.08153   0.02253   0.26003   0.00000  Uiso   1.00
H42    H     0.05410   0.03842   0.27403   0.00000  Uiso   1.00
C43    C     0.10199   0.10888   0.03760   0.00000  Uiso   1.00
O44    O     0.05800   0.11810   0.04281   0.00000  Uiso   1.00
O45    O     0.11885   0.06829   0.04459   0.00000  Uiso   1.00
H46    H     0.09190   0.04971   0.05599   0.00000  Uiso   1.00
C47    C     0.23139   0.22443   0.29573   0.00000  Uiso   1.00
O48    O     0.27538   0.21519   0.29057   0.00000  Uiso   1.00
O49    O     0.21455   0.26502   0.28870   0.00000  Uiso   1.00
H50    H     0.24152   0.28358   0.27730   0.00000  Uiso   1.00
C51    C     0.49819   0.08748   0.16618   0.00000  Uiso   1.00
C52    C     0.50182   0.24585   0.16715   0.00000  Uiso   1.00
C53    C     0.40125   0.16669   0.15451   0.00000  Uiso   1.00
C54    C     0.59875   0.16664   0.17882   0.00000  Uiso   1.00
C55    C     0.34584   0.16673   0.14792   0.00000  Uiso   1.00
C56    C     0.65416   0.16660   0.18541   0.00000  Uiso   1.00
C57    C     0.52997   0.02247   0.13912   0.00000  Uiso   1.00
C58    C     0.47003   0.31086   0.19421   0.00000  Uiso   1.00
C59    C     0.53445   0.31305   0.14050   0.00000  Uiso   1.00
C60    C     0.46555   0.02029   0.19283   0.00000  Uiso   1.00
C61    C     0.50334   0.29056   0.16787   0.00000  Uiso   1.00
C62    C     0.49666   0.04278   0.16546   0.00000  Uiso   1.00
C63    C     0.46915   0.13952   0.01967   0.00000  Uiso   1.00
C64    C     0.53086   0.19381   0.31366   0.00000  Uiso   1.00
C65    C     0.46940   0.13973   0.30368   0.00000  Uiso   1.00
C66    C     0.53060   0.19360   0.02965   0.00000  Uiso   1.00
Cu67   Cu    0.50000   0.16667   0.21355   0.00000  Uiso   1.00
Cu68   Cu    0.50000   0.16666   0.11978   0.00000  Uiso   1.00
H69    H     0.65889   0.16689   0.11207   0.00000  Uiso   1.00
H70    H     0.34111   0.16645   0.22126   0.00000  Uiso   1.00
H71    H     0.55438   0.04036   0.11916   0.00000  Uiso   1.00
H72    H     0.44562   0.29297   0.21418   0.00000  Uiso   1.00
H73    H     0.44493   0.11827   0.28107   0.00000  Uiso   1.00
H74    H     0.55508   0.21506   0.05226   0.00000  Uiso   1.00
N75    N     0.50001   0.16668   0.28403   0.00000  Uiso   1.00
N76    N     0.49999   0.16666   0.04931   0.00000  Uiso   1.00
O77    O     0.50000   0.10655   0.20625   0.00000  Uiso   1.00
O78    O     0.50000   0.22678   0.12709   0.00000  Uiso   1.00
O79    O     0.50000   0.10654   0.12706   0.00000  Uiso   1.00
O80    O     0.50000   0.22679   0.20628   0.00000  Uiso   1.00
O81    O     0.42495   0.16667   0.19712   0.00000  Uiso   1.00
O82    O     0.57505   0.16666   0.13621   0.00000  Uiso   1.00
O83    O     0.42494   0.16666   0.11793   0.00000  Uiso   1.00
O84    O     0.57506   0.16667   0.21540   0.00000  Uiso   1.00
C85    C     0.57373   0.29353   0.11508   0.00000  Uiso   1.00
O86    O     0.59722   0.26323   0.13120   0.00000  Uiso   1.00
O87    O     0.58513   0.31081   0.07330   0.00000  Uiso   1.00
H88    H     0.61255   0.29492   0.05928   0.00000  Uiso   1.00
C89    C     0.42627   0.03980   0.21824   0.00000  Uiso   1.00
O90    O     0.40277   0.07010   0.20211   0.00000  Uiso   1.00
O91    O     0.41486   0.02253   0.26003   0.00000  Uiso   1.00
H92    H     0.38744   0.03842   0.27403   0.00000  Uiso   1.00
C93    C     0.43532   0.10888   0.03760   0.00000  Uiso   1.00
O94    O     0.39134   0.11810   0.04281   0.00000  Uiso   1.00
O95    O     0.45218   0.06829   0.04459   0.00000  Uiso   1.00
H96    H     0.42523   0.04971   0.05599   0.00000  Uiso   1.00
C97    C     0.56472   0.22443   0.29573   0.00000  Uiso   1.00
O98    O     0.60871   0.21519   0.29057   0.00000  Uiso   1.00
O99    O     0.54788   0.26502   0.28870   0.00000  Uiso   1.00
H100   H     0.57485   0.28358   0.27730   0.00000  Uiso   1.00
C101   C     0.83152   0.08748   0.16618   0.00000  Uiso   1.00
C102   C     0.83515   0.24585   0.16715   0.00000  Uiso   1.00
C103   C     0.73459   0.16669   0.15451   0.00000  Uiso   1.00
C104   C     0.93208   0.16664   0.17882   0.00000  Uiso   1.00
C105   C     0.67917   0.16673   0.14792   0.00000  Uiso   1.00
C106   C     0.98750   0.16660   0.18541   0.00000  Uiso   1.00
C107   C     0.86331   0.02247   0.13912   0.00000  Uiso   1.00
C108   C     0.80336   0.31086   0.19421   0.00000  Uiso   1.00
C109   C     0.86778   0.31305   0.14050   0.00000  Uiso   1.00
C110   C     0.79889   0.02029   0.19283   0.00000  Uiso   1.00
C111   C     0.83667   0.29056   0.16787   0.00000  Uiso   1.00
C112   C     0.83000   0.04278   0.16546   0.00000  Uiso   1.00
C113   C     0.80248   0.13952   0.01967   0.00000  Uiso   1.00
C114   C     0.86419   0.19381   0.31366   0.00000  Uiso   1.00
C115   C     0.80274   0.13973   0.30368   0.00000  Uiso   1.00
C116   C     0.86393   0.19360   0.02965   0.00000  Uiso   1.00
Cu117  Cu    0.83333   0.16667   0.21355   0.00000  Uiso   1.00
Cu118  Cu    0.83333   0.16666   0.11978   0.00000  Uiso   1.00
H119   H     0.99223   0.16689   0.11207   0.00000  Uiso   1.00
H120   H     0.67444   0.16645   0.22126   0.00000  Uiso   1.00
H121   H     0.88771   0.04036   0.11916   0.00000  Uiso   1.00
H122   H     0.77895   0.29297   0.21418   0.00000  Uiso   1.00
H123   H     0.77826   0.11827   0.28107   0.00000  Uiso   1.00
H124   H     0.88841   0.21506   0.05226   0.00000  Uiso   1.00
N125   N     0.83335   0.16668   0.28403   0.00000  Uiso   1.00
N126   N     0.83332   0.16666   0.04931   0.00000  Uiso   1.00
O127   O     0.83333   0.10655   0.20625   0.00000  Uiso   1.00
O128   O     0.83334   0.22678   0.12709   0.00000  Uiso   1.00
O129   O     0.83333   0.10654   0.12706   0.00000  Uiso   1.00
O130   O     0.83334   0.22679   0.20628   0.00000  Uiso   1.00
O131   O     0.75828   0.16667   0.19712   0.00000  Uiso   1.00
O132   O     0.90839   0.16666   0.13621   0.00000  Uiso   1.00
O133   O     0.75828   0.16666   0.11793   0.00000  Uiso   1.00
O134   O     0.90839   0.16667   0.21540   0.00000  Uiso   1.00
C135   C     0.90706   0.29353   0.11508   0.00000  Uiso   1.00
O136   O     0.93055   0.26323   0.13120   0.00000  Uiso   1.00
O137   O     0.91846   0.31081   0.07330   0.00000  Uiso   1.00
H138   H     0.94588   0.29492   0.05928   0.00000  Uiso   1.00
C139   C     0.75960   0.03980   0.21824   0.00000  Uiso   1.00
O140   O     0.73610   0.07010   0.20211   0.00000  Uiso   1.00
O141   O     0.74819   0.02253   0.26003   0.00000  Uiso   1.00
H142   H     0.72077   0.03842   0.27403   0.00000  Uiso   1.00
C143   C     0.76865   0.10888   0.03760   0.00000  Uiso   1.00
O144   O     0.72467   0.11810   0.04281   0.00000  Uiso   1.00
O145   O     0.78552   0.06829   0.04459   0.00000  Uiso   1.00
H146   H     0.75856   0.04971   0.05599   0.00000  Uiso   1.00
C147   C     0.89806   0.22443   0.29573   0.00000  Uiso   1.00
O148   O     0.94205   0.21519   0.29057   0.00000  Uiso   1.00
O149   O     0.88122   0.26502   0.28870   0.00000  Uiso   1.00
H150   H     0.90819   0.28358   0.27730   0.00000  Uiso   1.00
C151   C     0.16485   0.42082   0.16618   0.00000  Uiso   1.00
C152   C     0.16848   0.57918   0.16715   0.00000  Uiso   1.00
C153   C     0.06792   0.50002   0.15451   0.00000  Uiso   1.00
C154   C     0.26541   0.49998   0.17882   0.00000  Uiso   1.00
C155   C     0.01250   0.50006   0.14792   0.00000  Uiso   1.00
C156   C     0.32083   0.49994   0.18541   0.00000  Uiso   1.00
C157   C     0.19664   0.35581   0.13912   0.00000  Uiso   1.00
C158   C     0.13670   0.64420   0.19421   0.00000  Uiso   1.00
C159   C     0.20111   0.64638   0.14050   0.00000  Uiso   1.00
C160   C     0.13222   0.35362   0.19283   0.00000  Uiso   1.00
C161   C     0.17000   0.62389   0.16787   0.00000  Uiso   1.00
C162   C     0.16333   0.37611   0.16546   0.00000  Uiso   1.00
C163   C     0.13581   0.47286   0.01967   0.00000  Uiso   1.00
C164   C     0.19753   0.52714   0.31366   0.00000  Uiso   1.00
C165   C     0.13607   0.47307   0.30368   0.00000  Uiso   1.00
C166   C     0.19726   0.52693   0.02965   0.00000  Uiso   1.00
Cu167  Cu    0.16667   0.50001   0.21355   0.00000  Uiso   1.00
Cu168  Cu    0.16667   0.49999   0.11978   0.00000  Uiso   1.00
H169   H     0.32556   0.50022   0.11207   0.00000  Uiso   1.00
H170   H     0.00777   0.49978   0.22126   0.00000  Uiso   1.00
H171   H     0.22105   0.37370   0.11916   0.00000  Uiso   1.00
H172   H     0.11229   0.62630   0.21418   0.00000  Uiso   1.00
H173   H     0.11160   0.45160   0.28107   0.00000  Uiso   1.00
H174   H     0.22174   0.54839   0.05226   0.00000  Uiso   1.00
N175   N     0.16668   0.50001   0.28403   0.00000  Uiso   1.00
N176   N     0.16665   0.49999   0.04931   0.00000  Uiso   1.00
O177   O     0.16666   0.43989   0.20625   0.00000  Uiso   1.00
O178   O     0.16667   0.56011   0.12709   0.00000  Uiso   1.00
O179   O     0.16666   0.43988   0.12706   0.00000  Uiso   1.00
O180   O     0.16667   0.56012   0.20628   0.00000  Uiso   1.00
O181   O     0.09161   0.50000   0.19712   0.00000  Uiso   1.00
O182   O     0.24172   0.50000   0.13621   0.00000  Uiso   1.00
O183   O     0.09161   0.49999   0.11793   0.00000  Uiso   1.00
O184   O     0.24172   0.50001   0.21540   0.00000  Uiso   1.00
C185   C     0.24039   0.62687   0.11508   0.00000  Uiso   1.00
O186   O     0.26389   0.59656   0.13120   0.00000  Uiso   1.00
O187   O     0.25180   0.64414   0.07330   0.00000  Uiso   1.00
H188   H     0.27921   0.62825   0.05928   0.00000  Uiso   1.00
C189   C     0.09293   0.37313   0.21824   0.00000  Uiso   1.00
O190   O     0.06943   0.40343   0.20211   0.00000  Uiso   1.00
O191   O     0.08153   0.35586   0.26003   0.00000  Uiso   1.00
H192   H     0.05410   0.37175   0.27403   0.00000  Uiso   1.00
C193   C     0.10199   0.44221   0.03760   0.00000  Uiso   1.00
O194   O     0.05800   0.45144   0.04281   0.00000  Uiso   1.00
O195   O     0.11885   0.40163   0.04459   0.00000  Uiso   1.00
H196   H     0.09190   0.38304   0.05599   0.00000  Uiso   1.00
C197   C     0.23139   0.55776   0.29573   0.00000  Uiso   1.00
O198   O     0.27538   0.54852   0.29057   0.00000  Uiso   1.00
O199   O     0.21455   0.59835   0.28870   0.00000  Uiso   1.00
H200   H     0.24152   0.61691   0.27730   0.00000  Uiso   1.00
C201   C     0.49819   0.42082   0.16618   0.00000  Uiso   1.00
C202   C     0.50182   0.57918   0.16715   0.00000  Uiso   1.00
C203   C     0.40125   0.50002   0.15451   0.00000  Uiso   1.00
C204   C     0.59875   0.49998   0.17882   0.00000  Uiso   1.00
C205   C     0.34584   0.50006   0.14792   0.00000  Uiso   1.00
C206   C     0.65416   0.49994   0.18541   0.00000  Uiso   1.00
C207   C     0.52997   0.35581   0.13912   0.00000  Uiso   1.00
C208   C     0.47003   0.64420   0.19421   0.00000  Uiso   1.00
C209   C     0.53445   0.64638   0.14050   0.00000  Uiso   1.00
C210   C     0.46555   0.35362   0.19283   0.00000  Uiso   1.00
C211   C     0.50334   0.62389   0.16787   0.00000  Uiso   1.00
C212   C     0.49666   0.37611   0.16546   0.00000  Uiso   1.00
C213   C     0.46915   0.47286   0.01967   0.00000  Uiso   1.00
C214   C     0.53086   0.52714   0.31366   0.00000  Uiso   1.00
C215   C     0.46940   0.47307   0.30368   0.00000  Uiso   1.00
C216   C     0.53060   0.52693   0.02965   0.00000  Uiso   1.00
Cu217  Cu    0.50000   0.50001   0.21355   0.00000  Uiso   1.00
Cu218  Cu    0.50000   0.49999   0.11978   0.00000  Uiso   1.00
H219   H     0.65889   0.50022   0.11207   0.00000  Uiso   1.00
H220   H     0.34111   0.49978   0.22126   0.00000  Uiso   1.00
H221   H     0.55438   0.37370   0.11916   0.00000  Uiso   1.00
H222   H     0.44562   0.62630   0.21418   0.00000  Uiso   1.00
H223   H     0.44493   0.45160   0.28107   0.00000  Uiso   1.00
H224   H     0.55508   0.54839   0.05226   0.00000  Uiso   1.00
N225   N     0.50001   0.50001   0.28403   0.00000  Uiso   1.00
N226   N     0.49999   0.49999   0.04931   0.00000  Uiso   1.00
O227   O     0.50000   0.43989   0.20625   0.00000  Uiso   1.00
O228   O     0.50000   0.56011   0.12709   0.00000  Uiso   1.00
O229   O     0.50000   0.43988   0.12706   0.00000  Uiso   1.00
O230   O     0.50000   0.56012   0.20628   0.00000  Uiso   1.00
O231   O     0.42495   0.50000   0.19712   0.00000  Uiso   1.00
O232   O     0.57505   0.50000   0.13621   0.00000  Uiso   1.00
O233   O     0.42494   0.49999   0.11793   0.00000  Uiso   1.00
O234   O     0.57506   0.50001   0.21540   0.00000  Uiso   1.00
C235   C     0.57373   0.62687   0.11508   0.00000  Uiso   1.00
O236   O     0.59722   0.59656   0.13120   0.00000  Uiso   1.00
O237   O     0.58513   0.64414   0.07330   0.00000  Uiso   1.00
H238   H     0.61255   0.62825   0.05928   0.00000  Uiso   1.00
C239   C     0.42627   0.37313   0.21824   0.00000  Uiso   1.00
O240   O     0.40277   0.40343   0.20211   0.00000  Uiso   1.00
O241   O     0.41486   0.35586   0.26003   0.00000  Uiso   1.00
H242   H     0.38744   0.37175   0.27403   0.00000  Uiso   1.00
C243   C     0.43532   0.44221   0.03760   0.00000  Uiso   1.00
O244   O     0.39134   0.45144   0.04281   0.00000  Uiso   1.00
O245   O     0.45218   0.40163   0.04459   0.00000  Uiso   1.00
H246   H     0.42523   0.38304   0.05599   0.00000  Uiso   1.00
C247   C     0.56472   0.55776   0.29573   0.00000  Uiso   1.00
O248   O     0.60871   0.54852   0.29057   0.00000  Uiso   1.00
O249   O     0.54788   0.59835   0.28870   0.00000  Uiso   1.00
H250   H     0.57485   0.61691   0.27730   0.00000  Uiso   1.00
C251   C     0.83152   0.42082   0.16618   0.00000  Uiso   1.00
C252   C     0.83515   0.57918   0.16715   0.00000  Uiso   1.00
C253   C     0.73459   0.50002   0.15451   0.00000  Uiso   1.00
C254   C     0.93208   0.49998   0.17882   0.00000  Uiso   1.00
C255   C     0.67917   0.50006   0.14792   0.00000  Uiso   1.00
C256   C     0.98750   0.49994   0.18541   0.00000  Uiso   1.00
C257   C     0.86331   0.35581   0.13912   0.00000  Uiso   1.00
C258   C     0.80336   0.64420   0.19421   0.00000  Uiso   1.00
C259   C     0.86778   0.64638   0.14050   0.00000  Uiso   1.00
C260   C     0.79889   0.35362   0.19283   0.00000  Uiso   1.00
C261   C     0.83667   0.62389   0.16787   0.00000  Uiso   1.00
C262   C     0.83000   0.37611   0.16546   0.00000  Uiso   1.00
C263   C     0.80248   0.47286   0.01967   0.00000  Uiso   1.00
C264   C     0.86419   0.52714   0.31366   0.00000  Uiso   1.00
C265   C     0.80274   0.47307   0.30368   0.00000  Uiso   1.00
C266   C     0.86393   0.52693   0.02965   0.00000  Uiso   1.00
Cu267  Cu    0.83333   0.50001   0.21355   0.00000  Uiso   1.00
Cu268  Cu    0.83333   0.49999   0.11978   0.00000  Uiso   1.00
H269   H     0.99223   0.50022   0.11207   0.00000  Uiso   1.00
H270   H     0.67444   0.49978   0.22126   0.00000  Uiso   1.00
H271   H     0.88771   0.37370   0.11916   0.00000  Uiso   1.00
H272   H     0.77895   0.62630   0.21418   0.00000  Uiso   1.00
H273   H     0.77826   0.45160   0.28107   0.00000  Uiso   1.00
H274   H     0.88841   0.54839   0.05226   0.00000  Uiso   1.00
N275   N     0.83335   0.50001   0.28403   0.00000  Uiso   1.00
N276   N     0.83332   0.49999   0.04931   0.00000  Uiso   1.00
O277   O     0.83333   0.43989   0.20625   0.00000  Uiso   1.00
O278   O     0.83334   0.56011   0.12709   0.00000  Uiso   1.00
O279   O     0.83333   0.43988   0.12706   0.00000  Uiso   1.00
O280   O     0.83334   0.56012   0.20628   0.00000  Uiso   1.00
O281   O     0.75828   0.50000   0.19712   0.00000  Uiso   1.00
O282   O     0.90839   0.50000   0.13621   0.00000  Uiso   1.00
O283   O     0.75828   0.49999   0.11793   0.00000  Uiso   1.00
O284   O     0.90839   0.50001   0.21540   0.00000  Uiso   1.00
C285   C     0.90706   0.62687   0.11508   0.00000  Uiso   1.00
O286   O     0.93055   0.59656   0.13120   0.00000  Uiso   1.00
O287   O     0.91846   0.64414   0.07330   0.00000  Uiso   1.00
H288   H     0.94588   0.62825   0.05928   0.00000  Uiso   1.00
C289   C     0.75960   0.37313   0.21824   0.00000  Uiso   1.00
O290   O     0.73610   0.40343   0.20211   0.00000  Uiso   1.00
O291   O     0.74819   0.35586   0.26003   0.00000  Uiso   1.00
H292   H     0.72077   0.37175   0.27403   0.00000  Uiso   1.00
C293   C     0.76865   0.44221   0.03760   0.00000  Uiso   1.00
O294   O     0.72467   0.45144   0.04281   0.00000  Uiso   1.00
O295   O     0.78552   0.40163   0.04459   0.00000  Uiso   1.00
H296   H     0.75856   0.38304   0.05599   0.00000  Uiso   1.00
C297   C     0.89806   0.55776   0.29573   0.00000  Uiso   1.00
O298   O     0.94205   0.54852   0.29057   0.00000  Uiso   1.00
O299   O     0.88122   0.59835   0.28870   0.00000  Uiso   1.00
H300   H     0.90819   0.61691   0.27730   0.00000  Uiso   1.00
C301   C     0.16485   0.75415   0.16618   0.00000  Uiso   1.00
C302   C     0.16848   0.91252   0.16715   0.00000  Uiso   1.00
C303   C     0.06792   0.83336   0.15451   0.00000  Uiso   1.00
C304   C     0.26541   0.83331   0.17882   0.00000  Uiso   1.00
C305   C     0.01250   0.83340   0.14792   0.00000  Uiso   1.00
C306   C     0.32083   0.83327   0.18541   0.00000  Uiso   1.00
C307   C     0.19664   0.68914   0.13912   0.00000  Uiso   1.00
C308   C     0.13670   0.97753   0.19421   0.00000  Uiso   1.00
C309   C     0.20111   0.97971   0.14050   0.00000  Uiso   1.00
C310   C     0.13222   0.68695   0.19283   0.00000  Uiso   1.00
C311   C     0.17000   0.95722   0.16787   0.00000  Uiso   1.00
C312   C     0.16333   0.70944   0.16546   0.00000  Uiso   1.00
C313   C     0.13581   0.80619   0.01967   0.00000  Uiso   1.00
C314   C     0.19753   0.86047   0.31366   0.00000  Uiso   1.00
C315   C     0.13607   0.80640   0.30368   0.00000  Uiso   1.00
C316   C     0.19726   0.86027   0.02965   0.00000  Uiso   1.00
Cu317  Cu    0.16667   0.83334   0.21355   0.00000  Uiso   1.00
Cu318  Cu    0.16667   0.83333   0.11978   0.00000  Uiso   1.00
H319   H     0.32556   0.83355   0.11207   0.00000  Uiso   1.00
H320   H     0.00777   0.83312   0.22126   0.00000  Uiso   1.00
H321   H     0.22105   0.70703   0.11916   0.00000  Uiso   1.00
H322   H     0.11229   0.95964   0.21418   0.00000  Uiso   1.00
H323   H     0.11160   0.78494   0.28107   0.00000  Uiso   1.00
H324   H     0.22174   0.88173   0.05226   0.00000  Uiso   1.00
N325   N     0.16668   0.83334   0.28403   0.00000  Uiso   1.00
N326   N     0.16665   0.83332   0.04931   0.00000  Uiso   1.00
O327   O     0.16666   0.77322   0.20625   0.00000  Uiso   1.00
O328   O     0.16667   0.89345   0.12709   0.00000  Uiso   1.00
O329   O     0.16666   0.77321   0.12706   0.00000  Uiso   1.00
O330   O     0.16667   0.89346   0.20628   0.00000  Uiso   1.00
O331   O     0.09161   0.83334   0.19712   0.00000  Uiso   1.00
O332   O     0.24172   0.83333   0.13621   0.00000  Uiso   1.00
O333   O     0.09161   0.83333   0.11793   0.00000  Uiso   1.00
O334   O     0.24172   0.83334   0.21540   0.00000  Uiso   1.00
C335   C     0.24039   0.96020   0.11508   0.00000  Uiso   1.00
O336   O     0.26389   0.92990   0.13120   0.00000  Uiso   1.00
O337   O     0.25180   0.97748   0.07330   0.00000  Uiso   1.00
H338   H     0.27921   0.96159   0.05928   0.00000  Uiso   1.00
C339   C     0.09293   0.70647   0.21824   0.00000  Uiso   1.00
O340   O     0.06943   0.73677   0.20211   0.00000  Uiso   1.00
O341   O     0.08153   0.68920   0.26003   0.00000  Uiso   1.00
H342   H     0.05410   0.70508   0.27403   0.00000  Uiso   1.00
C343   C     0.10199   0.77554   0.03760   0.00000  Uiso   1.00
O344   O     0.05800   0.78477   0.04281   0.00000  Uiso   1.00
O345   O     0.11885   0.73496   0.04459   0.00000  Uiso   1.00
H346   H     0.09190   0.71638   0.05599   0.00000  Uiso   1.00
C347   C     0.23139   0.89110   0.29573   0.00000  Uiso   1.00
O348   O     0.27538   0.88185   0.29057   0.00000  Uiso   1.00
O349   O     0.21455   0.93168   0.28870   0.00000  Uiso   1.00
H350   H     0.24152   0.95025   0.27730   0.00000  Uiso   1.00
C351   C     0.49819   0.75415   0.16618   0.00000  Uiso   1.00
C352   C     0.50182   0.91252   0.16715   0.00000  Uiso   1.00
C353   C     0.40125   0.83336   0.15451   0.00000  Uiso   1.00
C354   C     0.59875   0.83331   0.17882   0.00000  Uiso   1.00
C355   C     0.34584   0.83340   0.14792   0.00000  Uiso   1.00
C356   C     0.65416   0.83327   0.18541   0.00000  Uiso   1.00
C357   C     0.52997   0.68914   0.13912   0.00000  Uiso   1.00
C358   C     0.47003   0.97753   0.19421   0.00000  Uiso   1.00
C359   C     0.53445   0.97971   0.14050   0.00000  Uiso   1.00
C360   C     0.46555   0.68695   0.19283   0.00000  Uiso   1.00
C361   C     0.50334   0.95722   0.16787   0.00000  Uiso   1.00
C362   C     0.49666   0.70944   0.16546   0.00000  Uiso   1.00
C363   C     0.46915   0.80619   0.01967   0.00000  Uiso   1.00
C364   C     0.53086   0.86047   0.31366   0.00000  Uiso   1.00
C365   C     0.46940   0.80640   0.30368   0.00000  Uiso   1.00
C366   C     0.53060   0.86027   0.02965   0.00000  Uiso   1.00
Cu367  Cu    0.50000   0.83334   0.21355   0.00000  Uiso   1.00
Cu368  Cu    0.50000   0.83333   0.11978   0.00000  Uiso   1.00
H369   H     0.65889   0.83355   0.11207   0.00000  Uiso   1.00
H370   H     0.34111   0.83312   0.22126   0.00000  Uiso   1.00
H371   H     0.55438   0.70703   0.11916   0.00000  Uiso   1.00
H372   H     0.44562   0.95964   0.21418   0.00000  Uiso   1.00
H373   H     0.44493   0.78494   0.28107   0.00000  Uiso   1.00
H374   H     0.55508   0.88173   0.05226   0.00000  Uiso   1.00
N375   N     0.50001   0.83334   0.28403   0.00000  Uiso   1.00
N376   N     0.49999   0.83332   0.04931   0.00000  Uiso   1.00
O377   O     0.50000   0.77322   0.20625   0.00000  Uiso   1.00
O378   O     0.50000   0.89345   0.12709   0.00000  Uiso   1.00
O379   O     0.50000   0.77321   0.12706   0.00000  Uiso   1.00
O380   O     0.50000   0.89346   0.20628   0.00000  Uiso   1.00
O381   O     0.42495   0.83334   0.19712   0.00000  Uiso   1.00
O382   O     0.57505   0.83333   0.13621   0.00000  Uiso   1.00
O383   O     0.42494   0.83333   0.11793   0.00000  Uiso   1.00
O384   O     0.57506   0.83334   0.21540   0.00000  Uiso   1.00
C385   C     0.57373   0.96020   0.11508   0.00000  Uiso   1.00
O386   O     0.59722   0.92990   0.13120   0.00000  Uiso   1.00
O387   O     0.58513   0.97748   0.07330   0.00000  Uiso   1.00
H388   H     0.61255   0.96159   0.05928   0.00000  Uiso   1.00
C389   C     0.42627   0.70647   0.21824   0.00000  Uiso   1.00
O390   O     0.40277   0.73677   0.20211   0.00000  Uiso   1.00
O391   O     0.41486   0.68920   0.26003   0.00000  Uiso   1.00
H392   H     0.38744   0.70508   0.27403   0.00000  Uiso   1.00
C393   C     0.43532   0.77554   0.03760   0.00000  Uiso   1.00
O394   O     0.39134   0.78477   0.04281   0.00000  Uiso   1.00
O395   O     0.45218   0.73496   0.04459   0.00000  Uiso   1.00
H396   H     0.42523   0.71638   0.05599   0.00000  Uiso   1.00
C397   C     0.56472   0.89110   0.29573   0.00000  Uiso   1.00
O398   O     0.60871   0.88185   0.29057   0.00000  Uiso   1.00
O399   O     0.54788   0.93168   0.28870   0.00000  Uiso   1.00
H400   H     0.57485   0.95025   0.27730   0.00000  Uiso   1.00
C401   C     0.83152   0.75415   0.16618   0.00000  Uiso   1.00
C402   C     0.83515   0.91252   0.16715   0.00000  Uiso   1.00
C403   C     0.73459   0.83336   0.15451   0.00000  Uiso   1.00
C404   C     0.93208   0.83331   0.17882   0.00000  Uiso   1.00
C405   C     0.67917   0.83340   0.14792   0.00000  Uiso   1.00
C406   C     0.98750   0.83327   0.18541   0.00000  Uiso   1.00
C407   C     0.86331   0.68914   0.13912   0.00000  Uiso   1.00
C408   C     0.80336   0.97753   0.19421   0.00000  Uiso   1.00
C409   C     0.86778   0.97971   0.14050   0.00000  Uiso   1.00
C410   C     0.79889   0.68695   0.19283   0.00000  Uiso   1.00
C411   C     0.83667   0.95722   0.16787   0.00000  Uiso   1.00
C412   C     0.83000   0.70944   0.16546   0.00000  Uiso   1.00
C413   C     0.80248   0.80619   0.01967   0.00000  Uiso   1.00
C414   C     0.86419   0.86047   0.31366   0.00000  Uiso   1.00
C415   C     0.80274   0.80640   0.30368   0.00000  Uiso   1.00
C416   C     0.86393   0.86027   0.02965   0.00000  Uiso   1.00
Cu417  Cu    0.83333   0.83334   0.21355   0.00000  Uiso   1.00
Cu418  Cu    0.83333   0.83333   0.11978   0.00000  Uiso   1.00
H419   H     0.99223   0.83355   0.11207   0.00000  Uiso   1.00
H420   H     0.67444   0.83312   0.22126   0.00000  Uiso   1.00
H421   H     0.88771   0.70703   0.11916   0.00000  Uiso   1.00
H422   H     0.77895   0.95964   0.21418   0.00000  Uiso   1.00
H423   H     0.77826   0.78494   0.28107   0.00000  Uiso   1.00
H424   H     0.88841   0.88173   0.05226   0.00000  Uiso   1.00
N425   N     0.83335   0.83334   0.28403   0.00000  Uiso   1.00
N426   N     0.83332   0.83332   0.04931   0.00000  Uiso   1.00
O427   O     0.83333   0.77322   0.20625   0.00000  Uiso   1.00
O428   O     0.83334   0.89345   0.12709   0.00000  Uiso   1.00
O429   O     0.83333   0.77321   0.12706   0.00000  Uiso   1.00
O430   O     0.83334   0.89346   0.20628   0.00000  Uiso   1.00
O431   O     0.75828   0.83334   0.19712   0.00000  Uiso   1.00
O432   O     0.90839   0.83333   0.13621   0.00000  Uiso   1.00
O433   O     0.75828   0.83333   0.11793   0.00000  Uiso   1.00
O434   O     0.90839   0.83334   0.21540   0.00000  Uiso   1.00
C435   C     0.90706   0.96020   0.11508   0.00000  Uiso   1.00
O436   O     0.93055   0.92990   0.13120   0.00000  Uiso   1.00
O437   O     0.91846   0.97748   0.07330   0.00000  Uiso   1.00
H438   H     0.94588   0.96159   0.05928   0.00000  Uiso   1.00
C439   C     0.75960   0.70647   0.21824   0.00000  Uiso   1.00
O440   O     0.73610   0.73677   0.20211   0.00000  Uiso   1.00
O441   O     0.74819   0.68920   0.26003   0.00000  Uiso   1.00
H442   H     0.72077   0.70508   0.27403   0.00000  Uiso   1.00
C443   C     0.76865   0.77554   0.03760   0.00000  Uiso   1.00
O444   O     0.72467   0.78477   0.04281   0.00000  Uiso   1.00
O445   O     0.78552   0.73496   0.04459   0.00000  Uiso   1.00
H446   H     0.75856   0.71638   0.05599   0.00000  Uiso   1.00
C447   C     0.89806   0.89110   0.29573   0.00000  Uiso   1.00
O448   O     0.94205   0.88185   0.29057   0.00000  Uiso   1.00
O449   O     0.88122   0.93168   0.28870   0.00000  Uiso   1.00
H450   H     0.90819   0.95025   0.27730   0.00000  Uiso   1.00
C451   C     0.16485   0.08748   0.49952   0.00000  Uiso   1.00
C452   C     0.16848   0.24585   0.50048   0.00000  Uiso   1.00
C453   C     0.06792   0.16669   0.48785   0.00000  Uiso   1.00
C454   C     0.26541   0.16664   0.51215   0.00000  Uiso   1.00
C455   C     0.01250   0.16673   0.48126   0.00000  Uiso   1.00
C456   C     0.32083   0.16660   0.51874   0.00000  Uiso   1.00
C457   C     0.19664   0.02247   0.47246   0.00000  Uiso   1.00
C458   C     0.13670   0.31086   0.52754   0.00000  Uiso   1.00
C459   C     0.20111   0.31305   0.47383   0.00000  Uiso   1.00
C460   C     0.13222   0.02029   0.52616   0.00000  Uiso   1.00
C461   C     0.17000   0.29056   0.50121   0.00000  Uiso   1.00
C462   C     0.16333   0.04278   0.49879   0.00000  Uiso   1.00
C463   C     0.13581   0.13952   0.35301   0.00000  Uiso   1.00
C464   C     0.19753   0.19381   0.64699   0.00000  Uiso   1.00
C465   C     0.13607   0.13973   0.63702   0.00000  Uiso   1.00
C466   C     0.19726   0.19360   0.36298   0.00000  Uiso   1.00
Cu467  Cu    0.16667   0.16667   0.54689   0.00000  Uiso   1.00
Cu468  Cu    0.16667   0.16666   0.45311   0.00000  Uiso   1.00
H469   H     0.32556   0.16689   0.44540   0.00000  Uiso   1.00
H470   H     0.00777   0.16645   0.55460   0.00000  Uiso   1.00
H471   H     0.22105   0.04036   0.45249   0.00000  Uiso   1.00
H472   H     0.11229   0.29297   0.54751   0.00000  Uiso   1.00
H473   H     0.11160   0.11827   0.61440   0.00000  Uiso   1.00
H474   H     0.22174   0.21506   0.38560   0.00000  Uiso   1.00
N475   N     0.16668   0.16668   0.61736   0.00000  Uiso   1.00
N476   N     0.16665   0.16666   0.38264   0.00000  Uiso   1.00
O477   O     0.16666   0.10655   0.53958   0.00000  Uiso   1.00
O478   O     0.16667   0.22678   0.46042   0.00000  Uiso   1.00
O479   O     0.16666   0.10654   0.46039   0.00000  Uiso   1.00
O480   O     0.16667   0.22679   0.53961   0.00000  Uiso   1.00
O481   O     0.09161   0.16667   0.53046   0.00000  Uiso   1.00
O482   O     0.24172   0.16666   0.46954   0.00000  Uiso   1.00
O483   O     0.09161   0.16666   0.45127   0.00000  Uiso   1.00
O484   O     0.24172   0.16667   0.54873   0.00000  Uiso   1.00
C485   C     0.24039   0.29353   0.44841   0.00000  Uiso   1.00
O486   O     0.26389   0.26323   0.46453   0.00000  Uiso   1.00
O487   O     0.25180   0.31081   0.40663   0.00000  Uiso   1.00
H488   H     0.27921   0.29492   0.39262   0.00000  Uiso   1.00
C489   C     0.09293   0.03980   0.55157   0.00000  Uiso   1.00
O490   O     0.06943   0.07010   0.53545   0.00000  Uiso   1.00
O491   O     0.08153   0.02253   0.59336   0.00000  Uiso   1.00
H492   H     0.05410   0.03842   0.60737   0.00000  Uiso   1.00
C493   C     0.10199   0.10888   0.37094   0.00000  Uiso   1.00
O494   O     0.05800   0.11810   0.37614   0.00000  Uiso   1.00
O495   O     0.11885   0.06829   0.37792   0.00000  Uiso   1.00
H496   H     0.09190   0.04971   0.38933   0.00000  Uiso   1.00
C497   C     0.23139   0.22443   0.62907   0.00000  Uiso   1.00
O498   O     0.27538   0.21519   0.62391   0.00000  Uiso   1.00
O499   O     0.21455   0.26502   0.62204   0.00000  Uiso   1.00
H500   H     0.24152   0.28358   0.61063   0.00000  Uiso   1.00
C501   C     0.49819   0.08748   0.49952   0.00000  Uiso   1.00
C502   C     0.50182   0.24585   0.50048   0.00000  Uiso   1.00
C503   C     0.40125   0.16669   0.48785   0.00000  Uiso   1.00
C504   C     0.59875   0.16664   0.51215   0.00000  Uiso   1.00
C505   C     0.34584   0.16673   0.48126   0.00000  Uiso   1.00
C506   C     0.65416   0.16660   0.51874   0.00000  Uiso   1.00
C507   C     0.52997   0.02247   0.47246   0.00000  Uiso   1.00
C508   C     0.47003   0.31086   0.52754   0.00000  Uiso   1.00
C509   C     0.53445   0.31305   0.47383   0.00000  Uiso   1.00
C510   C     0.46555   0.02029   0.52616   0.00000  Uiso   1.00
C511   C     0.50334   0.29056   0.50121   0.00000  Uiso   1.00
C512   C     0.49666   0.04278   0.49879   0.00000  Uiso   1.00
C513   C     0.46915   0.13952   0.35301   0.00000  Uiso   1.00
C514   C     0.53086   0.19381   0.64699   0.00000  Uiso   1.00
C515   C     0.46940   0.13973   0.63702   0.00000  Uiso   1.00
C516   C     0.53060   0.19360   0.36298   0.00000  Uiso   1.00
Cu517  Cu    0.50000   0.16667   0.54689   0.00000  Uiso   1.00
Cu518  Cu    0.50000   0.16666   0.45311   0.00000  Uiso   1.00
H519   H     0.65889   0.16689   0.44540   0.00000  Uiso   1.00
H520   H     0.34111   0.16645   0.55460   0.00000  Uiso   1.00
H521   H     0.55438   0.04036   0.45249   0.00000  Uiso   1.00
H522   H     0.44562   0.29297   0.54751   0.00000  Uiso   1.00
H523   H     0.44493   0.11827   0.61440   0.00000  Uiso   1.00
H524   H     0.55508   0.21506   0.38560   0.00000  Uiso   1.00
N525   N     0.50001   0.16668   0.61736   0.00000  Uiso   1.00
N526   N     0.49999   0.16666   0.38264   0.00000  Uiso   1.00
O527   O     0.50000   0.10655   0.53958   0.00000  Uiso   1.00
O528   O     0.50000   0.22678   0.46042   0.00000  Uiso   1.00
O529   O     0.50000   0.10654   0.46039   0.00000  Uiso   1.00
O530   O     0.50000   0.22679   0.53961   0.00000  Uiso   1.00
O531   O     0.42495   0.16667   0.53046   0.00000  Uiso   1.00
O532   O     0.57505   0.16666   0.46954   0.00000  Uiso   1.00
O533   O     0.42494   0.16666   0.45127   0.00000  Uiso   1.00
O534   O     0.57506   0.16667   0.54873   0.00000  Uiso   1.00
C535   C     0.57373   0.29353   0.44841   0.00000  Uiso   1.00
O536   O     0.59722   0.26323   0.46453   0.00000  Uiso   1.00
O537   O     0.58513   0.31081   0.40663   0.00000  Uiso   1.00
H538   H     0.61255   0.29492   0.39262   0.00000  Uiso   1.00
C539   C     0.42627   0.03980   0.55157   0.00000  Uiso   1.00
O540   O     0.40277   0.07010   0.53545   0.00000  Uiso   1.00
O541   O     0.41486   0.02253   0.59336   0.00000  Uiso   1.00
H542   H     0.38744   0.03842   0.60737   0.00000  Uiso   1.00
C543   C     0.43532   0.10888   0.37094   0.00000  Uiso   1.00
O544   O     0.39134   0.11810   0.37614   0.00000  Uiso   1.00
O545   O     0.45218   0.06829   0.37792   0.00000  Uiso   1.00
H546   H     0.42523   0.04971   0.38933   0.00000  Uiso   1.00
C547   C     0.56472   0.22443   0.62907   0.00000  Uiso   1.00
O548   O     0.60871   0.21519   0.62391   0.00000  Uiso   1.00
O549   O     0.54788   0.26502   0.62204   0.00000  Uiso   1.00
H550   H     0.57485   0.28358   0.61063   0.00000  Uiso   1.00
C551   C     0.83152   0.08748   0.49952   0.00000  Uiso   1.00
C552   C     0.83515   0.24585   0.50048   0.00000  Uiso   1.00
C553   C     0.73459   0.16669   0.48785   0.00000  Uiso   1.00
C554   C     0.93208   0.16664   0.51215   0.00000  Uiso   1.00
C555   C     0.67917   0.16673   0.48126   0.00000  Uiso   1.00
C556   C     0.98750   0.16660   0.51874   0.00000  Uiso   1.00
C557   C     0.86331   0.02247   0.47246   0.00000  Uiso   1.00
C558   C     0.80336   0.31086   0.52754   0.00000  Uiso   1.00
C559   C     0.86778   0.31305   0.47383   0.00000  Uiso   1.00
C560   C     0.79889   0.02029   0.52616   0.00000  Uiso   1.00
C561   C     0.83667   0.29056   0.50121   0.00000  Uiso   1.00
C562   C     0.83000   0.04278   0.49879   0.00000  Uiso   1.00
C563   C     0.80248   0.13952   0.35301   0.00000  Uiso   1.00
C564   C     0.86419   0.19381   0.64699   0.00000  Uiso   1.00
C565   C     0.80274   0.13973   0.63702   0.00000  Uiso   1.00
C566   C     0.86393   0.19360   0.36298   0.00000  Uiso   1.00
Cu567  Cu    0.83333   0.16667   0.54689   0.00000  Uiso   1.00
Cu568  Cu    0.83333   0.16666   0.45311   0.00000  Uiso   1.00
H569   H     0.99223   0.16689   0.44540   0.00000  Uiso   1.00
H570   H     0.67444   0.16645   0.55460   0.00000  Uiso   1.00
H571   H     0.88771   0.04036   0.45249   0.00000  Uiso   1.00
H572   H     0.77895   0.29297   0.54751   0.00000  Uiso   1.00
H573   H     0.77826   0.11827   0.61440   0.00000  Uiso   1.00
H574   H     0.88841   0.21506   0.38560   0.00000  Uiso   1.00
N575   N     0.83335   0.16668   0.61736   0.00000  Uiso   1.00
N576   N     0.83332   0.16666   0.38264   0.00000  Uiso   1.00
O577   O     0.83333   0.10655   0.53958   0.00000  Uiso   1.00
O578   O     0.83334   0.22678   0.46042   0.00000  Uiso   1.00
O579   O     0.83333   0.10654   0.46039   0.00000  Uiso   1.00
O580   O     0.83334   0.22679   0.53961   0.00000  Uiso   1.00
O581   O     0.75828   0.16667   0.53046   0.00000  Uiso   1.00
O582   O     0.90839   0.16666   0.46954   0.00000  Uiso   1.00
O583   O     0.75828   0.16666   0.45127   0.00000  Uiso   1.00
O584   O     0.90839   0.16667   0.54873   0.00000  Uiso   1.00
C585   C     0.90706   0.29353   0.44841   0.00000  Uiso   1.00
O586   O     0.93055   0.26323   0.46453   0.00000  Uiso   1.00
O587   O     0.91846   0.31081   0.40663   0.00000  Uiso   1.00
H588   H     0.94588   0.29492   0.39262   0.00000  Uiso   1.00
C589   C     0.75960   0.03980   0.55157   0.00000  Uiso   1.00
O590   O     0.73610   0.07010   0.53545   0.00000  Uiso   1.00
O591   O     0.74819   0.02253   0.59336   0.00000  Uiso   1.00
H592   H     0.72077   0.03842   0.60737   0.00000  Uiso   1.00
C593   C     0.76865   0.10888   0.37094   0.00000  Uiso   1.00
O594   O     0.72467   0.11810   0.37614   0.00000  Uiso   1.00
O595   O     0.78552   0.06829   0.37792   0.00000  Uiso   1.00
H596   H     0.75856   0.04971   0.38933   0.00000  Uiso   1.00
C597   C     0.89806   0.22443   0.62907   0.00000  Uiso   1.00
O598   O     0.94205   0.21519   0.62391   0.00000  Uiso   1.00
O599   O     0.88122   0.26502   0.62204   0.00000  Uiso   1.00
H600   H     0.90819   0.28358   0.61063   0.00000  Uiso   1.00
C601   C     0.16485   0.42082   0.49952   0.00000  Uiso   1.00
C602   C     0.16848   0.57918   0.50048   0.00000  Uiso   1.00
C603   C     0.06792   0.50002   0.48785   0.00000  Uiso   1.00
C604   C     0.26541   0.49998   0.51215   0.00000  Uiso   1.00
C605   C     0.01250   0.50006   0.48126   0.00000  Uiso   1.00
C606   C     0.32083   0.49994   0.51874   0.00000  Uiso   1.00
C607   C     0.19664   0.35581   0.47246   0.00000  Uiso   1.00
C608   C     0.13670   0.64420   0.52754   0.00000  Uiso   1.00
C609   C     0.20111   0.64638   0.47383   0.00000  Uiso   1.00
C610   C     0.13222   0.35362   0.52616   0.00000  Uiso   1.00
C611   C     0.17000   0.62389   0.50121   0.00000  Uiso   1.00
C612   C     0.16333   0.37611   0.49879   0.00000  Uiso   1.00
C613   C     0.13581   0.47286   0.35301   0.00000  Uiso   1.00
C614   C     0.19753   0.52714   0.64699   0.00000  Uiso   1.00
C615   C     0.13607   0.47307   0.63702   0.00000  Uiso   1.00
C616   C     0.19726   0.52693   0.36298   0.00000  Uiso   1.00
Cu617  Cu    0.16667   0.50001   0.54689   0.00000  Uiso   1.00
Cu618  Cu    0.16667   0.49999   0.45311   0.00000  Uiso   1.00
H619   H     0.32556   0.50022   0.44540   0.00000  Uiso   1.00
H620   H     0.00777   0.49978   0.55460   0.00000  Uiso   1.00
H621   H     0.22105   0.37370   0.45249   0.00000  Uiso   1.00
H622   H     0.11229   0.62630   0.54751   0.00000  Uiso   1.00
H623   H     0.11160   0.45160   0.61440   0.00000  Uiso   1.00
H624   H     0.22174   0.54839   0.38560   0.00000  Uiso   1.00
N625   N     0.16668   0.50001   0.61736   0.00000  Uiso   1.00
N626   N     0.16665   0.49999   0.38264   0.00000  Uiso   1.00
O627   O     0.16666   0.43989   0.53958   0.00000  Uiso   1.00
O628   O     0.16667   0.56011   0.46042   0.00000  Uiso   1.00
O629   O     0.16666   0.43988   0.46039   0.00000  Uiso   1.00
O630   O     0.16667   0.56012   0.53961   0.00000  Uiso   1.00
O631   O     0.09161   0.50000   0.53046   0.00000  Uiso   1.00
O632   O     0.24172   0.50000   0.46954   0.00000  Uiso   1.00
O633   O     0.09161   0.49999   0.45127   0.00000  Uiso   1.00
O634   O     0.24172   0.50001   0.54873   0.00000  Uiso   1.00
C635   C     0.24039   0.62687   0.44841   0.00000  Uiso   1.00
O636   O     0.26389   0.59656   0.46453   0.00000  Uiso   1.00
O637   O     0.25180   0.64414   0.40663   0.00000  Uiso   1.00
H638   H     0.27921   0.62825   0.39262   0.00000  Uiso   1.00
C639   C     0.09293   0.37313   0.55157   0.00000  Uiso   1.00
O640   O     0.06943   0.40343   0.53545   0.00000  Uiso   1.00
O641   O     0.08153   0.35586   0.59336   0.00000  Uiso   1.00
H642   H     0.05410   0.37175   0.60737   0.00000  Uiso   1.00
C643   C     0.10199   0.44221   0.37094   0.00000  Uiso   1.00
O644   O     0.05800   0.45144   0.37614   0.00000  Uiso   1.00
O645   O     0.11885   0.40163   0.37792   0.00000  Uiso   1.00
H646   H     0.09190   0.38304   0.38933   0.00000  Uiso   1.00
C647   C     0.23139   0.55776   0.62907   0.00000  Uiso   1.00
O648   O     0.27538   0.54852   0.62391   0.00000  Uiso   1.00
O649   O     0.21455   0.59835   0.62204   0.00000  Uiso   1.00
H650   H     0.24152   0.61691   0.61063   0.00000  Uiso   1.00
C651   C     0.49819   0.42082   0.49952   0.00000  Uiso   1.00
C652   C     0.50182   0.57918   0.50048   0.00000  Uiso   1.00
C653   C     0.40125   0.50002   0.48785   0.00000  Uiso   1.00
C654   C     0.59875   0.49998   0.51215   0.00000  Uiso   1.00
C655   C     0.34584   0.50006   0.48126   0.00000  Uiso   1.00
C656   C     0.65416   0.49994   0.51874   0.00000  Uiso   1.00
C657   C     0.52997   0.35581   0.47246   0.00000  Uiso   1.00
C658   C     0.47003   0.64420   0.52754   0.00000  Uiso   1.00
C659   C     0.53445   0.64638   0.47383   0.00000  Uiso   1.00
C660   C     0.46555   0.35362   0.52616   0.00000  Uiso   1.00
C661   C     0.50334   0.62389   0.50121   0.00000  Uiso   1.00
C662   C     0.49666   0.37611   0.49879   0.00000  Uiso   1.00
C663   C     0.46915   0.47286   0.35301   0.00000  Uiso   1.00
C664   C     0.53086   0.52714   0.64699   0.00000  Uiso   1.00
C665   C     0.46940   0.47307   0.63702   0.00000  Uiso   1.00
C666   C     0.53060   0.52693   0.36298   0.00000  Uiso   1.00
Cu667  Cu    0.50000   0.50001   0.54689   0.00000  Uiso   1.00
Cu668  Cu    0.50000   0.49999   0.45311   0.00000  Uiso   1.00
H669   H     0.65889   0.50022   0.44540   0.00000  Uiso   1.00
H670   H     0.34111   0.49978   0.55460   0.00000  Uiso   1.00
H671   H     0.55438   0.37370   0.45249   0.00000  Uiso   1.00
H672   H     0.44562   0.62630   0.54751   0.00000  Uiso   1.00
H673   H     0.44493   0.45160   0.61440   0.00000  Uiso   1.00
H674   H     0.55508   0.54839   0.38560   0.00000  Uiso   1.00
N675   N     0.50001   0.50001   0.61736   0.00000  Uiso   1.00
N676   N     0.49999   0.49999   0.38264   0.00000  Uiso   1.00
O677   O     0.50000   0.43989   0.53958   0.00000  Uiso   1.00
O678   O     0.50000   0.56011   0.46042   0.00000  Uiso   1.00
O679   O     0.50000   0.43988   0.46039   0.00000  Uiso   1.00
O680   O     0.50000   0.56012   0.53961   0.00000  Uiso   1.00
O681   O     0.42495   0.50000   0.53046   0.00000  Uiso   1.00
O682   O     0.57505   0.50000   0.46954   0.00000  Uiso   1.00
O683   O     0.42494   0.49999   0.45127   0.00000  Uiso   1.00
O684   O     0.57506   0.50001   0.54873   0.00000  Uiso   1.00
C685   C     0.57373   0.62687   0.44841   0.00000  Uiso   1.00
O686   O     0.59722   0.59656   0.46453   0.00000  Uiso   1.00
O687   O     0.58513   0.64414   0.40663   0.00000  Uiso   1.00
H688   H     0.61255   0.62825   0.39262   0.00000  Uiso   1.00
C689   C     0.42627   0.37313   0.55157   0.00000  Uiso   1.00
O690   O     0.40277   0.40343   0.53545   0.00000  Uiso   1.00
O691   O     0.41486   0.35586   0.59336   0.00000  Uiso   1.00
H692   H     0.38744   0.37175   0.60737   0.00000  Uiso   1.00
C693   C     0.43532   0.44221   0.37094   0.00000  Uiso   1.00
O694   O     0.39134   0.45144   0.37614   0.00000  Uiso   1.00
O695   O     0.45218   0.40163   0.37792   0.00000  Uiso   1.00
H696   H     0.42523   0.38304   0.38933   0.00000  Uiso   1.00
C697   C     0.56472   0.55776   0.62907   0.00000  Uiso   1.00
O698   O     0.60871   0.54852   0.62391   0.00000  Uiso   1.00
O699   O     0.54788   0.59835   0.62204   0.00000  Uiso   1.00
H700   H     0.57485   0.61691   0.61063   0.00000  Uiso   1.00
C701   C     0.83152   0.42082   0.49952   0.00000  Uiso   1.00
C702   C     0.83515   0.57918   0.50048   0.00000  Uiso   1.00
C703   C     0.73459   0.50002   0.48785   0.00000  Uiso   1.00
C704   C     0.93208   0.49998   0.51215   0.00000  Uiso   1.00
C705   C     0.67917   0.50006   0.48126   0.00000  Uiso   1.00
C706   C     0.98750   0.49994   0.51874   0.00000  Uiso   1.00
C707   C     0.86331   0.35581   0.47246   0.00000  Uiso   1.00
C708   C     0.80336   0.64420   0.52754   0.00000  Uiso   1.00
C709   C     0.86778   0.64638   0.47383   0.00000  Uiso   1.00
C710   C     0.79889   0.35362   0.52616   0.00000  Uiso   1.00
C711   C     0.83667   0.62389   0.50121   0.00000  Uiso   1.00
C712   C     0.83000   0.37611   0.49879   0.00000  Uiso   1.00
C713   C     0.80248   0.47286   0.35301   0.00000  Uiso   1.00
C714   C     0.86419   0.52714   0.64699   0.00000  Uiso   1.00
C715   C     0.80274   0.47307   0.63702   0.00000  Uiso   1.00
C716   C     0.86393   0.52693   0.36298   0.00000  Uiso   1.00
Cu717  Cu    0.83333   0.50001   0.54689   0.00000  Uiso   1.00
Cu718  Cu    0.83333   0.49999   0.45311   0.00000  Uiso   1.00
H719   H     0.99223   0.50022   0.44540   0.00000  Uiso   1.00
H720   H     0.67444   0.49978   0.55460   0.00000  Uiso   1.00
H721   H     0.88771   0.37370   0.45249   0.00000  Uiso   1.00
H722   H     0.77895   0.62630   0.54751   0.00000  Uiso   1.00
H723   H     0.77826   0.45160   0.61440   0.00000  Uiso   1.00
H724   H     0.88841   0.54839   0.38560   0.00000  Uiso   1.00
N725   N     0.83335   0.50001   0.61736   0.00000  Uiso   1.00
N726   N     0.83332   0.49999   0.38264   0.00000  Uiso   1.00
O727   O     0.83333   0.43989   0.53958   0.00000  Uiso   1.00
O728   O     0.83334   0.56011   0.46042   0.00000  Uiso   1.00
O729   O     0.83333   0.43988   0.46039   0.00000  Uiso   1.00
O730   O     0.83334   0.56012   0.53961   0.00000  Uiso   1.00
O731   O     0.75828   0.50000   0.53046   0.00000  Uiso   1.00
O732   O     0.90839   0.50000   0.46954   0.00000  Uiso   1.00
O733   O     0.75828   0.49999   0.45127   0.00000  Uiso   1.00
O734   O     0.90839   0.50001   0.54873   0.00000  Uiso   1.00
C735   C     0.90706   0.62687   0.44841   0.00000  Uiso   1.00
O736   O     0.93055   0.59656   0.46453   0.00000  Uiso   1.00
O737   O     0.91846   0.64414   0.40663   0.00000  Uiso   1.00
H738   H     0.94588   0.62825   0.39262   0.00000  Uiso   1.00
C739   C     0.75960   0.37313   0.55157   0.00000  Uiso   1.00
O740   O     0.73610   0.40343   0.53545   0.00000  Uiso   1.00
O741   O     0.74819   0.35586   0.59336   0.00000  Uiso   1.00
H742   H     0.72077   0.37175   0.60737   0.00000  Uiso   1.00
C743   C     0.76865   0.44221   0.37094   0.00000  Uiso   1.00
O744   O     0.72467   0.45144   0.37614   0.00000  Uiso   1.00
O745   O     0.78552   0.40163   0.37792   0.00000  Uiso   1.00
H746   H     0.75856   0.38304   0.38933   0.00000  Uiso   1.00
C747   C     0.89806   0.55776   0.62907   0.00000  Uiso   1.00
O748   O     0.94205   0.54852   0.62391   0.00000  Uiso   1.00
O749   O     0.88122   0.59835   0.62204   0.00000  Uiso   1.00
H750   H     0.90819   0.61691   0.61063   0.00000  Uiso   1.00
C751   C     0.16485   0.75415   0.49952   0.00000  Uiso   1.00
C752   C     0.16848   0.91252   0.50048   0.00000  Uiso   1.00
C753   C     0.06792   0.83336   0.48785   0.00000  Uiso   1.00
C754   C     0.26541   0.83331   0.51215   0.00000  Uiso   1.00
C755   C     0.01250   0.83340   0.48126   0.00000  Uiso   1.00
C756   C     0.32083   0.83327   0.51874   0.00000  Uiso   1.00
C757   C     0.19664   0.68914   0.47246   0.00000  Uiso   1.00
C758   C     0.13670   0.97753   0.52754   0.00000  Uiso   1.00
C759   C     0.20111   0.97971   0.47383   0.00000  Uiso   1.00
C760   C     0.13222   0.68695   0.52616   0.00000  Uiso   1.00
C761   C     0.17000   0.95722   0.50121   0.00000  Uiso   1.00
C762   C     0.16333   0.70944   0.49879   0.00000  Uiso   1.00
C763   C     0.13581   0.80619   0.35301   0.00000  Uiso   1.00
C764   C     0.19753   0.86047   0.64699   0.00000  Uiso   1.00
C765   C     0.13607   0.80640   0.63702   0.00000  Uiso   1.00
C766   C     0.19726   0.86027   0.36298   0.00000  Uiso   1.00
Cu767  Cu    0.16667   0.83334   0.54689   0.00000  Uiso   1.00
Cu768  Cu    0.16667   0.83333   0.45311   0.00000  Uiso   1.00
H769   H     0.32556   0.83355   0.44540   0.00000  Uiso   1.00
H770   H     0.00777   0.83312   0.55460   0.00000  Uiso   1.00
H771   H     0.22105   0.70703   0.45249   0.00000  Uiso   1.00
H772   H     0.11229   0.95964   0.54751   0.00000  Uiso   1.00
H773   H     0.11160   0.78494   0.61440   0.00000  Uiso   1.00
H774   H     0.22174   0.88173   0.38560   0.00000  Uiso   1.00
N775   N     0.16668   0.83334   0.61736   0.00000  Uiso   1.00
N776   N     0.16665   0.83332   0.38264   0.00000  Uiso   1.00
O777   O     0.16666   0.77322   0.53958   0.00000  Uiso   1.00
O778   O     0.16667   0.89345   0.46042   0.00000  Uiso   1.00
O779   O     0.16666   0.77321   0.46039   0.00000  Uiso   1.00
O780   O     0.16667   0.89346   0.53961   0.00000  Uiso   1.00
O781   O     0.09161   0.83334   0.53046   0.00000  Uiso   1.00
O782   O     0.24172   0.83333   0.46954   0.00000  Uiso   1.00
O783   O     0.09161   0.83333   0.45127   0.00000  Uiso   1.00
O784   O     0.24172   0.83334   0.54873   0.00000  Uiso   1.00
C785   C     0.24039   0.96020   0.44841   0.00000  Uiso   1.00
O786   O     0.26389   0.92990   0.46453   0.00000  Uiso   1.00
O787   O     0.25180   0.97748   0.40663   0.00000  Uiso   1.00
H788   H     0.27921   0.96159   0.39262   0.00000  Uiso   1.00
C789   C     0.09293   0.70647   0.55157   0.00000  Uiso   1.00
O790   O     0.06943   0.73677   0.53545   0.00000  Uiso   1.00
O791   O     0.08153   0.68920   0.59336   0.00000  Uiso   1.00
H792   H     0.05410   0.70508   0.60737   0.00000  Uiso   1.00
C793   C     0.10199   0.77554   0.37094   0.00000  Uiso   1.00
O794   O     0.05800   0.78477   0.37614   0.00000  Uiso   1.00
O795   O     0.11885   0.73496   0.37792   0.00000  Uiso   1.00
H796   H     0.09190   0.71638   0.38933   0.00000  Uiso   1.00
C797   C     0.23139   0.89110   0.62907   0.00000  Uiso   1.00
O798   O     0.27538   0.88185   0.62391   0.00000  Uiso   1.00
O799   O     0.21455   0.93168   0.62204   0.00000  Uiso   1.00
H800   H     0.24152   0.95025   0.61063   0.00000  Uiso   1.00
C801   C     0.49819   0.75415   0.49952   0.00000  Uiso   1.00
C802   C     0.50182   0.91252   0.50048   0.00000  Uiso   1.00
C803   C     0.40125   0.83336   0.48785   0.00000  Uiso   1.00
C804   C     0.59875   0.83331   0.51215   0.00000  Uiso   1.00
C805   C     0.34584   0.83340   0.48126   0.00000  Uiso   1.00
C806   C     0.65416   0.83327   0.51874   0.00000  Uiso   1.00
C807   C     0.52997   0.68914   0.47246   0.00000  Uiso   1.00
C808   C     0.47003   0.97753   0.52754   0.00000  Uiso   1.00
C809   C     0.53445   0.97971   0.47383   0.00000  Uiso   1.00
C810   C     0.46555   0.68695   0.52616   0.00000  Uiso   1.00
C811   C     0.50334   0.95722   0.50121   0.00000  Uiso   1.00
C812   C     0.49666   0.70944   0.49879   0.00000  Uiso   1.00
C813   C     0.46915   0.80619   0.35301   0.00000  Uiso   1.00
C814   C     0.53086   0.86047   0.64699   0.00000  Uiso   1.00
C815   C     0.46940   0.80640   0.63702   0.00000  Uiso   1.00
C816   C     0.53060   0.86027   0.36298   0.00000  Uiso   1.00
Cu817  Cu    0.50000   0.83334   0.54689   0.00000  Uiso   1.00
Cu818  Cu    0.50000   0.83333   0.45311   0.00000  Uiso   1.00
H819   H     0.65889   0.83355   0.44540   0.00000  Uiso   1.00
H820   H     0.34111   0.83312   0.55460   0.00000  Uiso   1.00
H821   H     0.55438   0.70703   0.45249   0.00000  Uiso   1.00
H822   H     0.44562   0.95964   0.54751   0.00000  Uiso   1.00
H823   H     0.44493   0.78494   0.61440   0.00000  Uiso   1.00
H824   H     0.55508   0.88173   0.38560   0.00000  Uiso   1.00
N825   N     0.50001   0.83334   0.61736   0.00000  Uiso   1.00
N826   N     0.49999   0.83332   0.38264   0.00000  Uiso   1.00
O827   O     0.50000   0.77322   0.53958   0.00000  Uiso   1.00
O828   O     0.50000   0.89345   0.46042   0.00000  Uiso   1.00
O829   O     0.50000   0.77321   0.46039   0.00000  Uiso   1.00
O830   O     0.50000   0.89346   0.53961   0.00000  Uiso   1.00
O831   O     0.42495   0.83334   0.53046   0.00000  Uiso   1.00
O832   O     0.57505   0.83333   0.46954   0.00000  Uiso   1.00
O833   O     0.42494   0.83333   0.45127   0.00000  Uiso   1.00
O834   O     0.57506   0.83334   0.54873   0.00000  Uiso   1.00
C835   C     0.57373   0.96020   0.44841   0.00000  Uiso   1.00
O836   O     0.59722   0.92990   0.46453   0.00000  Uiso   1.00
O837   O     0.58513   0.97748   0.40663   0.00000  Uiso   1.00
H838   H     0.61255   0.96159   0.39262   0.00000  Uiso   1.00
C839   C     0.42627   0.70647   0.55157   0.00000  Uiso   1.00
O840   O     0.40277   0.73677   0.53545   0.00000  Uiso   1.00
O841   O     0.41486   0.68920   0.59336   0.00000  Uiso   1.00
H842   H     0.38744   0.70508   0.60737   0.00000  Uiso   1.00
C843   C     0.43532   0.77554   0.37094   0.00000  Uiso   1.00
O844   O     0.39134   0.78477   0.37614   0.00000  Uiso   1.00
O845   O     0.45218   0.73496   0.37792   0.00000  Uiso   1.00
H846   H     0.42523   0.71638   0.38933   0.00000  Uiso   1.00
C847   C     0.56472   0.89110   0.62907   0.00000  Uiso   1.00
O848   O     0.60871   0.88185   0.62391   0.00000  Uiso   1.00
O849   O     0.54788   0.93168   0.62204   0.00000  Uiso   1.00
H850   H     0.57485   0.95025   0.61063   0.00000  Uiso   1.00
C851   C     0.83152   0.75415   0.49952   0.00000  Uiso   1.00
C852   C     0.83515   0.91252   0.50048   0.00000  Uiso   1.00
C853   C     0.73459   0.83336   0.48785   0.00000  Uiso   1.00
C854   C     0.93208   0.83331   0.51215   0.00000  Uiso   1.00
C855   C     0.67917   0.83340   0.48126   0.00000  Uiso   1.00
C856   C     0.98750   0.83327   0.51874   0.00000  Uiso   1.00
C857   C     0.86331   0.68914   0.47246   0.00000  Uiso   1.00
C858   C     0.80336   0.97753   0.52754   0.00000  Uiso   1.00
C859   C     0.86778   0.97971   0.47383   0.00000  Uiso   1.00
C860   C     0.79889   0.68695   0.52616   0.00000  Uiso   1.00
C861   C     0.83667   0.95722   0.50121   0.00000  Uiso   1.00
C862   C     0.83000   0.70944   0.49879   0.00000  Uiso   1.00
C863   C     0.80248   0.80619   0.35301   0.00000  Uiso   1.00
C864   C     0.86419   0.86047   0.64699   0.00000  Uiso   1.00
C865   C     0.80274   0.80640   0.63702   0.00000  Uiso   1.00
C866   C     0.86393   0.86027   0.36298   0.00000  Uiso   1.00
Cu867  Cu    0.83333   0.83334   0.54689   0.00000  Uiso   1.00
Cu868  Cu    0.83333   0.83333   0.45311   0.00000  Uiso   1.00
H869   H     0.99223   0.83355   0.44540   0.00000  Uiso   1.00
H870   H     0.67444   0.83312   0.55460   0.00000  Uiso   1.00
H871   H     0.88771   0.70703   0.45249   0.00000  Uiso   1.00
H872   H     0.77895   0.95964   0.54751   0.00000  Uiso   1.00
H873   H     0.77826   0.78494   0.61440   0.00000  Uiso   1.00
H874   H     0.88841   0.88173   0.38560   0.00000  Uiso   1.00
N875   N     0.83335   0.83334   0.61736   0.00000  Uiso   1.00
N876   N     0.83332   0.83332   0.38264   0.00000  Uiso   1.00
O877   O     0.83333   0.77322   0.53958   0.00000  Uiso   1.00
O878   O     0.83334   0.89345   0.46042   0.00000  Uiso   1.00
O879   O     0.83333   0.77321   0.46039   0.00000  Uiso   1.00
O880   O     0.83334   0.89346   0.53961   0.00000  Uiso   1.00
O881   O     0.75828   0.83334   0.53046   0.00000  Uiso   1.00
O882   O     0.90839   0.83333   0.46954   0.00000  Uiso   1.00
O883   O     0.75828   0.83333   0.45127   0.00000  Uiso   1.00
O884   O     0.90839   0.83334   0.54873   0.00000  Uiso   1.00
C885   C     0.90706   0.96020   0.44841   0.00000  Uiso   1.00
O886   O     0.93055   0.92990   0.46453   0.00000  Uiso   1.00
O887   O     0.91846   0.97748   0.40663   0.00000  Uiso   1.00
H888   H     0.94588   0.96159   0.39262   0.00000  Uiso   1.00
C889   C     0.75960   0.70647   0.55157   0.00000  Uiso   1.00
O890   O     0.73610   0.73677   0.53545   0.00000  Uiso   1.00
O891   O     0.74819   0.68920   0.59336   0.00000  Uiso   1.00
H892   H     0.72077   0.70508   0.60737   0.00000  Uiso   1.00
C893   C     0.76865   0.77554   0.37094   0.00000  Uiso   1.00
O894   O     0.72467   0.78477   0.37614   0.00000  Uiso   1.00
O895   O     0.78552   0.73496   0.37792   0.00000  Uiso   1.00
H896   H     0.75856   0.71638   0.38933   0.00000  Uiso   1.00
C897   C     0.89806   0.89110   0.62907   0.00000  Uiso   1.00
O898   O     0.94205   0.88185   0.62391   0.00000  Uiso   1.00
O899   O     0.88122   0.93168   0.62204   0.00000  Uiso   1.00
H900   H     0.90819   0.95025   0.61063   0.00000  Uiso   1.00
C901   C     0.16485   0.08748   0.83285   0.00000  Uiso   1.00
C902   C     0.16848   0.24585   0.83382   0.00000  Uiso   1.00
C903   C     0.06792   0.16669   0.82118   0.00000  Uiso   1.00
C904   C     0.26541   0.16664   0.84549   0.00000  Uiso   1.00
C905   C     0.01250   0.16673   0.81459   0.00000  Uiso   1.00
C906   C     0.32083   0.16660   0.85208   0.00000  Uiso   1.00
C907   C     0.19664   0.02247   0.80579   0.00000  Uiso   1.00
C908   C     0.13670   0.31086   0.86088   0.00000  Uiso   1.00
C909   C     0.20111   0.31305   0.80717   0.00000  Uiso   1.00
C910   C     0.13222   0.02029   0.85950   0.00000  Uiso   1.00
C911   C     0.17000   0.29056   0.83454   0.00000  Uiso   1.00
C912   C     0.16333   0.04278   0.83213   0.00000  Uiso   1.00
C913   C     0.13581   0.13952   0.68634   0.00000  Uiso   1.00
C914   C     0.19753   0.19381   0.98032   0.00000  Uiso   1.00
C915   C     0.13607   0.13973   0.97035   0.00000  Uiso   1.00
C916   C     0.19726   0.19360   0.69632   0.00000  Uiso   1.00
Cu917  Cu    0.16667   0.16667   0.88022   0.00000  Uiso   1.00
Cu918  Cu    0.16667   0.16666   0.78645   0.00000  Uiso   1.00
H919   H     0.32556   0.16689   0.77874   0.00000  Uiso   1.00
H920   H     0.00777   0.16645   0.88793   0.00000  Uiso   1.00
H921   H     0.22105   0.04036   0.78582   0.00000  Uiso   1.00
H922   H     0.11229   0.29297   0.88084   0.00000  Uiso   1.00
H923   H     0.11160   0.11827   0.94774   0.00000  Uiso   1.00
H924   H     0.22174   0.21506   0.71893   0.00000  Uiso   1.00
N925   N     0.16668   0.16668   0.95069   0.00000  Uiso   1.00
N926   N     0.16665   0.16666   0.71597   0.00000  Uiso   1.00
O927   O     0.16666   0.10655   0.87291   0.00000  Uiso   1.00
O928   O     0.16667   0.22678   0.79375   0.00000  Uiso   1.00
O929   O     0.16666   0.10654   0.79372   0.00000  Uiso   1.00
O930   O     0.16667   0.22679   0.87294   0.00000  Uiso   1.00
O931   O     0.09161   0.16667   0.86379   0.00000  Uiso   1.00
O932   O     0.24172   0.16666   0.80288   0.00000  Uiso   1.00
O933   O     0.09161   0.16666   0.78460   0.00000  Uiso   1.00
O934   O     0.24172   0.16667   0.88207   0.00000  Uiso   1.00
C935   C     0.24039   0.29353   0.78175   0.00000  Uiso   1.00
O936   O     0.26389   0.26323   0.79786   0.00000  Uiso   1.00
O937   O     0.25180   0.31081   0.73996   0.00000  Uiso   1.00
H938   H     0.27921   0.29492   0.72595   0.00000  Uiso   1.00
C939   C     0.09293   0.03980   0.88491   0.00000  Uiso   1.00
O940   O     0.06943   0.07010   0.86878   0.00000  Uiso   1.00
O941   O     0.08153   0.02253   0.92669   0.00000  Uiso   1.00
H942   H     0.05410   0.03842   0.94070   0.00000  Uiso   1.00
C943   C     0.10199   0.10888   0.70427   0.00000  Uiso   1.00
O944   O     0.05800   0.11810   0.70947   0.00000  Uiso   1.00
O945   O     0.11885   0.06829   0.71125   0.00000  Uiso   1.00
H946   H     0.09190   0.04971   0.72266   0.00000  Uiso   1.00
C947   C     0.23139   0.22443   0.96240   0.00000  Uiso   1.00
O948   O     0.27538   0.21519   0.95724   0.00000  Uiso   1.00
O949   O     0.21455   0.26502   0.95537   0.00000  Uiso   1.00
H950   H     0.24152   0.28358   0.94397   0.00000  Uiso   1.00
C951   C     0.49819   0.08748   0.83285   0.00000  Uiso   1.00
C952   C     0.50182   0.24585   0.83382   0.00000  Uiso   1.00
C953   C     0.40125   0.16669   0.82118   0.00000  Uiso   1.00
C954   C     0.59875   0.16664   0.84549   0.00000  Uiso   1.00
C955   C     0.34584   0.16673   0.81459   0.00000  Uiso   1.00
C956   C     0.65416   0.16660   0.85208   0.00000  Uiso   1.00
C957   C     0.52997   0.02247   0.80579   0.00000  Uiso   1.00
C958   C     0.47003   0.31086   0.86088   0.00000  Uiso   1.00
C959   C     0.53445   0.31305   0.80717   0.00000  Uiso   1.00
C960   C     0.46555   0.02029   0.85950   0.00000  Uiso   1.00
C961   C     0.50334   0.29056   0.83454   0.00000  Uiso   1.00
C962   C     0.49666   0.04278   0.83213   0.00000  Uiso   1.00
C963   C     0.46915   0.13952   0.68634   0.00000  Uiso   1.00
C964   C     0.53086   0.19381   0.98032   0.00000  Uiso   1.00
C965   C     0.46940   0.13973   0.97035   0.00000  Uiso   1.00
C966   C     0.53060   0.19360   0.69632   0.00000  Uiso   1.00
Cu967  Cu    0.50000   0.16667   0.88022   0.00000  Uiso   1.00
Cu968  Cu    0.50000   0.16666   0.78645   0.00000  Uiso   1.00
H969   H     0.65889   0.16689   0.77874   0.00000  Uiso   1.00
H970   H     0.34111   0.16645   0.88793   0.00000  Uiso   1.00
H971   H     0.55438   0.04036   0.78582   0.00000  Uiso   1.00
H972   H     0.44562   0.29297   0.88084   0.00000  Uiso   1.00
H973   H     0.44493   0.11827   0.94774   0.00000  Uiso   1.00
H974   H     0.55508   0.21506   0.71893   0.00000  Uiso   1.00
N975   N     0.50001   0.16668   0.95069   0.00000  Uiso   1.00
N976   N     0.49999   0.16666   0.71597   0.00000  Uiso   1.00
O977   O     0.50000   0.10655   0.87291   0.00000  Uiso   1.00
O978   O     0.50000   0.22678   0.79375   0.00000  Uiso   1.00
O979   O     0.50000   0.10654   0.79372   0.00000  Uiso   1.00
O980   O     0.50000   0.22679   0.87294   0.00000  Uiso   1.00
O981   O     0.42495   0.16667   0.86379   0.00000  Uiso   1.00
O982   O     0.57505   0.16666   0.80288   0.00000  Uiso   1.00
O983   O     0.42494   0.16666   0.78460   0.00000  Uiso   1.00
O984   O     0.57506   0.16667   0.88207   0.00000  Uiso   1.00
C985   C     0.57373   0.29353   0.78175   0.00000  Uiso   1.00
O986   O     0.59722   0.26323   0.79786   0.00000  Uiso   1.00
O987   O     0.58513   0.31081   0.73996   0.00000  Uiso   1.00
H988   H     0.61255   0.29492   0.72595   0.00000  Uiso   1.00
C989   C     0.42627   0.03980   0.88491   0.00000  Uiso   1.00
O990   O     0.40277   0.07010   0.86878   0.00000  Uiso   1.00
O991   O     0.41486   0.02253   0.92669   0.00000  Uiso   1.00
H992   H     0.38744   0.03842   0.94070   0.00000  Uiso   1.00
C993   C     0.43532   0.10888   0.70427   0.00000  Uiso   1.00
O994   O     0.39134   0.11810   0.70947   0.00000  Uiso   1.00
O995   O     0.45218   0.06829   0.71125   0.00000  Uiso   1.00
H996   H     0.42523   0.04971   0.72266   0.00000  Uiso   1.00
C997   C     0.56472   0.22443   0.96240   0.00000  Uiso   1.00
O998   O     0.60871   0.21519   0.95724   0.00000  Uiso   1.00
O999   O     0.54788   0.26502   0.95537   0.00000  Uiso   1.00
H1000  H     0.57485   0.28358   0.94397   0.00000  Uiso   1.00
C1001  C     0.83152   0.08748   0.83285   0.00000  Uiso   1.00
C1002  C     0.83515   0.24585   0.83382   0.00000  Uiso   1.00
C1003  C     0.73459   0.16669   0.82118   0.00000  Uiso   1.00
C1004  C     0.93208   0.16664   0.84549   0.00000  Uiso   1.00
C1005  C     0.67917   0.16673   0.81459   0.00000  Uiso   1.00
C1006  C     0.98750   0.16660   0.85208   0.00000  Uiso   1.00
C1007  C     0.86331   0.02247   0.80579   0.00000  Uiso   1.00
C1008  C     0.80336   0.31086   0.86088   0.00000  Uiso   1.00
C1009  C     0.86778   0.31305   0.80717   0.00000  Uiso   1.00
C1010  C     0.79889   0.02029   0.85950   0.00000  Uiso   1.00
C1011  C     0.83667   0.29056   0.83454   0.00000  Uiso   1.00
C1012  C     0.83000   0.04278   0.83213   0.00000  Uiso   1.00
C1013  C     0.80248   0.13952   0.68634   0.00000  Uiso   1.00
C1014  C     0.86419   0.19381   0.98032   0.00000  Uiso   1.00
C1015  C     0.80274   0.13973   0.97035   0.00000  Uiso   1.00
C1016  C     0.86393   0.19360   0.69632   0.00000  Uiso   1.00
Cu1017 Cu    0.83333   0.16667   0.88022   0.00000  Uiso   1.00
Cu1018 Cu    0.83333   0.16666   0.78645   0.00000  Uiso   1.00
H1019  H     0.99223   0.16689   0.77874   0.00000  Uiso   1.00
H1020  H     0.67444   0.16645   0.88793   0.00000  Uiso   1.00
H1021  H     0.88771   0.04036   0.78582   0.00000  Uiso   1.00
H1022  H     0.77895   0.29297   0.88084   0.00000  Uiso   1.00
H1023  H     0.77826   0.11827   0.94774   0.00000  Uiso   1.00
H1024  H     0.88841   0.21506   0.71893   0.00000  Uiso   1.00
N1025  N     0.83335   0.16668   0.95069   0.00000  Uiso   1.00
N1026  N     0.83332   0.16666   0.71597   0.00000  Uiso   1.00
O1027  O     0.83333   0.10655   0.87291   0.00000  Uiso   1.00
O1028  O     0.83334   0.22678   0.79375   0.00000  Uiso   1.00
O1029  O     0.83333   0.10654   0.79372   0.00000  Uiso   1.00
O1030  O     0.83334   0.22679   0.87294   0.00000  Uiso   1.00
O1031  O     0.75828   0.16667   0.86379   0.00000  Uiso   1.00
O1032  O     0.90839   0.16666   0.80288   0.00000  Uiso   1.00
O1033  O     0.75828   0.16666   0.78460   0.00000  Uiso   1.00
O1034  O     0.90839   0.16667   0.88207   0.00000  Uiso   1.00
C1035  C     0.90706   0.29353   0.78175   0.00000  Uiso   1.00
O1036  O     0.93055   0.26323   0.79786   0.00000  Uiso   1.00
O1037  O     0.91846   0.31081   0.73996   0.00000  Uiso   1.00
H1038  H     0.94588   0.29492   0.72595   0.00000  Uiso   1.00
C1039  C     0.75960   0.03980   0.88491   0.00000  Uiso   1.00
O1040  O     0.73610   0.07010   0.86878   0.00000  Uiso   1.00
O1041  O     0.74819   0.02253   0.92669   0.00000  Uiso   1.00
H1042  H     0.72077   0.03842   0.94070   0.00000  Uiso   1.00
C1043  C     0.76865   0.10888   0.70427   0.00000  Uiso   1.00
O1044  O     0.72467   0.11810   0.70947   0.00000  Uiso   1.00
O1045  O     0.78552   0.06829   0.71125   0.00000  Uiso   1.00
H1046  H     0.75856   0.04971   0.72266   0.00000  Uiso   1.00
C1047  C     0.89806   0.22443   0.96240   0.00000  Uiso   1.00
O1048  O     0.94205   0.21519   0.95724   0.00000  Uiso   1.00
O1049  O     0.88122   0.26502   0.95537   0.00000  Uiso   1.00
H1050  H     0.90819   0.28358   0.94397   0.00000  Uiso   1.00
C1051  C     0.16485   0.42082   0.83285   0.00000  Uiso   1.00
C1052  C     0.16848   0.57918   0.83382   0.00000  Uiso   1.00
C1053  C     0.06792   0.50002   0.82118   0.00000  Uiso   1.00
C1054  C     0.26541   0.49998   0.84549   0.00000  Uiso   1.00
C1055  C     0.01250   0.50006   0.81459   0.00000  Uiso   1.00
C1056  C     0.32083   0.49994   0.85208   0.00000  Uiso   1.00
C1057  C     0.19664   0.35581   0.80579   0.00000  Uiso   1.00
C1058  C     0.13670   0.64420   0.86088   0.00000  Uiso   1.00
C1059  C     0.20111   0.64638   0.80717   0.00000  Uiso   1.00
C1060  C     0.13222   0.35362   0.85950   0.00000  Uiso   1.00
C1061  C     0.17000   0.62389   0.83454   0.00000  Uiso   1.00
C1062  C     0.16333   0.37611   0.83213   0.00000  Uiso   1.00
C1063  C     0.13581   0.47286   0.68634   0.00000  Uiso   1.00
C1064  C     0.19753   0.52714   0.98032   0.00000  Uiso   1.00
C1065  C     0.13607   0.47307   0.97035   0.00000  Uiso   1.00
C1066  C     0.19726   0.52693   0.69632   0.00000  Uiso   1.00
Cu1067 Cu    0.16667   0.50001   0.88022   0.00000  Uiso   1.00
Cu1068 Cu    0.16667   0.49999   0.78645   0.00000  Uiso   1.00
H1069  H     0.32556   0.50022   0.77874   0.00000  Uiso   1.00
H1070  H     0.00777   0.49978   0.88793   0.00000  Uiso   1.00
H1071  H     0.22105   0.37370   0.78582   0.00000  Uiso   1.00
H1072  H     0.11229   0.62630   0.88084   0.00000  Uiso   1.00
H1073  H     0.11160   0.45160   0.94774   0.00000  Uiso   1.00
H1074  H     0.22174   0.54839   0.71893   0.00000  Uiso   1.00
N1075  N     0.16668   0.50001   0.95069   0.00000  Uiso   1.00
N1076  N     0.16665   0.49999   0.71597   0.00000  Uiso   1.00
O1077  O     0.16666   0.43989   0.87291   0.00000  Uiso   1.00
O1078  O     0.16667   0.56011   0.79375   0.00000  Uiso   1.00
O1079  O     0.16666   0.43988   0.79372   0.00000  Uiso   1.00
O1080  O     0.16667   0.56012   0.87294   0.00000  Uiso   1.00
O1081  O     0.09161   0.50000   0.86379   0.00000  Uiso   1.00
O1082  O     0.24172   0.50000   0.80288   0.00000  Uiso   1.00
O1083  O     0.09161   0.49999   0.78460   0.00000  Uiso   1.00
O1084  O     0.24172   0.50001   0.88207   0.00000  Uiso   1.00
C1085  C     0.24039   0.62687   0.78175   0.00000  Uiso   1.00
O1086  O     0.26389   0.59656   0.79786   0.00000  Uiso   1.00
O1087  O     0.25180   0.64414   0.73996   0.00000  Uiso   1.00
H1088  H     0.27921   0.62825   0.72595   0.00000  Uiso   1.00
C1089  C     0.09293   0.37313   0.88491   0.00000  Uiso   1.00
O1090  O     0.06943   0.40343   0.86878   0.00000  Uiso   1.00
O1091  O     0.08153   0.35586   0.92669   0.00000  Uiso   1.00
H1092  H     0.05410   0.37175   0.94070   0.00000  Uiso   1.00
C1093  C     0.10199   0.44221   0.70427   0.00000  Uiso   1.00
O1094  O     0.05800   0.45144   0.70947   0.00000  Uiso   1.00
O1095  O     0.11885   0.40163   0.71125   0.00000  Uiso   1.00
H1096  H     0.09190   0.38304   0.72266   0.00000  Uiso   1.00
C1097  C     0.23139   0.55776   0.96240   0.00000  Uiso   1.00
O1098  O     0.27538   0.54852   0.95724   0.00000  Uiso   1.00
O1099  O     0.21455   0.59835   0.95537   0.00000  Uiso   1.00
H1100  H     0.24152   0.61691   0.94397   0.00000  Uiso   1.00
C1101  C     0.49819   0.42082   0.83285   0.00000  Uiso   1.00
C1102  C     0.50182   0.57918   0.83382   0.00000  Uiso   1.00
C1103  C     0.40125   0.50002   0.82118   0.00000  Uiso   1.00
C1104  C     0.59875   0.49998   0.84549   0.00000  Uiso   1.00
C1105  C     0.34584   0.50006   0.81459   0.00000  Uiso   1.00
C1106  C     0.65416   0.49994   0.85208   0.00000  Uiso   1.00
C1107  C     0.52997   0.35581   0.80579   0.00000  Uiso   1.00
C1108  C     0.47003   0.64420   0.86088   0.00000  Uiso   1.00
C1109  C     0.53445   0.64638   0.80717   0.00000  Uiso   1.00
C1110  C     0.46555   0.35362   0.85950   0.00000  Uiso   1.00
C1111  C     0.50334   0.62389   0.83454   0.00000  Uiso   1.00
C1112  C     0.49666   0.37611   0.83213   0.00000  Uiso   1.00
C1113  C     0.46915   0.47286   0.68634   0.00000  Uiso   1.00
C1114  C     0.53086   0.52714   0.98032   0.00000  Uiso   1.00
C1115  C     0.46940   0.47307   0.97035   0.00000  Uiso   1.00
C1116  C     0.53060   0.52693   0.69632   0.00000  Uiso   1.00
Cu1117 Cu    0.50000   0.50001   0.88022   0.00000  Uiso   1.00
Cu1118 Cu    0.50000   0.49999   0.78645   0.00000  Uiso   1.00
H1119  H     0.65889   0.50022   0.77874   0.00000  Uiso   1.00
H1120  H     0.34111   0.49978   0.88793   0.00000  Uiso   1.00
H1121  H     0.55438   0.37370   0.78582   0.00000  Uiso   1.00
H1122  H     0.44562   0.62630   0.88084   0.00000  Uiso   1.00
H1123  H     0.44493   0.45160   0.94774   0.00000  Uiso   1.00
H1124  H     0.55508   0.54839   0.71893   0.00000  Uiso   1.00
N1125  N     0.50001   0.50001   0.95069   0.00000  Uiso   1.00
N1126  N     0.49999   0.49999   0.71597   0.00000  Uiso   1.00
O1127  O     0.50000   0.43989   0.87291   0.00000  Uiso   1.00
O1128  O     0.50000   0.56011   0.79375   0.00000  Uiso   1.00
O1129  O     0.50000   0.43988   0.79372   0.00000  Uiso   1.00
O1130  O     0.50000   0.56012   0.87294   0.00000  Uiso   1.00
O1131  O     0.42495   0.50000   0.86379   0.00000  Uiso   1.00
O1132  O     0.57505   0.50000   0.80288   0.00000  Uiso   1.00
O1133  O     0.42494   0.49999   0.78460   0.00000  Uiso   1.00
O1134  O     0.57506   0.50001   0.88207   0.00000  Uiso   1.00
C1135  C     0.57373   0.62687   0.78175   0.00000  Uiso   1.00
O1136  O     0.59722   0.59656   0.79786   0.00000  Uiso   1.00
O1137  O     0.58513   0.64414   0.73996   0.00000  Uiso   1.00
H1138  H     0.61255   0.62825   0.72595   0.00000  Uiso   1.00
C1139  C     0.42627   0.37313   0.88491   0.00000  Uiso   1.00
O1140  O     0.40277   0.40343   0.86878   0.00000  Uiso   1.00
O1141  O     0.41486   0.35586   0.92669   0.00000  Uiso   1.00
H1142  H     0.38744   0.37175   0.94070   0.00000  Uiso   1.00
C1143  C     0.43532   0.44221   0.70427   0.00000  Uiso   1.00
O1144  O     0.39134   0.45144   0.70947   0.00000  Uiso   1.00
O1145  O     0.45218   0.40163   0.71125   0.00000  Uiso   1.00
H1146  H     0.42523   0.38304   0.72266   0.00000  Uiso   1.00
C1147  C     0.56472   0.55776   0.96240   0.00000  Uiso   1.00
O1148  O     0.60871   0.54852   0.95724   0.00000  Uiso   1.00
O1149  O     0.54788   0.59835   0.95537   0.00000  Uiso   1.00
H1150  H     0.57485   0.61691   0.94397   0.00000  Uiso   1.00
C1151  C     0.83152   0.42082   0.83285   0.00000  Uiso   1.00
C1152  C     0.83515   0.57918   0.83382   0.00000  Uiso   1.00
C1153  C     0.73459   0.50002   0.82118   0.00000  Uiso   1.00
C1154  C     0.93208   0.49998   0.84549   0.00000  Uiso   1.00
C1155  C     0.67917   0.50006   0.81459   0.00000  Uiso   1.00
C1156  C     0.98750   0.49994   0.85208   0.00000  Uiso   1.00
C1157  C     0.86331   0.35581   0.80579   0.00000  Uiso   1.00
C1158  C     0.80336   0.64420   0.86088   0.00000  Uiso   1.00
C1159  C     0.86778   0.64638   0.80717   0.00000  Uiso   1.00
C1160  C     0.79889   0.35362   0.85950   0.00000  Uiso   1.00
C1161  C     0.83667   0.62389   0.83454   0.00000  Uiso   1.00
C1162  C     0.83000   0.37611   0.83213   0.00000  Uiso   1.00
C1163  C     0.80248   0.47286   0.68634   0.00000  Uiso   1.00
C1164  C     0.86419   0.52714   0.98032   0.00000  Uiso   1.00
C1165  C     0.80274   0.47307   0.97035   0.00000  Uiso   1.00
C1166  C     0.86393   0.52693   0.69632   0.00000  Uiso   1.00
Cu1167 Cu    0.83333   0.50001   0.88022   0.00000  Uiso   1.00
Cu1168 Cu    0.83333   0.49999   0.78645   0.00000  Uiso   1.00
H1169  H     0.99223   0.50022   0.77874   0.00000  Uiso   1.00
H1170  H     0.67444   0.49978   0.88793   0.00000  Uiso   1.00
H1171  H     0.88771   0.37370   0.78582   0.00000  Uiso   1.00
H1172  H     0.77895   0.62630   0.88084   0.00000  Uiso   1.00
H1173  H     0.77826   0.45160   0.94774   0.00000  Uiso   1.00
H1174  H     0.88841   0.54839   0.71893   0.00000  Uiso   1.00
N1175  N     0.83335   0.50001   0.95069   0.00000  Uiso   1.00
N1176  N     0.83332   0.49999   0.71597   0.00000  Uiso   1.00
O1177  O     0.83333   0.43989   0.87291   0.00000  Uiso   1.00
O1178  O     0.83334   0.56011   0.79375   0.00000  Uiso   1.00
O1179  O     0.83333   0.43988   0.79372   0.00000  Uiso   1.00
O1180  O     0.83334   0.56012   0.87294   0.00000  Uiso   1.00
O1181  O     0.75828   0.50000   0.86379   0.00000  Uiso   1.00
O1182  O     0.90839   0.50000   0.80288   0.00000  Uiso   1.00
O1183  O     0.75828   0.49999   0.78460   0.00000  Uiso   1.00
O1184  O     0.90839   0.50001   0.88207   0.00000  Uiso   1.00
C1185  C     0.90706   0.62687   0.78175   0.00000  Uiso   1.00
O1186  O     0.93055   0.59656   0.79786   0.00000  Uiso   1.00
O1187  O     0.91846   0.64414   0.73996   0.00000  Uiso   1.00
H1188  H     0.94588   0.62825   0.72595   0.00000  Uiso   1.00
C1189  C     0.75960   0.37313   0.88491   0.00000  Uiso   1.00
O1190  O     0.73610   0.40343   0.86878   0.00000  Uiso   1.00
O1191  O     0.74819   0.35586   0.92669   0.00000  Uiso   1.00
H1192  H     0.72077   0.37175   0.94070   0.00000  Uiso   1.00
C1193  C     0.76865   0.44221   0.70427   0.00000  Uiso   1.00
O1194  O     0.72467   0.45144   0.70947   0.00000  Uiso   1.00
O1195  O     0.78552   0.40163   0.71125   0.00000  Uiso   1.00
H1196  H     0.75856   0.38304   0.72266   0.00000  Uiso   1.00
C1197  C     0.89806   0.55776   0.96240   0.00000  Uiso   1.00
O1198  O     0.94205   0.54852   0.95724   0.00000  Uiso   1.00
O1199  O     0.88122   0.59835   0.95537   0.00000  Uiso   1.00
H1200  H     0.90819   0.61691   0.94397   0.00000  Uiso   1.00
C1201  C     0.16485   0.75415   0.83285   0.00000  Uiso   1.00
C1202  C     0.16848   0.91252   0.83382   0.00000  Uiso   1.00
C1203  C     0.06792   0.83336   0.82118   0.00000  Uiso   1.00
C1204  C     0.26541   0.83331   0.84549   0.00000  Uiso   1.00
C1205  C     0.01250   0.83340   0.81459   0.00000  Uiso   1.00
C1206  C     0.32083   0.83327   0.85208   0.00000  Uiso   1.00
C1207  C     0.19664   0.68914   0.80579   0.00000  Uiso   1.00
C1208  C     0.13670   0.97753   0.86088   0.00000  Uiso   1.00
C1209  C     0.20111   0.97971   0.80717   0.00000  Uiso   1.00
C1210  C     0.13222   0.68695   0.85950   0.00000  Uiso   1.00
C1211  C     0.17000   0.95722   0.83454   0.00000  Uiso   1.00
C1212  C     0.16333   0.70944   0.83213   0.00000  Uiso   1.00
C1213  C     0.13581   0.80619   0.68634   0.00000  Uiso   1.00
C1214  C     0.19753   0.86047   0.98032   0.00000  Uiso   1.00
C1215  C     0.13607   0.80640   0.97035   0.00000  Uiso   1.00
C1216  C     0.19726   0.86027   0.69632   0.00000  Uiso   1.00
Cu1217 Cu    0.16667   0.83334   0.88022   0.00000  Uiso   1.00
Cu1218 Cu    0.16667   0.83333   0.78645   0.00000  Uiso   1.00
H1219  H     0.32556   0.83355   0.77874   0.00000  Uiso   1.00
H1220  H     0.00777   0.83312   0.88793   0.00000  Uiso   1.00
H1221  H     0.22105   0.70703   0.78582   0.00000  Uiso   1.00
H1222  H     0.11229   0.95964   0.88084   0.00000  Uiso   1.00
H1223  H     0.11160   0.78494   0.94774   0.00000  Uiso   1.00
H1224  H     0.22174   0.88173   0.71893   0.00000  Uiso   1.00
N1225  N     0.16668   0.83334   0.95069   0.00000  Uiso   1.00
N1226  N     0.16665   0.83332   0.71597   0.00000  Uiso   1.00
O1227  O     0.16666   0.77322   0.87291   0.00000  Uiso   1.00
O1228  O     0.16667   0.89345   0.79375   0.00000  Uiso   1.00
O1229  O     0.16666   0.77321   0.79372   0.00000  Uiso   1.00
O1230  O     0.16667   0.89346   0.87294   0.00000  Uiso   1.00
O1231  O     0.09161   0.83334   0.86379   0.00000  Uiso   1.00
O1232  O     0.24172   0.83333   0.80288   0.00000  Uiso   1.00
O1233  O     0.09161   0.83333   0.78460   0.00000  Uiso   1.00
O1234  O     0.24172   0.83334   0.88207   0.00000  Uiso   1.00
C1235  C     0.24039   0.96020   0.78175   0.00000  Uiso   1.00
O1236  O     0.26389   0.92990   0.79786   0.00000  Uiso   1.00
O1237  O     0.25180   0.97748   0.73996   0.00000  Uiso   1.00
H1238  H     0.27921   0.96159   0.72595   0.00000  Uiso   1.00
C1239  C     0.09293   0.70647   0.88491   0.00000  Uiso   1.00
O1240  O     0.06943   0.73677   0.86878   0.00000  Uiso   1.00
O1241  O     0.08153   0.68920   0.92669   0.00000  Uiso   1.00
H1242  H     0.05410   0.70508   0.94070   0.00000  Uiso   1.00
C1243  C     0.10199   0.77554   0.70427   0.00000  Uiso   1.00
O1244  O     0.05800   0.78477   0.70947   0.00000  Uiso   1.00
O1245  O     0.11885   0.73496   0.71125   0.00000  Uiso   1.00
H1246  H     0.09190   0.71638   0.72266   0.00000  Uiso   1.00
C1247  C     0.23139   0.89110   0.96240   0.00000  Uiso   1.00
O1248  O     0.27538   0.88185   0.95724   0.00000  Uiso   1.00
O1249  O     0.21455   0.93168   0.95537   0.00000  Uiso   1.00
H1250  H     0.24152   0.95025   0.94397   0.00000  Uiso   1.00
C1251  C     0.49819   0.75415   0.83285   0.00000  Uiso   1.00
C1252  C     0.50182   0.91252   0.83382   0.00000  Uiso   1.00
C1253  C     0.40125   0.83336   0.82118   0.00000  Uiso   1.00
C1254  C     0.59875   0.83331   0.84549   0.00000  Uiso   1.00
C1255  C     0.34584   0.83340   0.81459   0.00000  Uiso   1.00
C1256  C     0.65416   0.83327   0.85208   0.00000  Uiso   1.00
C1257  C     0.52997   0.68914   0.80579   0.00000  Uiso   1.00
C1258  C     0.47003   0.97753   0.86088   0.00000  Uiso   1.00
C1259  C     0.53445   0.97971   0.80717   0.00000  Uiso   1.00
C1260  C     0.46555   0.68695   0.85950   0.00000  Uiso   1.00
C1261  C     0.50334   0.95722   0.83454   0.00000  Uiso   1.00
C1262  C     0.49666   0.70944   0.83213   0.00000  Uiso   1.00
C1263  C     0.46915   0.80619   0.68634   0.00000  Uiso   1.00
C1264  C     0.53086   0.86047   0.98032   0.00000  Uiso   1.00
C1265  C     0.46940   0.80640   0.97035   0.00000  Uiso   1.00
C1266  C     0.53060   0.86027   0.69632   0.00000  Uiso   1.00
Cu1267 Cu    0.50000   0.83334   0.88022   0.00000  Uiso   1.00
Cu1268 Cu    0.50000   0.83333   0.78645   0.00000  Uiso   1.00
H1269  H     0.65889   0.83355   0.77874   0.00000  Uiso   1.00
H1270  H     0.34111   0.83312   0.88793   0.00000  Uiso   1.00
H1271  H     0.55438   0.70703   0.78582   0.00000  Uiso   1.00
H1272  H     0.44562   0.95964   0.88084   0.00000  Uiso   1.00
H1273  H     0.44493   0.78494   0.94774   0.00000  Uiso   1.00
H1274  H     0.55508   0.88173   0.71893   0.00000  Uiso   1.00
N1275  N     0.50001   0.83334   0.95069   0.00000  Uiso   1.00
N1276  N     0.49999   0.83332   0.71597   0.00000  Uiso   1.00
O1277  O     0.50000   0.77322   0.87291   0.00000  Uiso   1.00
O1278  O     0.50000   0.89345   0.79375   0.00000  Uiso   1.00
O1279  O     0.50000   0.77321   0.79372   0.00000  Uiso   1.00
O1280  O     0.50000   0.89346   0.87294   0.00000  Uiso   1.00
O1281  O     0.42495   0.83334   0.86379   0.00000  Uiso   1.00
O1282  O     0.57505   0.83333   0.80288   0.00000  Uiso   1.00
O1283  O     0.42494   0.83333   0.78460   0.00000  Uiso   1.00
O1284  O     0.57506   0.83334   0.88207   0.00000  Uiso   1.00
C1285  C     0.57373   0.96020   0.78175   0.00000  Uiso   1.00
O1286  O     0.59722   0.92990   0.79786   0.00000  Uiso   1.00
O1287  O     0.58513   0.97748   0.73996   0.00000  Uiso   1.00
H1288  H     0.61255   0.96159   0.72595   0.00000  Uiso   1.00
C1289  C     0.42627   0.70647   0.88491   0.00000  Uiso   1.00
O1290  O     0.40277   0.73677   0.86878   0.00000  Uiso   1.00
O1291  O     0.41486   0.68920   0.92669   0.00000  Uiso   1.00
H1292  H     0.38744   0.70508   0.94070   0.00000  Uiso   1.00
C1293  C     0.43532   0.77554   0.70427   0.00000  Uiso   1.00
O1294  O     0.39134   0.78477   0.70947   0.00000  Uiso   1.00
O1295  O     0.45218   0.73496   0.71125   0.00000  Uiso   1.00
H1296  H     0.42523   0.71638   0.72266   0.00000  Uiso   1.00
C1297  C     0.56472   0.89110   0.96240   0.00000  Uiso   1.00
O1298  O     0.60871   0.88185   0.95724   0.00000  Uiso   1.00
O1299  O     0.54788   0.93168   0.95537   0.00000  Uiso   1.00
H1300  H     0.57485   0.95025   0.94397   0.00000  Uiso   1.00
C1301  C     0.83152   0.75415   0.83285   0.00000  Uiso   1.00
C1302  C     0.83515   0.91252   0.83382   0.00000  Uiso   1.00
C1303  C     0.73459   0.83336   0.82118   0.00000  Uiso   1.00
C1304  C     0.93208   0.83331   0.84549   0.00000  Uiso   1.00
C1305  C     0.67917   0.83340   0.81459   0.00000  Uiso   1.00
C1306  C     0.98750   0.83327   0.85208   0.00000  Uiso   1.00
C1307  C     0.86331   0.68914   0.80579   0.00000  Uiso   1.00
C1308  C     0.80336   0.97753   0.86088   0.00000  Uiso   1.00
C1309  C     0.86778   0.97971   0.80717   0.00000  Uiso   1.00
C1310  C     0.79889   0.68695   0.85950   0.00000  Uiso   1.00
C1311  C     0.83667   0.95722   0.83454   0.00000  Uiso   1.00
C1312  C     0.83000   0.70944   0.83213   0.00000  Uiso   1.00
C1313  C     0.80248   0.80619   0.68634   0.00000  Uiso   1.00
C1314  C     0.86419   0.86047   0.98032   0.00000  Uiso   1.00
C1315  C     0.80274   0.80640   0.97035   0.00000  Uiso   1.00
C1316  C     0.86393   0.86027   0.69632   0.00000  Uiso   1.00
Cu1317 Cu    0.83333   0.83334   0.88022   0.00000  Uiso   1.00
Cu1318 Cu    0.83333   0.83333   0.78645   0.00000  Uiso   1.00
H1319  H     0.99223   0.83355   0.77874   0.00000  Uiso   1.00
H1320  H     0.67444   0.83312   0.88793   0.00000  Uiso   1.00
H1321  H     0.88771   0.70703   0.78582   0.00000  Uiso   1.00
H1322  H     0.77895   0.95964   0.88084   0.00000  Uiso   1.00
H1323  H     0.77826   0.78494   0.94774   0.00000  Uiso   1.00
H1324  H     0.88841   0.88173   0.71893   0.00000  Uiso   1.00
N1325  N     0.83335   0.83334   0.95069   0.00000  Uiso   1.00
N1326  N     0.83332   0.83332   0.71597   0.00000  Uiso   1.00
O1327  O     0.83333   0.77322   0.87291   0.00000  Uiso   1.00
O1328  O     0.83334   0.89345   0.79375   0.00000  Uiso   1.00
O1329  O     0.83333   0.77321   0.79372   0.00000  Uiso   1.00
O1330  O     0.83334   0.89346   0.87294   0.00000  Uiso   1.00
O1331  O     0.75828   0.83334   0.86379   0.00000  Uiso   1.00
O1332  O     0.90839   0.83333   0.80288   0.00000  Uiso   1.00
O1333  O     0.75828   0.83333   0.78460   0.00000  Uiso   1.00
O1334  O     0.90839   0.83334   0.88207   0.00000  Uiso   1.00
C1335  C     0.90706   0.96020   0.78175   0.00000  Uiso   1.00
O1336  O     0.93055   0.92990   0.79786   0.00000  Uiso   1.00
O1337  O     0.91846   0.97748   0.73996   0.00000  Uiso   1.00
H1338  H     0.94588   0.96159   0.72595   0.00000  Uiso   1.00
C1339  C     0.75960   0.70647   0.88491   0.00000  Uiso   1.00
O1340  O     0.73610   0.73677   0.86878   0.00000  Uiso   1.00
O1341  O     0.74819   0.68920   0.92669   0.00000  Uiso   1.00
H1342  H     0.72077   0.70508   0.94070   0.00000  Uiso   1.00
C1343  C     0.76865   0.77554   0.70427   0.00000  Uiso   1.00
O1344  O     0.72467   0.78477   0.70947   0.00000  Uiso   1.00
O1345  O     0.78552   0.73496   0.71125   0.00000  Uiso   1.00
H1346  H     0.75856   0.71638   0.72266   0.00000  Uiso   1.00
C1347  C     0.89806   0.89110   0.96240   0.00000  Uiso   1.00
O1348  O     0.94205   0.88185   0.95724   0.00000  Uiso   1.00
O1349  O     0.88122   0.93168   0.95537   0.00000  Uiso   1.00
H1350  H     0.90819   0.95025   0.94397   0.00000  Uiso   1.00
loop_
_geom_bond_atom_site_label_1
_geom_bond_atom_site_label_2
_geom_bond_distance
_geom_bond_site_symmetry_2
_ccdc_geom_bond_type
C1     O29     1.294   .     A
C1     C12     1.446   .     S
C1     O27     1.293   .     A
C2     O30     1.294   .     A
C2     C11     1.446   .     S
C2     O28     1.293   .     A
C3     O31     1.288   .     A
C3     O33     1.295   .     A
C3     C5      1.435   .     S
C4     O32     1.288   .     A
C4     O34     1.295   .     A
C4     C6      1.435   .     S
C5     C106    1.338   1_455 S
C5     H119    1.087   1_455 S
C6     C55     1.338   .     S
C6     H70     1.087   .     S
C7     C12     1.398   .     A
C7     H21     1.085   .     S
C7     C309    1.390   1_545 S
C8     H22     1.085   .     S
C8     C11     1.398   .     A
C8     C160    1.390   .     S
C9     C11     1.413   .     A
C9     C35     1.486   .     S
C9     C157    1.390   .     S
C10    C12     1.413   .     A
C10    C39     1.486   .     S
C10    C308    1.390   1_545 S
C13    N26     1.382   .     A
C13    C43     1.468   .     S
C13    C915    1.417   1_554 S
C14    C47     1.468   .     S
C14    N25     1.382   .     A
C14    C466    1.417   .     S
C15    H23     1.082   .     S
C15    N25     1.359   .     A
C15    C463    1.417   .     S
C16    H24     1.082   .     S
C16    N26     1.359   .     A
C16    C914    1.417   1_554 S
Cu17   N25     2.023   .     S
Cu17   Cu18    2.692   .     S
Cu17   O30     1.958   .     S
Cu17   O31     1.952   .     S
Cu17   O34     1.957   .     S
Cu17   O27     1.954   .     S
Cu18   N26     2.023   .     S
Cu18   O29     1.958   .     S
Cu18   O33     1.957   .     S
Cu18   O32     1.952   .     S
Cu18   O28     1.954   .     S
H19    C55     1.087   .     S
H20    C106    1.087   1_455 S
C35    O36     1.223   .     D
C35    O37     1.399   .     S
O37    H38     1.014   .     S
C39    O41     1.399   .     S
C39    O40     1.223   .     D
O41    H42     1.014   .     S
C43    O44     1.222   .     D
C43    O45     1.397   .     S
O45    H46     1.014   .     S
C47    O49     1.397   .     S
C47    O48     1.222   .     D
O49    H50     1.014   .     S
C51    O79     1.294   .     A
C51    C62     1.446   .     S
C51    O77     1.293   .     A
C52    O80     1.294   .     A
C52    C61     1.446   .     S
C52    O78     1.293   .     A
C53    O81     1.288   .     A
C53    O83     1.295   .     A
C53    C55     1.435   .     S
C54    O82     1.288   .     A
C54    O84     1.295   .     A
C54    C56     1.435   .     S
C56    C105    1.338   .     S
C56    H120    1.087   .     S
C57    C62     1.398   .     A
C57    H71     1.085   .     S
C57    C359    1.390   1_545 S
C58    H72     1.085   .     S
C58    C61     1.398   .     A
C58    C210    1.390   .     S
C59    C61     1.413   .     A
C59    C85     1.486   .     S
C59    C207    1.390   .     S
C60    C62     1.413   .     A
C60    C89     1.486   .     S
C60    C358    1.390   1_545 S
C63    N76     1.382   .     A
C63    C93     1.468   .     S
C63    C965    1.417   1_554 S
C64    C97     1.468   .     S
C64    N75     1.382   .     A
C64    C516    1.417   .     S
C65    H73     1.082   .     S
C65    N75     1.359   .     A
C65    C513    1.417   .     S
C66    H74     1.082   .     S
C66    N76     1.359   .     A
C66    C964    1.417   1_554 S
Cu67   N75     2.023   .     S
Cu67   Cu68    2.692   .     S
Cu67   O80     1.958   .     S
Cu67   O81     1.952   .     S
Cu67   O84     1.957   .     S
Cu67   O77     1.954   .     S
Cu68   N76     2.023   .     S
Cu68   O79     1.958   .     S
Cu68   O83     1.957   .     S
Cu68   O82     1.952   .     S
Cu68   O78     1.954   .     S
H69    C105    1.087   .     S
C85    O86     1.223   .     D
C85    O87     1.399   .     S
O87    H88     1.014   .     S
C89    O91     1.399   .     S
C89    O90     1.223   .     D
O91    H92     1.014   .     S
C93    O94     1.222   .     D
C93    O95     1.397   .     S
O95    H96     1.014   .     S
C97    O99     1.397   .     S
C97    O98     1.222   .     D
O99    H100    1.014   .     S
C101   O129    1.294   .     A
C101   C112    1.446   .     S
C101   O127    1.293   .     A
C102   O130    1.294   .     A
C102   C111    1.446   .     S
C102   O128    1.293   .     A
C103   O131    1.288   .     A
C103   O133    1.295   .     A
C103   C105    1.435   .     S
C104   O132    1.288   .     A
C104   O134    1.295   .     A
C104   C106    1.435   .     S
C106   C5      1.338   1_655 S
C106   H20     1.087   1_655 S
C107   C112    1.398   .     A
C107   H121    1.085   .     S
C107   C409    1.390   1_545 S
C108   H122    1.085   .     S
C108   C111    1.398   .     A
C108   C260    1.390   .     S
C109   C111    1.413   .     A
C109   C135    1.486   .     S
C109   C257    1.390   .     S
C110   C112    1.413   .     A
C110   C139    1.486   .     S
C110   C408    1.390   1_545 S
C113   N126    1.382   .     A
C113   C143    1.468   .     S
C113   C1015   1.417   1_554 S
C114   C147    1.468   .     S
C114   N125    1.382   .     A
C114   C566    1.417   .     S
C115   H123    1.082   .     S
C115   N125    1.359   .     A
C115   C563    1.417   .     S
C116   H124    1.082   .     S
C116   N126    1.359   .     A
C116   C1014   1.417   1_554 S
Cu117  N125    2.023   .     S
Cu117  Cu118   2.692   .     S
Cu117  O130    1.958   .     S
Cu117  O131    1.952   .     S
Cu117  O134    1.957   .     S
Cu117  O127    1.954   .     S
Cu118  N126    2.023   .     S
Cu118  O129    1.958   .     S
Cu118  O133    1.957   .     S
Cu118  O132    1.952   .     S
Cu118  O128    1.954   .     S
H119   C5      1.087   1_655 S
C135   O136    1.223   .     D
C135   O137    1.399   .     S
O137   H138    1.014   .     S
C139   O141    1.399   .     S
C139   O140    1.223   .     D
O141   H142    1.014   .     S
C143   O144    1.222   .     D
C143   O145    1.397   .     S
O145   H146    1.014   .     S
C147   O149    1.397   .     S
C147   O148    1.222   .     D
O149   H150    1.014   .     S
C151   O179    1.294   .     A
C151   C162    1.446   .     S
C151   O177    1.293   .     A
C152   O180    1.294   .     A
C152   C161    1.446   .     S
C152   O178    1.293   .     A
C153   O181    1.288   .     A
C153   O183    1.295   .     A
C153   C155    1.435   .     S
C154   O182    1.288   .     A
C154   O184    1.295   .     A
C154   C156    1.435   .     S
C155   C256    1.338   1_455 S
C155   H269    1.087   1_455 S
C156   C205    1.338   .     S
C156   H220    1.087   .     S
C157   C162    1.398   .     A
C157   H171    1.085   .     S
C158   H172    1.085   .     S
C158   C161    1.398   .     A
C158   C310    1.390   .     S
C159   C161    1.413   .     A
C159   C185    1.486   .     S
C159   C307    1.390   .     S
C160   C162    1.413   .     A
C160   C189    1.486   .     S
C163   N176    1.382   .     A
C163   C193    1.468   .     S
C163   C1065   1.417   1_554 S
C164   C197    1.468   .     S
C164   N175    1.382   .     A
C164   C616    1.417   .     S
C165   H173    1.082   .     S
C165   N175    1.359   .     A
C165   C613    1.417   .     S
C166   H174    1.082   .     S
C166   N176    1.359   .     A
C166   C1064   1.417   1_554 S
Cu167  N175    2.023   .     S
Cu167  Cu168   2.692   .     S
Cu167  O180    1.958   .     S
Cu167  O181    1.952   .     S
Cu167  O184    1.957   .     S
Cu167  O177    1.954   .     S
Cu168  N176    2.023   .     S
Cu168  O179    1.958   .     S
Cu168  O183    1.957   .     S
Cu168  O182    1.952   .     S
Cu168  O178    1.954   .     S
H169   C205    1.087   .     S
H170   C256    1.087   1_455 S
C185   O186    1.223   .     D
C185   O187    1.399   .     S
O187   H188    1.014   .     S
C189   O191    1.399   .     S
C189   O190    1.223   .     D
O191   H192    1.014   .     S
C193   O194    1.222   .     D
C193   O195    1.397   .     S
O195   H196    1.014   .     S
C197   O199    1.397   .     S
C197   O198    1.222   .     D
O199   H200    1.014   .     S
C201   O229    1.294   .     A
C201   C212    1.446   .     S
C201   O227    1.293   .     A
C202   O230    1.294   .     A
C202   C211    1.446   .     S
C202   O228    1.293   .     A
C203   O231    1.288   .     A
C203   O233    1.295   .     A
C203   C205    1.435   .     S
C204   O232    1.288   .     A
C204   O234    1.295   .     A
C204   C206    1.435   .     S
C206   C255    1.338   .     S
C206   H270    1.087   .     S
C207   C212    1.398   .     A
C207   H221    1.085   .     S
C208   H222    1.085   .     S
C208   C211    1.398   .     A
C208   C360    1.390   .     S
C209   C211    1.413   .     A
C209   C235    1.486   .     S
C209   C357    1.390   .     S
C210   C212    1.413   .     A
C210   C239    1.486   .     S
C213   N226    1.382   .     A
C213   C243    1.468   .     S
C213   C1115   1.417   1_554 S
C214   C247    1.468   .     S
C214   N225    1.382   .     A
C214   C666    1.417   .     S
C215   H223    1.082   .     S
C215   N225    1.359   .     A
C215   C663    1.417   .     S
C216   H224    1.082   .     S
C216   N226    1.359   .     A
C216   C1114   1.417   1_554 S
Cu217  N225    2.023   .     S
Cu217  Cu218   2.692   .     S
Cu217  O230    1.958   .     S
Cu217  O231    1.952   .     S
Cu217  O234    1.957   .     S
Cu217  O227    1.954   .     S
Cu218  N226    2.023   .     S
Cu218  O229    1.958   .     S
Cu218  O233    1.957   .     S
Cu218  O232    1.952   .     S
Cu218  O228    1.954   .     S
H219   C255    1.087   .     S
C235   O236    1.223   .     D
C235   O237    1.399   .     S
O237   H238    1.014   .     S
C239   O241    1.399   .     S
C239   O240    1.223   .     D
O241   H242    1.014   .     S
C243   O244    1.222   .     D
C243   O245    1.397   .     S
O245   H246    1.014   .     S
C247   O249    1.397   .     S
C247   O248    1.222   .     D
O249   H250    1.014   .     S
C251   O279    1.294   .     A
C251   C262    1.446   .     S
C251   O277    1.293   .     A
C252   O280    1.294   .     A
C252   C261    1.446   .     S
C252   O278    1.293   .     A
C253   O281    1.288   .     A
C253   O283    1.295   .     A
C253   C255    1.435   .     S
C254   O282    1.288   .     A
C254   O284    1.295   .     A
C254   C256    1.435   .     S
C256   C155    1.338   1_655 S
C256   H170    1.087   1_655 S
C257   C262    1.398   .     A
C257   H271    1.085   .     S
C258   H272    1.085   .     S
C258   C261    1.398   .     A
C258   C410    1.390   .     S
C259   C261    1.413   .     A
C259   C285    1.486   .     S
C259   C407    1.390   .     S
C260   C262    1.413   .     A
C260   C289    1.486   .     S
C263   N276    1.382   .     A
C263   C293    1.468   .     S
C263   C1165   1.417   1_554 S
C264   C297    1.468   .     S
C264   N275    1.382   .     A
C264   C716    1.417   .     S
C265   H273    1.082   .     S
C265   N275    1.359   .     A
C265   C713    1.417   .     S
C266   H274    1.082   .     S
C266   N276    1.359   .     A
C266   C1164   1.417   1_554 S
Cu267  N275    2.023   .     S
Cu267  Cu268   2.692   .     S
Cu267  O280    1.958   .     S
Cu267  O281    1.952   .     S
Cu267  O284    1.957   .     S
Cu267  O277    1.954   .     S
Cu268  N276    2.023   .     S
Cu268  O279    1.958   .     S
Cu268  O283    1.957   .     S
Cu268  O282    1.952   .     S
Cu268  O278    1.954   .     S
H269   C155    1.087   1_655 S
C285   O286    1.223   .     D
C285   O287    1.399   .     S
O287   H288    1.014   .     S
C289   O291    1.399   .     S
C289   O290    1.223   .     D
O291   H292    1.014   .     S
C293   O294    1.222   .     D
C293   O295    1.397   .     S
O295   H296    1.014   .     S
C297   O299    1.397   .     S
C297   O298    1.222   .     D
O299   H300    1.014   .     S
C301   O329    1.294   .     A
C301   C312    1.446   .     S
C301   O327    1.293   .     A
C302   O330    1.294   .     A
C302   C311    1.446   .     S
C302   O328    1.293   .     A
C303   O331    1.288   .     A
C303   O333    1.295   .     A
C303   C305    1.435   .     S
C304   O332    1.288   .     A
C304   O334    1.295   .     A
C304   C306    1.435   .     S
C305   C406    1.338   1_455 S
C305   H419    1.087   1_455 S
C306   C355    1.338   .     S
C306   H370    1.087   .     S
C307   C312    1.398   .     A
C307   H321    1.085   .     S
C308   H322    1.085   .     S
C308   C311    1.398   .     A
C308   C10     1.390   1_565 S
C309   C311    1.413   .     A
C309   C335    1.486   .     S
C309   C7      1.390   1_565 S
C310   C312    1.413   .     A
C310   C339    1.486   .     S
C313   N326    1.382   .     A
C313   C343    1.468   .     S
C313   C1215   1.417   1_554 S
C314   C347    1.468   .     S
C314   N325    1.382   .     A
C314   C766    1.417   .     S
C315   H323    1.082   .     S
C315   N325    1.359   .     A
C315   C763    1.417   .     S
C316   H324    1.082   .     S
C316   N326    1.359   .     A
C316   C1214   1.417   1_554 S
Cu317  N325    2.023   .     S
Cu317  Cu318   2.692   .     S
Cu317  O330    1.958   .     S
Cu317  O331    1.952   .     S
Cu317  O334    1.957   .     S
Cu317  O327    1.954   .     S
Cu318  N326    2.023   .     S
Cu318  O329    1.958   .     S
Cu318  O333    1.957   .     S
Cu318  O332    1.952   .     S
Cu318  O328    1.954   .     S
H319   C355    1.087   .     S
H320   C406    1.087   1_455 S
C335   O336    1.223   .     D
C335   O337    1.399   .     S
O337   H338    1.014   .     S
C339   O341    1.399   .     S
C339   O340    1.223   .     D
O341   H342    1.014   .     S
C343   O344    1.222   .     D
C343   O345    1.397   .     S
O345   H346    1.014   .     S
C347   O349    1.397   .     S
C347   O348    1.222   .     D
O349   H350    1.014   .     S
C351   O379    1.294   .     A
C351   C362    1.446   .     S
C351   O377    1.293   .     A
C352   O380    1.294   .     A
C352   C361    1.446   .     S
C352   O378    1.293   .     A
C353   O381    1.288   .     A
C353   O383    1.295   .     A
C353   C355    1.435   .     S
C354   O382    1.288   .     A
C354   O384    1.295   .     A
C354   C356    1.435   .     S
C356   C405    1.338   .     S
C356   H420    1.087   .     S
C357   C362    1.398   .     A
C357   H371    1.085   .     S
C358   H372    1.085   .     S
C358   C361    1.398   .     A
C358   C60     1.390   1_565 S
C359   C361    1.413   .     A
C359   C385    1.486   .     S
C359   C57     1.390   1_565 S
C360   C362    1.413   .     A
C360   C389    1.486   .     S
C363   N376    1.382   .     A
C363   C393    1.468   .     S
C363   C1265   1.417   1_554 S
C364   C397    1.468   .     S
C364   N375    1.382   .     A
C364   C816    1.417   .     S
C365   H373    1.082   .     S
C365   N375    1.359   .     A
C365   C813    1.417   .     S
C366   H374    1.082   .     S
C366   N376    1.359   .     A
C366   C1264   1.417   1_554 S
Cu367  N375    2.023   .     S
Cu367  Cu368   2.692   .     S
Cu367  O380    1.958   .     S
Cu367  O381    1.952   .     S
Cu367  O384    1.957   .     S
Cu367  O377    1.954   .     S
Cu368  N376    2.023   .     S
Cu368  O379    1.958   .     S
Cu368  O383    1.957   .     S
Cu368  O382    1.952   .     S
Cu368  O378    1.954   .     S
H369   C405    1.087   .     S
C385   O386    1.223   .     D
C385   O387    1.399   .     S
O387   H388    1.014   .     S
C389   O391    1.399   .     S
C389   O390    1.223   .     D
O391   H392    1.014   .     S
C393   O394    1.222   .     D
C393   O395    1.397   .     S
O395   H396    1.014   .     S
C397   O399    1.397   .     S
C397   O398    1.222   .     D
O399   H400    1.014   .     S
C401   O429    1.294   .     A
C401   C412    1.446   .     S
C401   O427    1.293   .     A
C402   O430    1.294   .     A
C402   C411    1.446   .     S
C402   O428    1.293   .     A
C403   O431    1.288   .     A
C403   O433    1.295   .     A
C403   C405    1.435   .     S
C404   O432    1.288   .     A
C404   O434    1.295   .     A
C404   C406    1.435   .     S
C406   C305    1.338   1_655 S
C406   H320    1.087   1_655 S
C407   C412    1.398   .     A
C407   H421    1.085   .     S
C408   H422    1.085   .     S
C408   C411    1.398   .     A
C408   C110    1.390   1_565 S
C409   C411    1.413   .     A
C409   C435    1.486   .     S
C409   C107    1.390   1_565 S
C410   C412    1.413   .     A
C410   C439    1.486   .     S
C413   N426    1.382   .     A
C413   C443    1.468   .     S
C413   C1315   1.417   1_554 S
C414   C447    1.468   .     S
C414   N425    1.382   .     A
C414   C866    1.417   .     S
C415   H423    1.082   .     S
C415   N425    1.359   .     A
C415   C863    1.417   .     S
C416   H424    1.082   .     S
C416   N426    1.359   .     A
C416   C1314   1.417   1_554 S
Cu417  N425    2.023   .     S
Cu417  Cu418   2.692   .     S
Cu417  O430    1.958   .     S
Cu417  O431    1.952   .     S
Cu417  O434    1.957   .     S
Cu417  O427    1.954   .     S
Cu418  N426    2.023   .     S
Cu418  O429    1.958   .     S
Cu418  O433    1.957   .     S
Cu418  O432    1.952   .     S
Cu418  O428    1.954   .     S
H419   C305    1.087   1_655 S
C435   O436    1.223   .     D
C435   O437    1.399   .     S
O437   H438    1.014   .     S
C439   O441    1.399   .     S
C439   O440    1.223   .     D
O441   H442    1.014   .     S
C443   O444    1.222   .     D
C443   O445    1.397   .     S
O445   H446    1.014   .     S
C447   O449    1.397   .     S
C447   O448    1.222   .     D
O449   H450    1.014   .     S
C451   O479    1.294   .     A
C451   C462    1.446   .     S
C451   O477    1.293   .     A
C452   O480    1.294   .     A
C452   C461    1.446   .     S
C452   O478    1.293   .     A
C453   O481    1.288   .     A
C453   O483    1.295   .     A
C453   C455    1.435   .     S
C454   O482    1.288   .     A
C454   O484    1.295   .     A
C454   C456    1.435   .     S
C455   C556    1.338   1_455 S
C455   H569    1.087   1_455 S
C456   C505    1.338   .     S
C456   H520    1.087   .     S
C457   C462    1.398   .     A
C457   H471    1.085   .     S
C457   C759    1.390   1_545 S
C458   H472    1.085   .     S
C458   C461    1.398   .     A
C458   C610    1.390   .     S
C459   C461    1.413   .     A
C459   C485    1.486   .     S
C459   C607    1.390   .     S
C460   C462    1.413   .     A
C460   C489    1.486   .     S
C460   C758    1.390   1_545 S
C463   N476    1.382   .     A
C463   C493    1.468   .     S
C464   C497    1.468   .     S
C464   N475    1.382   .     A
C464   C916    1.417   .     S
C465   H473    1.082   .     S
C465   N475    1.359   .     A
C465   C913    1.417   .     S
C466   H474    1.082   .     S
C466   N476    1.359   .     A
Cu467  N475    2.023   .     S
Cu467  Cu468   2.692   .     S
Cu467  O480    1.958   .     S
Cu467  O481    1.952   .     S
Cu467  O484    1.957   .     S
Cu467  O477    1.954   .     S
Cu468  N476    2.023   .     S
Cu468  O479    1.958   .     S
Cu468  O483    1.957   .     S
Cu468  O482    1.952   .     S
Cu468  O478    1.954   .     S
H469   C505    1.087   .     S
H470   C556    1.087   1_455 S
C485   O486    1.223   .     D
C485   O487    1.399   .     S
O487   H488    1.014   .     S
C489   O491    1.399   .     S
C489   O490    1.223   .     D
O491   H492    1.014   .     S
C493   O494    1.222   .     D
C493   O495    1.397   .     S
O495   H496    1.014   .     S
C497   O499    1.397   .     S
C497   O498    1.222   .     D
O499   H500    1.014   .     S
C501   O529    1.294   .     A
C501   C512    1.446   .     S
C501   O527    1.293   .     A
C502   O530    1.294   .     A
C502   C511    1.446   .     S
C502   O528    1.293   .     A
C503   O531    1.288   .     A
C503   O533    1.295   .     A
C503   C505    1.435   .     S
C504   O532    1.288   .     A
C504   O534    1.295   .     A
C504   C506    1.435   .     S
C506   C555    1.338   .     S
C506   H570    1.087   .     S
C507   C512    1.398   .     A
C507   H521    1.085   .     S
C507   C809    1.390   1_545 S
C508   H522    1.085   .     S
C508   C511    1.398   .     A
C508   C660    1.390   .     S
C509   C511    1.413   .     A
C509   C535    1.486   .     S
C509   C657    1.390   .     S
C510   C512    1.413   .     A
C510   C539    1.486   .     S
C510   C808    1.390   1_545 S
C513   N526    1.382   .     A
C513   C543    1.468   .     S
C514   C547    1.468   .     S
C514   N525    1.382   .     A
C514   C966    1.417   .     S
C515   H523    1.082   .     S
C515   N525    1.359   .     A
C515   C963    1.417   .     S
C516   H524    1.082   .     S
C516   N526    1.359   .     A
Cu517  N525    2.023   .     S
Cu517  Cu518   2.692   .     S
Cu517  O530    1.958   .     S
Cu517  O531    1.952   .     S
Cu517  O534    1.957   .     S
Cu517  O527    1.954   .     S
Cu518  N526    2.023   .     S
Cu518  O529    1.958   .     S
Cu518  O533    1.957   .     S
Cu518  O532    1.952   .     S
Cu518  O528    1.954   .     S
H519   C555    1.087   .     S
C535   O536    1.223   .     D
C535   O537    1.399   .     S
O537   H538    1.014   .     S
C539   O541    1.399   .     S
C539   O540    1.223   .     D
O541   H542    1.014   .     S
C543   O544    1.222   .     D
C543   O545    1.397   .     S
O545   H546    1.014   .     S
C547   O549    1.397   .     S
C547   O548    1.222   .     D
O549   H550    1.014   .     S
C551   O579    1.294   .     A
C551   C562    1.446   .     S
C551   O577    1.293   .     A
C552   O580    1.294   .     A
C552   C561    1.446   .     S
C552   O578    1.293   .     A
C553   O581    1.288   .     A
C553   O583    1.295   .     A
C553   C555    1.435   .     S
C554   O582    1.288   .     A
C554   O584    1.295   .     A
C554   C556    1.435   .     S
C556   C455    1.338   1_655 S
C556   H470    1.087   1_655 S
C557   C562    1.398   .     A
C557   H571    1.085   .     S
C557   C859    1.390   1_545 S
C558   H572    1.085   .     S
C558   C561    1.398   .     A
C558   C710    1.390   .     S
C559   C561    1.413   .     A
C559   C585    1.486   .     S
C559   C707    1.390   .     S
C560   C562    1.413   .     A
C560   C589    1.486   .     S
C560   C858    1.390   1_545 S
C563   N576    1.382   .     A
C563   C593    1.468   .     S
C564   C597    1.468   .     S
C564   N575    1.382   .     A
C564   C1016   1.417   .     S
C565   H573    1.082   .     S
C565   N575    1.359   .     A
C565   C1013   1.417   .     S
C566   H574    1.082   .     S
C566   N576    1.359   .     A
Cu567  N575    2.023   .     S
Cu567  Cu568   2.692   .     S
Cu567  O580    1.958   .     S
Cu567  O581    1.952   .     S
Cu567  O584    1.957   .     S
Cu567  O577    1.954   .     S
Cu568  N576    2.023   .     S
Cu568  O579    1.958   .     S
Cu568  O583    1.957   .     S
Cu568  O582    1.952   .     S
Cu568  O578    1.954   .     S
H569   C455    1.087   1_655 S
C585   O586    1.223   .     D
C585   O587    1.399   .     S
O587   H588    1.014   .     S
C589   O591    1.399   .     S
C589   O590    1.223   .     D
O591   H592    1.014   .     S
C593   O594    1.222   .     D
C593   O595    1.397   .     S
O595   H596    1.014   .     S
C597   O599    1.397   .     S
C597   O598    1.222   .     D
O599   H600    1.014   .     S
C601   O629    1.294   .     A
C601   C612    1.446   .     S
C601   O627    1.293   .     A
C602   O630    1.294   .     A
C602   C611    1.446   .     S
C602   O628    1.293   .     A
C603   O631    1.288   .     A
C603   O633    1.295   .     A
C603   C605    1.435   .     S
C604   O632    1.288   .     A
C604   O634    1.295   .     A
C604   C606    1.435   .     S
C605   C706    1.338   1_455 S
C605   H719    1.087   1_455 S
C606   C655    1.338   .     S
C606   H670    1.087   .     S
C607   C612    1.398   .     A
C607   H621    1.085   .     S
C608   H622    1.085   .     S
C608   C611    1.398   .     A
C608   C760    1.390   .     S
C609   C611    1.413   .     A
C609   C635    1.486   .     S
C609   C757    1.390   .     S
C610   C612    1.413   .     A
C610   C639    1.486   .     S
C613   N626    1.382   .     A
C613   C643    1.468   .     S
C614   C647    1.468   .     S
C614   N625    1.382   .     A
C614   C1066   1.417   .     S
C615   H623    1.082   .     S
C615   N625    1.359   .     A
C615   C1063   1.417   .     S
C616   H624    1.082   .     S
C616   N626    1.359   .     A
Cu617  N625    2.023   .     S
Cu617  Cu618   2.692   .     S
Cu617  O630    1.958   .     S
Cu617  O631    1.952   .     S
Cu617  O634    1.957   .     S
Cu617  O627    1.954   .     S
Cu618  N626    2.023   .     S
Cu618  O629    1.958   .     S
Cu618  O633    1.957   .     S
Cu618  O632    1.952   .     S
Cu618  O628    1.954   .     S
H619   C655    1.087   .     S
H620   C706    1.087   1_455 S
C635   O636    1.223   .     D
C635   O637    1.399   .     S
O637   H638    1.014   .     S
C639   O641    1.399   .     S
C639   O640    1.223   .     D
O641   H642    1.014   .     S
C643   O644    1.222   .     D
C643   O645    1.397   .     S
O645   H646    1.014   .     S
C647   O649    1.397   .     S
C647   O648    1.222   .     D
O649   H650    1.014   .     S
C651   O679    1.294   .     A
C651   C662    1.446   .     S
C651   O677    1.293   .     A
C652   O680    1.294   .     A
C652   C661    1.446   .     S
C652   O678    1.293   .     A
C653   O681    1.288   .     A
C653   O683    1.295   .     A
C653   C655    1.435   .     S
C654   O682    1.288   .     A
C654   O684    1.295   .     A
C654   C656    1.435   .     S
C656   C705    1.338   .     S
C656   H720    1.087   .     S
C657   C662    1.398   .     A
C657   H671    1.085   .     S
C658   H672    1.085   .     S
C658   C661    1.398   .     A
C658   C810    1.390   .     S
C659   C661    1.413   .     A
C659   C685    1.486   .     S
C659   C807    1.390   .     S
C660   C662    1.413   .     A
C660   C689    1.486   .     S
C663   N676    1.382   .     A
C663   C693    1.468   .     S
C664   C697    1.468   .     S
C664   N675    1.382   .     A
C664   C1116   1.417   .     S
C665   H673    1.082   .     S
C665   N675    1.359   .     A
C665   C1113   1.417   .     S
C666   H674    1.082   .     S
C666   N676    1.359   .     A
Cu667  N675    2.023   .     S
Cu667  Cu668   2.692   .     S
Cu667  O680    1.958   .     S
Cu667  O681    1.952   .     S
Cu667  O684    1.957   .     S
Cu667  O677    1.954   .     S
Cu668  N676    2.023   .     S
Cu668  O679    1.958   .     S
Cu668  O683    1.957   .     S
Cu668  O682    1.952   .     S
Cu668  O678    1.954   .     S
H669   C705    1.087   .     S
C685   O686    1.223   .     D
C685   O687    1.399   .     S
O687   H688    1.014   .     S
C689   O691    1.399   .     S
C689   O690    1.223   .     D
O691   H692    1.014   .     S
C693   O694    1.222   .     D
C693   O695    1.397   .     S
O695   H696    1.014   .     S
C697   O699    1.397   .     S
C697   O698    1.222   .     D
O699   H700    1.014   .     S
C701   O729    1.294   .     A
C701   C712    1.446   .     S
C701   O727    1.293   .     A
C702   O730    1.294   .     A
C702   C711    1.446   .     S
C702   O728    1.293   .     A
C703   O731    1.288   .     A
C703   O733    1.295   .     A
C703   C705    1.435   .     S
C704   O732    1.288   .     A
C704   O734    1.295   .     A
C704   C706    1.435   .     S
C706   C605    1.338   1_655 S
C706   H620    1.087   1_655 S
C707   C712    1.398   .     A
C707   H721    1.085   .     S
C708   H722    1.085   .     S
C708   C711    1.398   .     A
C708   C860    1.390   .     S
C709   C711    1.413   .     A
C709   C735    1.486   .     S
C709   C857    1.390   .     S
C710   C712    1.413   .     A
C710   C739    1.486   .     S
C713   N726    1.382   .     A
C713   C743    1.468   .     S
C714   C747    1.468   .     S
C714   N725    1.382   .     A
C714   C1166   1.417   .     S
C715   H723    1.082   .     S
C715   N725    1.359   .     A
C715   C1163   1.417   .     S
C716   H724    1.082   .     S
C716   N726    1.359   .     A
Cu717  N725    2.023   .     S
Cu717  Cu718   2.692   .     S
Cu717  O730    1.958   .     S
Cu717  O731    1.952   .     S
Cu717  O734    1.957   .     S
Cu717  O727    1.954   .     S
Cu718  N726    2.023   .     S
Cu718  O729    1.958   .     S
Cu718  O733    1.957   .     S
Cu718  O732    1.952   .     S
Cu718  O728    1.954   .     S
H719   C605    1.087   1_655 S
C735   O736    1.223   .     D
C735   O737    1.399   .     S
O737   H738    1.014   .     S
C739   O741    1.399   .     S
C739   O740    1.223   .     D
O741   H742    1.014   .     S
C743   O744    1.222   .     D
C743   O745    1.397   .     S
O745   H746    1.014   .     S
C747   O749    1.397   .     S
C747   O748    1.222   .     D
O749   H750    1.014   .     S
C751   O779    1.294   .     A
C751   C762    1.446   .     S
C751   O777    1.293   .     A
C752   O780    1.294   .     A
C752   C761    1.446   .     S
C752   O778    1.293   .     A
C753   O781    1.288   .     A
C753   O783    1.295   .     A
C753   C755    1.435   .     S
C754   O782    1.288   .     A
C754   O784    1.295   .     A
C754   C756    1.435   .     S
C755   C856    1.338   1_455 S
C755   H869    1.087   1_455 S
C756   C805    1.338   .     S
C756   H820    1.087   .     S
C757   C762    1.398   .     A
C757   H771    1.085   .     S
C758   H772    1.085   .     S
C758   C761    1.398   .     A
C758   C460    1.390   1_565 S
C759   C761    1.413   .     A
C759   C785    1.486   .     S
C759   C457    1.390   1_565 S
C760   C762    1.413   .     A
C760   C789    1.486   .     S
C763   N776    1.382   .     A
C763   C793    1.468   .     S
C764   C797    1.468   .     S
C764   N775    1.382   .     A
C764   C1216   1.417   .     S
C765   H773    1.082   .     S
C765   N775    1.359   .     A
C765   C1213   1.417   .     S
C766   H774    1.082   .     S
C766   N776    1.359   .     A
Cu767  N775    2.023   .     S
Cu767  Cu768   2.692   .     S
Cu767  O780    1.958   .     S
Cu767  O781    1.952   .     S
Cu767  O784    1.957   .     S
Cu767  O777    1.954   .     S
Cu768  N776    2.023   .     S
Cu768  O779    1.958   .     S
Cu768  O783    1.957   .     S
Cu768  O782    1.952   .     S
Cu768  O778    1.954   .     S
H769   C805    1.087   .     S
H770   C856    1.087   1_455 S
C785   O786    1.223   .     D
C785   O787    1.399   .     S
O787   H788    1.014   .     S
C789   O791    1.399   .     S
C789   O790    1.223   .     D
O791   H792    1.014   .     S
C793   O794    1.222   .     D
C793   O795    1.397   .     S
O795   H796    1.014   .     S
C797   O799    1.397   .     S
C797   O798    1.222   .     D
O799   H800    1.014   .     S
C801   O829    1.294   .     A
C801   C812    1.446   .     S
C801   O827    1.293   .     A
C802   O830    1.294   .     A
C802   C811    1.446   .     S
C802   O828    1.293   .     A
C803   O831    1.288   .     A
C803   O833    1.295   .     A
C803   C805    1.435   .     S
C804   O832    1.288   .     A
C804   O834    1.295   .     A
C804   C806    1.435   .     S
C806   C855    1.338   .     S
C806   H870    1.087   .     S
C807   C812    1.398   .     A
C807   H821    1.085   .     S
C808   H822    1.085   .     S
C808   C811    1.398   .     A
C808   C510    1.390   1_565 S
C809   C811    1.413   .     A
C809   C835    1.486   .     S
C809   C507    1.390   1_565 S
C810   C812    1.413   .     A
C810   C839    1.486   .     S
C813   N826    1.382   .     A
C813   C843    1.468   .     S
C814   C847    1.468   .     S
C814   N825    1.382   .     A
C814   C1266   1.417   .     S
C815   H823    1.082   .     S
C815   N825    1.359   .     A
C815   C1263   1.417   .     S
C816   H824    1.082   .     S
C816   N826    1.359   .     A
Cu817  N825    2.023   .     S
Cu817  Cu818   2.692   .     S
Cu817  O830    1.958   .     S
Cu817  O831    1.952   .     S
Cu817  O834    1.957   .     S
Cu817  O827    1.954   .     S
Cu818  N826    2.023   .     S
Cu818  O829    1.958   .     S
Cu818  O833    1.957   .     S
Cu818  O832    1.952   .     S
Cu818  O828    1.954   .     S
H819   C855    1.087   .     S
C835   O836    1.223   .     D
C835   O837    1.399   .     S
O837   H838    1.014   .     S
C839   O841    1.399   .     S
C839   O840    1.223   .     D
O841   H842    1.014   .     S
C843   O844    1.222   .     D
C843   O845    1.397   .     S
O845   H846    1.014   .     S
C847   O849    1.397   .     S
C847   O848    1.222   .     D
O849   H850    1.014   .     S
C851   O879    1.294   .     A
C851   C862    1.446   .     S
C851   O877    1.293   .     A
C852   O880    1.294   .     A
C852   C861    1.446   .     S
C852   O878    1.293   .     A
C853   O881    1.288   .     A
C853   O883    1.295   .     A
C853   C855    1.435   .     S
C854   O882    1.288   .     A
C854   O884    1.295   .     A
C854   C856    1.435   .     S
C856   C755    1.338   1_655 S
C856   H770    1.087   1_655 S
C857   C862    1.398   .     A
C857   H871    1.085   .     S
C858   H872    1.085   .     S
C858   C861    1.398   .     A
C858   C560    1.390   1_565 S
C859   C861    1.413   .     A
C859   C885    1.486   .     S
C859   C557    1.390   1_565 S
C860   C862    1.413   .     A
C860   C889    1.486   .     S
C863   N876    1.382   .     A
C863   C893    1.468   .     S
C864   C897    1.468   .     S
C864   N875    1.382   .     A
C864   C1316   1.417   .     S
C865   H873    1.082   .     S
C865   N875    1.359   .     A
C865   C1313   1.417   .     S
C866   H874    1.082   .     S
C866   N876    1.359   .     A
Cu867  N875    2.023   .     S
Cu867  Cu868   2.692   .     S
Cu867  O880    1.958   .     S
Cu867  O881    1.952   .     S
Cu867  O884    1.957   .     S
Cu867  O877    1.954   .     S
Cu868  N876    2.023   .     S
Cu868  O879    1.958   .     S
Cu868  O883    1.957   .     S
Cu868  O882    1.952   .     S
Cu868  O878    1.954   .     S
H869   C755    1.087   1_655 S
C885   O886    1.223   .     D
C885   O887    1.399   .     S
O887   H888    1.014   .     S
C889   O891    1.399   .     S
C889   O890    1.223   .     D
O891   H892    1.014   .     S
C893   O894    1.222   .     D
C893   O895    1.397   .     S
O895   H896    1.014   .     S
C897   O899    1.397   .     S
C897   O898    1.222   .     D
O899   H900    1.014   .     S
C901   O929    1.294   .     A
C901   C912    1.446   .     S
C901   O927    1.293   .     A
C902   O930    1.294   .     A
C902   C911    1.446   .     S
C902   O928    1.293   .     A
C903   O931    1.288   .     A
C903   O933    1.295   .     A
C903   C905    1.435   .     S
C904   O932    1.288   .     A
C904   O934    1.295   .     A
C904   C906    1.435   .     S
C905   C1006   1.338   1_455 S
C905   H1019   1.087   1_455 S
C906   C955    1.338   .     S
C906   H970    1.087   .     S
C907   C912    1.398   .     A
C907   H921    1.085   .     S
C907   C1209   1.390   1_545 S
C908   H922    1.085   .     S
C908   C911    1.398   .     A
C908   C1060   1.390   .     S
C909   C911    1.413   .     A
C909   C935    1.486   .     S
C909   C1057   1.390   .     S
C910   C912    1.413   .     A
C910   C939    1.486   .     S
C910   C1208   1.390   1_545 S
C913   N926    1.382   .     A
C913   C943    1.468   .     S
C914   C947    1.468   .     S
C914   N925    1.382   .     A
C914   C16     1.417   1_556 S
C915   H923    1.082   .     S
C915   N925    1.359   .     A
C915   C13     1.417   1_556 S
C916   H924    1.082   .     S
C916   N926    1.359   .     A
Cu917  N925    2.023   .     S
Cu917  Cu918   2.692   .     S
Cu917  O930    1.958   .     S
Cu917  O931    1.952   .     S
Cu917  O934    1.957   .     S
Cu917  O927    1.954   .     S
Cu918  N926    2.023   .     S
Cu918  O929    1.958   .     S
Cu918  O933    1.957   .     S
Cu918  O932    1.952   .     S
Cu918  O928    1.954   .     S
H919   C955    1.087   .     S
H920   C1006   1.087   1_455 S
C935   O936    1.223   .     D
C935   O937    1.399   .     S
O937   H938    1.014   .     S
C939   O941    1.399   .     S
C939   O940    1.223   .     D
O941   H942    1.014   .     S
C943   O944    1.222   .     D
C943   O945    1.397   .     S
O945   H946    1.014   .     S
C947   O949    1.397   .     S
C947   O948    1.222   .     D
O949   H950    1.014   .     S
C951   O979    1.294   .     A
C951   C962    1.446   .     S
C951   O977    1.293   .     A
C952   O980    1.294   .     A
C952   C961    1.446   .     S
C952   O978    1.293   .     A
C953   O981    1.288   .     A
C953   O983    1.295   .     A
C953   C955    1.435   .     S
C954   O982    1.288   .     A
C954   O984    1.295   .     A
C954   C956    1.435   .     S
C956   C1005   1.338   .     S
C956   H1020   1.087   .     S
C957   C962    1.398   .     A
C957   H971    1.085   .     S
C957   C1259   1.390   1_545 S
C958   H972    1.085   .     S
C958   C961    1.398   .     A
C958   C1110   1.390   .     S
C959   C961    1.413   .     A
C959   C985    1.486   .     S
C959   C1107   1.390   .     S
C960   C962    1.413   .     A
C960   C989    1.486   .     S
C960   C1258   1.390   1_545 S
C963   N976    1.382   .     A
C963   C993    1.468   .     S
C964   C997    1.468   .     S
C964   N975    1.382   .     A
C964   C66     1.417   1_556 S
C965   H973    1.082   .     S
C965   N975    1.359   .     A
C965   C63     1.417   1_556 S
C966   H974    1.082   .     S
C966   N976    1.359   .     A
Cu967  N975    2.023   .     S
Cu967  Cu968   2.692   .     S
Cu967  O980    1.958   .     S
Cu967  O981    1.952   .     S
Cu967  O984    1.957   .     S
Cu967  O977    1.954   .     S
Cu968  N976    2.023   .     S
Cu968  O979    1.958   .     S
Cu968  O983    1.957   .     S
Cu968  O982    1.952   .     S
Cu968  O978    1.954   .     S
H969   C1005   1.087   .     S
C985   O986    1.223   .     D
C985   O987    1.399   .     S
O987   H988    1.014   .     S
C989   O991    1.399   .     S
C989   O990    1.223   .     D
O991   H992    1.014   .     S
C993   O994    1.222   .     D
C993   O995    1.397   .     S
O995   H996    1.014   .     S
C997   O999    1.397   .     S
C997   O998    1.222   .     D
O999   H1000   1.014   .     S
C1001  O1029   1.294   .     A
C1001  C1012   1.446   .     S
C1001  O1027   1.293   .     A
C1002  O1030   1.294   .     A
C1002  C1011   1.446   .     S
C1002  O1028   1.293   .     A
C1003  O1031   1.288   .     A
C1003  O1033   1.295   .     A
C1003  C1005   1.435   .     S
C1004  O1032   1.288   .     A
C1004  O1034   1.295   .     A
C1004  C1006   1.435   .     S
C1006  C905    1.338   1_655 S
C1006  H920    1.087   1_655 S
C1007  C1012   1.398   .     A
C1007  H1021   1.085   .     S
C1007  C1309   1.390   1_545 S
C1008  H1022   1.085   .     S
C1008  C1011   1.398   .     A
C1008  C1160   1.390   .     S
C1009  C1011   1.413   .     A
C1009  C1035   1.486   .     S
C1009  C1157   1.390   .     S
C1010  C1012   1.413   .     A
C1010  C1039   1.486   .     S
C1010  C1308   1.390   1_545 S
C1013  N1026   1.382   .     A
C1013  C1043   1.468   .     S
C1014  C1047   1.468   .     S
C1014  N1025   1.382   .     A
C1014  C116    1.417   1_556 S
C1015  H1023   1.082   .     S
C1015  N1025   1.359   .     A
C1015  C113    1.417   1_556 S
C1016  H1024   1.082   .     S
C1016  N1026   1.359   .     A
Cu1017 N1025   2.023   .     S
Cu1017 Cu1018  2.692   .     S
Cu1017 O1030   1.958   .     S
Cu1017 O1031   1.952   .     S
Cu1017 O1034   1.957   .     S
Cu1017 O1027   1.954   .     S
Cu1018 N1026   2.023   .     S
Cu1018 O1029   1.958   .     S
Cu1018 O1033   1.957   .     S
Cu1018 O1032   1.952   .     S
Cu1018 O1028   1.954   .     S
H1019  C905    1.087   1_655 S
C1035  O1036   1.223   .     D
C1035  O1037   1.399   .     S
O1037  H1038   1.014   .     S
C1039  O1041   1.399   .     S
C1039  O1040   1.223   .     D
O1041  H1042   1.014   .     S
C1043  O1044   1.222   .     D
C1043  O1045   1.397   .     S
O1045  H1046   1.014   .     S
C1047  O1049   1.397   .     S
C1047  O1048   1.222   .     D
O1049  H1050   1.014   .     S
C1051  O1079   1.294   .     A
C1051  C1062   1.446   .     S
C1051  O1077   1.293   .     A
C1052  O1080   1.294   .     A
C1052  C1061   1.446   .     S
C1052  O1078   1.293   .     A
C1053  O1081   1.288   .     A
C1053  O1083   1.295   .     A
C1053  C1055   1.435   .     S
C1054  O1082   1.288   .     A
C1054  O1084   1.295   .     A
C1054  C1056   1.435   .     S
C1055  C1156   1.338   1_455 S
C1055  H1169   1.087   1_455 S
C1056  C1105   1.338   .     S
C1056  H1120   1.087   .     S
C1057  C1062   1.398   .     A
C1057  H1071   1.085   .     S
C1058  H1072   1.085   .     S
C1058  C1061   1.398   .     A
C1058  C1210   1.390   .     S
C1059  C1061   1.413   .     A
C1059  C1085   1.486   .     S
C1059  C1207   1.390   .     S
C1060  C1062   1.413   .     A
C1060  C1089   1.486   .     S
C1063  N1076   1.382   .     A
C1063  C1093   1.468   .     S
C1064  C1097   1.468   .     S
C1064  N1075   1.382   .     A
C1064  C166    1.417   1_556 S
C1065  H1073   1.082   .     S
C1065  N1075   1.359   .     A
C1065  C163    1.417   1_556 S
C1066  H1074   1.082   .     S
C1066  N1076   1.359   .     A
Cu1067 N1075   2.023   .     S
Cu1067 Cu1068  2.692   .     S
Cu1067 O1080   1.958   .     S
Cu1067 O1081   1.952   .     S
Cu1067 O1084   1.957   .     S
Cu1067 O1077   1.954   .     S
Cu1068 N1076   2.023   .     S
Cu1068 O1079   1.958   .     S
Cu1068 O1083   1.957   .     S
Cu1068 O1082   1.952   .     S
Cu1068 O1078   1.954   .     S
H1069  C1105   1.087   .     S
H1070  C1156   1.087   1_455 S
C1085  O1086   1.223   .     D
C1085  O1087   1.399   .     S
O1087  H1088   1.014   .     S
C1089  O1091   1.399   .     S
C1089  O1090   1.223   .     D
O1091  H1092   1.014   .     S
C1093  O1094   1.222   .     D
C1093  O1095   1.397   .     S
O1095  H1096   1.014   .     S
C1097  O1099   1.397   .     S
C1097  O1098   1.222   .     D
O1099  H1100   1.014   .     S
C1101  O1129   1.294   .     A
C1101  C1112   1.446   .     S
C1101  O1127   1.293   .     A
C1102  O1130   1.294   .     A
C1102  C1111   1.446   .     S
C1102  O1128   1.293   .     A
C1103  O1131   1.288   .     A
C1103  O1133   1.295   .     A
C1103  C1105   1.435   .     S
C1104  O1132   1.288   .     A
C1104  O1134   1.295   .     A
C1104  C1106   1.435   .     S
C1106  C1155   1.338   .     S
C1106  H1170   1.087   .     S
C1107  C1112   1.398   .     A
C1107  H1121   1.085   .     S
C1108  H1122   1.085   .     S
C1108  C1111   1.398   .     A
C1108  C1260   1.390   .     S
C1109  C1111   1.413   .     A
C1109  C1135   1.486   .     S
C1109  C1257   1.390   .     S
C1110  C1112   1.413   .     A
C1110  C1139   1.486   .     S
C1113  N1126   1.382   .     A
C1113  C1143   1.468   .     S
C1114  C1147   1.468   .     S
C1114  N1125   1.382   .     A
C1114  C216    1.417   1_556 S
C1115  H1123   1.082   .     S
C1115  N1125   1.359   .     A
C1115  C213    1.417   1_556 S
C1116  H1124   1.082   .     S
C1116  N1126   1.359   .     A
Cu1117 N1125   2.023   .     S
Cu1117 Cu1118  2.692   .     S
Cu1117 O1130   1.958   .     S
Cu1117 O1131   1.952   .     S
Cu1117 O1134   1.957   .     S
Cu1117 O1127   1.954   .     S
Cu1118 N1126   2.023   .     S
Cu1118 O1129   1.958   .     S
Cu1118 O1133   1.957   .     S
Cu1118 O1132   1.952   .     S
Cu1118 O1128   1.954   .     S
H1119  C1155   1.087   .     S
C1135  O1136   1.223   .     D
C1135  O1137   1.399   .     S
O1137  H1138   1.014   .     S
C1139  O1141   1.399   .     S
C1139  O1140   1.223   .     D
O1141  H1142   1.014   .     S
C1143  O1144   1.222   .     D
C1143  O1145   1.397   .     S
O1145  H1146   1.014   .     S
C1147  O1149   1.397   .     S
C1147  O1148   1.222   .     D
O1149  H1150   1.014   .     S
C1151  O1179   1.294   .     A
C1151  C1162   1.446   .     S
C1151  O1177   1.293   .     A
C1152  O1180   1.294   .     A
C1152  C1161   1.446   .     S
C1152  O1178   1.293   .     A
C1153  O1181   1.288   .     A
C1153  O1183   1.295   .     A
C1153  C1155   1.435   .     S
C1154  O1182   1.288   .     A
C1154  O1184   1.295   .     A
C1154  C1156   1.435   .     S
C1156  C1055   1.338   1_655 S
C1156  H1070   1.087   1_655 S
C1157  C1162   1.398   .     A
C1157  H1171   1.085   .     S
C1158  H1172   1.085   .     S
C1158  C1161   1.398   .     A
C1158  C1310   1.390   .     S
C1159  C1161   1.413   .     A
C1159  C1185   1.486   .     S
C1159  C1307   1.390   .     S
C1160  C1162   1.413   .     A
C1160  C1189   1.486   .     S
C1163  N1176   1.382   .     A
C1163  C1193   1.468   .     S
C1164  C1197   1.468   .     S
C1164  N1175   1.382   .     A
C1164  C266    1.417   1_556 S
C1165  H1173   1.082   .     S
C1165  N1175   1.359   .     A
C1165  C263    1.417   1_556 S
C1166  H1174   1.082   .     S
C1166  N1176   1.359   .     A
Cu1167 N1175   2.023   .     S
Cu1167 Cu1168  2.692   .     S
Cu1167 O1180   1.958   .     S
Cu1167 O1181   1.952   .     S
Cu1167 O1184   1.957   .     S
Cu1167 O1177   1.954   .     S
Cu1168 N1176   2.023   .     S
Cu1168 O1179   1.958   .     S
Cu1168 O1183   1.957   .     S
Cu1168 O1182   1.952   .     S
Cu1168 O1178   1.954   .     S
H1169  C1055   1.087   1_655 S
C1185  O1186   1.223   .     D
C1185  O1187   1.399   .     S
O1187  H1188   1.014   .     S
C1189  O1191   1.399   .     S
C1189  O1190   1.223   .     D
O1191  H1192   1.014   .     S
C1193  O1194   1.222   .     D
C1193  O1195   1.397   .     S
O1195  H1196   1.014   .     S
C1197  O1199   1.397   .     S
C1197  O1198   1.222   .     D
O1199  H1200   1.014   .     S
C1201  O1229   1.294   .     A
C1201  C1212   1.446   .     S
C1201  O1227   1.293   .     A
C1202  O1230   1.294   .     A
C1202  C1211   1.446   .     S
C1202  O1228   1.293   .     A
C1203  O1231   1.288   .     A
C1203  O1233   1.295   .     A
C1203  C1205   1.435   .     S
C1204  O1232   1.288   .     A
C1204  O1234   1.295   .     A
C1204  C1206   1.435   .     S
C1205  C1306   1.338   1_455 S
C1205  H1319   1.087   1_455 S
C1206  C1255   1.338   .     S
C1206  H1270   1.087   .     S
C1207  C1212   1.398   .     A
C1207  H1221   1.085   .     S
C1208  H1222   1.085   .     S
C1208  C1211   1.398   .     A
C1208  C910    1.390   1_565 S
C1209  C1211   1.413   .     A
C1209  C1235   1.486   .     S
C1209  C907    1.390   1_565 S
C1210  C1212   1.413   .     A
C1210  C1239   1.486   .     S
C1213  N1226   1.382   .     A
C1213  C1243   1.468   .     S
C1214  C1247   1.468   .     S
C1214  N1225   1.382   .     A
C1214  C316    1.417   1_556 S
C1215  H1223   1.082   .     S
C1215  N1225   1.359   .     A
C1215  C313    1.417   1_556 S
C1216  H1224   1.082   .     S
C1216  N1226   1.359   .     A
Cu1217 N1225   2.023   .     S
Cu1217 Cu1218  2.692   .     S
Cu1217 O1230   1.958   .     S
Cu1217 O1231   1.952   .     S
Cu1217 O1234   1.957   .     S
Cu1217 O1227   1.954   .     S
Cu1218 N1226   2.023   .     S
Cu1218 O1229   1.958   .     S
Cu1218 O1233   1.957   .     S
Cu1218 O1232   1.952   .     S
Cu1218 O1228   1.954   .     S
H1219  C1255   1.087   .     S
H1220  C1306   1.087   1_455 S
C1235  O1236   1.223   .     D
C1235  O1237   1.399   .     S
O1237  H1238   1.014   .     S
C1239  O1241   1.399   .     S
C1239  O1240   1.223   .     D
O1241  H1242   1.014   .     S
C1243  O1244   1.222   .     D
C1243  O1245   1.397   .     S
O1245  H1246   1.014   .     S
C1247  O1249   1.397   .     S
C1247  O1248   1.222   .     D
O1249  H1250   1.014   .     S
C1251  O1279   1.294   .     A
C1251  C1262   1.446   .     S
C1251  O1277   1.293   .     A
C1252  O1280   1.294   .     A
C1252  C1261   1.446   .     S
C1252  O1278   1.293   .     A
C1253  O1281   1.288   .     A
C1253  O1283   1.295   .     A
C1253  C1255   1.435   .     S
C1254  O1282   1.288   .     A
C1254  O1284   1.295   .     A
C1254  C1256   1.435   .     S
C1256  C1305   1.338   .     S
C1256  H1320   1.087   .     S
C1257  C1262   1.398   .     A
C1257  H1271   1.085   .     S
C1258  H1272   1.085   .     S
C1258  C1261   1.398   .     A
C1258  C960    1.390   1_565 S
C1259  C1261   1.413   .     A
C1259  C1285   1.486   .     S
C1259  C957    1.390   1_565 S
C1260  C1262   1.413   .     A
C1260  C1289   1.486   .     S
C1263  N1276   1.382   .     A
C1263  C1293   1.468   .     S
C1264  C1297   1.468   .     S
C1264  N1275   1.382   .     A
C1264  C366    1.417   1_556 S
C1265  H1273   1.082   .     S
C1265  N1275   1.359   .     A
C1265  C363    1.417   1_556 S
C1266  H1274   1.082   .     S
C1266  N1276   1.359   .     A
Cu1267 N1275   2.023   .     S
Cu1267 Cu1268  2.692   .     S
Cu1267 O1280   1.958   .     S
Cu1267 O1281   1.952   .     S
Cu1267 O1284   1.957   .     S
Cu1267 O1277   1.954   .     S
Cu1268 N1276   2.023   .     S
Cu1268 O1279   1.958   .     S
Cu1268 O1283   1.957   .     S
Cu1268 O1282   1.952   .     S
Cu1268 O1278   1.954   .     S
H1269  C1305   1.087   .     S
C1285  O1286   1.223   .     D
C1285  O1287   1.399   .     S
O1287  H1288   1.014   .     S
C1289  O1291   1.399   .     S
C1289  O1290   1.223   .     D
O1291  H1292   1.014   .     S
C1293  O1294   1.222   .     D
C1293  O1295   1.397   .     S
O1295  H1296   1.014   .     S
C1297  O1299   1.397   .     S
C1297  O1298   1.222   .     D
O1299  H1300   1.014   .     S
C1301  O1329   1.294   .     A
C1301  C1312   1.446   .     S
C1301  O1327   1.293   .     A
C1302  O1330   1.294   .     A
C1302  C1311   1.446   .     S
C1302  O1328   1.293   .     A
C1303  O1331   1.288   .     A
C1303  O1333   1.295   .     A
C1303  C1305   1.435   .     S
C1304  O1332   1.288   .     A
C1304  O1334   1.295   .     A
C1304  C1306   1.435   .     S
C1306  C1205   1.338   1_655 S
C1306  H1220   1.087   1_655 S
C1307  C1312   1.398   .     A
C1307  H1321   1.085   .     S
C1308  H1322   1.085   .     S
C1308  C1311   1.398   .     A
C1308  C1010   1.390   1_565 S
C1309  C1311   1.413   .     A
C1309  C1335   1.486   .     S
C1309  C1007   1.390   1_565 S
C1310  C1312   1.413   .     A
C1310  C1339   1.486   .     S
C1313  N1326   1.382   .     A
C1313  C1343   1.468   .     S
C1314  C1347   1.468   .     S
C1314  N1325   1.382   .     A
C1314  C416    1.417   1_556 S
C1315  H1323   1.082   .     S
C1315  N1325   1.359   .     A
C1315  C413    1.417   1_556 S
C1316  H1324   1.082   .     S
C1316  N1326   1.359   .     A
Cu1317 N1325   2.023   .     S
Cu1317 Cu1318  2.692   .     S
Cu1317 O1330   1.958   .     S
Cu1317 O1331   1.952   .     S
Cu1317 O1334   1.957   .     S
Cu1317 O1327   1.954   .     S
Cu1318 N1326   2.023   .     S
Cu1318 O1329   1.958   .     S
Cu1318 O1333   1.957   .     S
Cu1318 O1332   1.952   .     S
Cu1318 O1328   1.954   .     S
H1319  C1205   1.087   1_655 S
C1335  O1336   1.223   .     D
C1335  O1337   1.399   .     S
O1337  H1338   1.014   .     S
C1339  O1341   1.399   .     S
C1339  O1340   1.223   .     D
O1341  H1342   1.014   .     S
C1343  O1344   1.222   .     D
C1343  O1345   1.397   .     S
O1345  H1346   1.014   .     S
C1347  O1349   1.397   .     S
C1347  O1348   1.222   .     D
O1349  H1350   1.014   .     S
