data_str_m2_o10_o18_pcu_sym.131
_audit_creation_date              2020-01-03
_audit_creation_method            'Materials Studio'
_symmetry_space_group_name_H-M    'P1'
_symmetry_Int_Tables_number       1
_symmetry_cell_setting            triclinic
loop_
_symmetry_equiv_pos_as_xyz
  x,y,z
_cell_length_a                    22.2659
_cell_length_b                    26.0900
_cell_length_c                    31.6621
_cell_angle_alpha                 94.2783
_cell_angle_beta                  74.4511
_cell_angle_gamma                 103.2499
loop_
_atom_site_label
_atom_site_type_symbol
_atom_site_fract_x
_atom_site_fract_y
_atom_site_fract_z
_atom_site_U_iso_or_equiv
_atom_site_adp_type
_atom_site_occupancy
O1     O     0.12815   0.23809   0.24686   0.00000  Uiso   1.00
O2     O     0.20518   0.09524   0.25314   0.00000  Uiso   1.00
O3     O     0.22829   0.24753   0.25502   0.00000  Uiso   1.00
O4     O     0.10504   0.08580   0.24497   0.00000  Uiso   1.00
C5     C     0.18172   0.26674   0.25130   0.00000  Uiso   1.00
C6     C     0.15161   0.06660   0.24870   0.00000  Uiso   1.00
O7     O     0.08851   0.15930   0.30854   0.00000  Uiso   1.00
O8     O     0.24482   0.17403   0.19145   0.00000  Uiso   1.00
O9     O     0.18866   0.16874   0.31671   0.00000  Uiso   1.00
O10    O     0.14468   0.16460   0.18329   0.00000  Uiso   1.00
C11    C     0.12735   0.16265   0.33336   0.00000  Uiso   1.00
C12    C     0.20598   0.17068   0.16664   0.00000  Uiso   1.00
Cu13   Cu    0.10737   0.16108   0.24516   0.00000  Uiso   1.00
Cu14   Cu    0.22596   0.17225   0.25483   0.00000  Uiso   1.00
C15    C     0.10236   0.15691   0.38147   0.00000  Uiso   1.00
C16    C     0.23098   0.17642   0.11853   0.00000  Uiso   1.00
C17    C     0.02295   0.11843   0.44616   0.00000  Uiso   1.00
C18    C     0.31038   0.21490   0.05384   0.00000  Uiso   1.00
C19    C     0.03907   0.13100   0.40181   0.00000  Uiso   1.00
C20    C     0.29427   0.20233   0.09819   0.00000  Uiso   1.00
C21    C     0.14623   0.17301   0.40701   0.00000  Uiso   1.00
C22    C     0.18711   0.16032   0.09299   0.00000  Uiso   1.00
C23    C     0.13064   0.16088   0.45178   0.00000  Uiso   1.00
C24    C     0.20269   0.17246   0.04822   0.00000  Uiso   1.00
C25    C     0.06810   0.13219   0.47083   0.00000  Uiso   1.00
C26    C     0.26524   0.20114   0.02917   0.00000  Uiso   1.00
C27    C     0.17578   0.17485   0.47772   0.00000  Uiso   1.00
C28    C     0.15755   0.15848   0.02228   0.00000  Uiso   1.00
C29    C     0.09480   0.12882   0.03935   0.00000  Uiso   1.00
C30    C     0.23853   0.20452   0.46065   0.00000  Uiso   1.00
C31    C     0.05102   0.11665   0.01424   0.00000  Uiso   1.00
C32    C     0.28231   0.21669   0.48576   0.00000  Uiso   1.00
H33    H     0.00333   0.09428   0.02895   0.00000  Uiso   1.00
H34    H     0.33000   0.23905   0.47105   0.00000  Uiso   1.00
H35    H     0.14004   0.13971   0.10959   0.00000  Uiso   1.00
H36    H     0.19330   0.19363   0.39041   0.00000  Uiso   1.00
H37    H     0.30804   0.09758   0.46143   0.00000  Uiso   1.00
H38    H     0.02529   0.23576   0.03857   0.00000  Uiso   1.00
H39    H     0.07741   0.11373   0.07208   0.00000  Uiso   1.00
H40    H     0.25592   0.21960   0.42792   0.00000  Uiso   1.00
C41    C     0.19019   0.32271   0.25194   0.00000  Uiso   1.00
C42    C     0.14314   0.01063   0.24806   0.00000  Uiso   1.00
H43    H     0.23551   0.01321   0.25561   0.00000  Uiso   1.00
H44    H     0.09782   0.32013   0.24439   0.00000  Uiso   1.00
N45    N     0.31506   0.18068   0.26212   0.00000  Uiso   1.00
N46    N     0.01827   0.15265   0.23788   0.00000  Uiso   1.00
H47    H     0.00182   0.20599   0.28358   0.00000  Uiso   1.00
H48    H     0.33151   0.12734   0.21642   0.00000  Uiso   1.00
N49    N     0.00896   0.21749   0.12187   0.00000  Uiso   1.00
O50    O     0.02773   0.18133   0.13798   0.00000  Uiso   1.00
O51    O     0.04379   0.26516   0.11843   0.00000  Uiso   1.00
N52    N     0.32437   0.11585   0.37813   0.00000  Uiso   1.00
O53    O     0.30561   0.15200   0.36202   0.00000  Uiso   1.00
O54    O     0.28954   0.06818   0.38157   0.00000  Uiso   1.00
O55    O     0.46148   0.23809   0.24686   0.00000  Uiso   1.00
O56    O     0.53852   0.09524   0.25314   0.00000  Uiso   1.00
O57    O     0.56163   0.24753   0.25502   0.00000  Uiso   1.00
O58    O     0.43837   0.08580   0.24497   0.00000  Uiso   1.00
C59    C     0.51505   0.26674   0.25130   0.00000  Uiso   1.00
C60    C     0.48495   0.06660   0.24870   0.00000  Uiso   1.00
O61    O     0.42185   0.15930   0.30854   0.00000  Uiso   1.00
O62    O     0.57815   0.17403   0.19145   0.00000  Uiso   1.00
O63    O     0.52199   0.16874   0.31671   0.00000  Uiso   1.00
O64    O     0.47801   0.16460   0.18329   0.00000  Uiso   1.00
C65    C     0.46069   0.16265   0.33336   0.00000  Uiso   1.00
C66    C     0.53931   0.17068   0.16664   0.00000  Uiso   1.00
Cu67   Cu    0.44071   0.16108   0.24516   0.00000  Uiso   1.00
Cu68   Cu    0.55929   0.17225   0.25483   0.00000  Uiso   1.00
C69    C     0.43569   0.15691   0.38147   0.00000  Uiso   1.00
C70    C     0.56431   0.17642   0.11853   0.00000  Uiso   1.00
C71    C     0.35629   0.11843   0.44616   0.00000  Uiso   1.00
C72    C     0.64371   0.21490   0.05384   0.00000  Uiso   1.00
C73    C     0.37240   0.13100   0.40181   0.00000  Uiso   1.00
C74    C     0.62760   0.20233   0.09819   0.00000  Uiso   1.00
C75    C     0.47956   0.17301   0.40701   0.00000  Uiso   1.00
C76    C     0.52044   0.16032   0.09299   0.00000  Uiso   1.00
C77    C     0.46398   0.16088   0.45178   0.00000  Uiso   1.00
C78    C     0.53602   0.17246   0.04822   0.00000  Uiso   1.00
C79    C     0.40143   0.13219   0.47083   0.00000  Uiso   1.00
C80    C     0.59857   0.20114   0.02917   0.00000  Uiso   1.00
C81    C     0.50912   0.17485   0.47772   0.00000  Uiso   1.00
C82    C     0.49088   0.15848   0.02228   0.00000  Uiso   1.00
C83    C     0.42814   0.12882   0.03935   0.00000  Uiso   1.00
C84    C     0.57186   0.20452   0.46065   0.00000  Uiso   1.00
C85    C     0.38436   0.11665   0.01424   0.00000  Uiso   1.00
C86    C     0.61564   0.21669   0.48576   0.00000  Uiso   1.00
H87    H     0.33666   0.09428   0.02895   0.00000  Uiso   1.00
H88    H     0.66334   0.23905   0.47105   0.00000  Uiso   1.00
H89    H     0.47337   0.13971   0.10959   0.00000  Uiso   1.00
H90    H     0.52663   0.19363   0.39041   0.00000  Uiso   1.00
H91    H     0.64137   0.09758   0.46143   0.00000  Uiso   1.00
H92    H     0.35863   0.23576   0.03857   0.00000  Uiso   1.00
H93    H     0.41075   0.11373   0.07208   0.00000  Uiso   1.00
H94    H     0.58925   0.21960   0.42792   0.00000  Uiso   1.00
C95    C     0.52352   0.32271   0.25194   0.00000  Uiso   1.00
C96    C     0.47648   0.01063   0.24806   0.00000  Uiso   1.00
H97    H     0.56885   0.01321   0.25561   0.00000  Uiso   1.00
H98    H     0.43115   0.32013   0.24439   0.00000  Uiso   1.00
N99    N     0.64839   0.18068   0.26212   0.00000  Uiso   1.00
N100   N     0.35161   0.15265   0.23788   0.00000  Uiso   1.00
H101   H     0.33516   0.20599   0.28358   0.00000  Uiso   1.00
H102   H     0.66484   0.12734   0.21642   0.00000  Uiso   1.00
N103   N     0.34230   0.21749   0.12187   0.00000  Uiso   1.00
O104   O     0.36106   0.18133   0.13798   0.00000  Uiso   1.00
O105   O     0.37712   0.26516   0.11843   0.00000  Uiso   1.00
N106   N     0.65770   0.11585   0.37813   0.00000  Uiso   1.00
O107   O     0.63894   0.15200   0.36202   0.00000  Uiso   1.00
O108   O     0.62288   0.06818   0.38157   0.00000  Uiso   1.00
O109   O     0.79482   0.23809   0.24686   0.00000  Uiso   1.00
O110   O     0.87185   0.09524   0.25314   0.00000  Uiso   1.00
O111   O     0.89496   0.24753   0.25502   0.00000  Uiso   1.00
O112   O     0.77171   0.08580   0.24497   0.00000  Uiso   1.00
C113   C     0.84839   0.26674   0.25130   0.00000  Uiso   1.00
C114   C     0.81828   0.06660   0.24870   0.00000  Uiso   1.00
O115   O     0.75518   0.15930   0.30854   0.00000  Uiso   1.00
O116   O     0.91149   0.17403   0.19145   0.00000  Uiso   1.00
O117   O     0.85532   0.16874   0.31671   0.00000  Uiso   1.00
O118   O     0.81134   0.16460   0.18329   0.00000  Uiso   1.00
C119   C     0.79402   0.16265   0.33336   0.00000  Uiso   1.00
C120   C     0.87265   0.17068   0.16664   0.00000  Uiso   1.00
Cu121  Cu    0.77404   0.16108   0.24516   0.00000  Uiso   1.00
Cu122  Cu    0.89263   0.17225   0.25483   0.00000  Uiso   1.00
C123   C     0.76902   0.15691   0.38147   0.00000  Uiso   1.00
C124   C     0.89764   0.17642   0.11853   0.00000  Uiso   1.00
C125   C     0.68962   0.11843   0.44616   0.00000  Uiso   1.00
C126   C     0.97705   0.21490   0.05384   0.00000  Uiso   1.00
C127   C     0.70573   0.13100   0.40181   0.00000  Uiso   1.00
C128   C     0.96093   0.20233   0.09819   0.00000  Uiso   1.00
C129   C     0.81289   0.17301   0.40701   0.00000  Uiso   1.00
C130   C     0.85377   0.16032   0.09299   0.00000  Uiso   1.00
C131   C     0.79731   0.16088   0.45178   0.00000  Uiso   1.00
C132   C     0.86936   0.17246   0.04822   0.00000  Uiso   1.00
C133   C     0.73476   0.13219   0.47083   0.00000  Uiso   1.00
C134   C     0.93190   0.20114   0.02917   0.00000  Uiso   1.00
C135   C     0.84245   0.17485   0.47772   0.00000  Uiso   1.00
C136   C     0.82422   0.15848   0.02228   0.00000  Uiso   1.00
C137   C     0.76147   0.12882   0.03935   0.00000  Uiso   1.00
C138   C     0.90520   0.20452   0.46065   0.00000  Uiso   1.00
C139   C     0.71769   0.11665   0.01424   0.00000  Uiso   1.00
C140   C     0.94898   0.21669   0.48576   0.00000  Uiso   1.00
H141   H     0.67000   0.09428   0.02895   0.00000  Uiso   1.00
H142   H     0.99667   0.23905   0.47105   0.00000  Uiso   1.00
H143   H     0.80670   0.13971   0.10959   0.00000  Uiso   1.00
H144   H     0.85996   0.19363   0.39041   0.00000  Uiso   1.00
H145   H     0.97471   0.09758   0.46143   0.00000  Uiso   1.00
H146   H     0.69196   0.23576   0.03857   0.00000  Uiso   1.00
H147   H     0.74408   0.11373   0.07208   0.00000  Uiso   1.00
H148   H     0.92259   0.21960   0.42792   0.00000  Uiso   1.00
C149   C     0.85686   0.32271   0.25194   0.00000  Uiso   1.00
C150   C     0.80981   0.01063   0.24806   0.00000  Uiso   1.00
H151   H     0.90218   0.01321   0.25561   0.00000  Uiso   1.00
H152   H     0.76449   0.32013   0.24439   0.00000  Uiso   1.00
N153   N     0.98173   0.18068   0.26212   0.00000  Uiso   1.00
N154   N     0.68494   0.15265   0.23788   0.00000  Uiso   1.00
H155   H     0.66849   0.20599   0.28358   0.00000  Uiso   1.00
H156   H     0.99818   0.12734   0.21642   0.00000  Uiso   1.00
N157   N     0.67563   0.21749   0.12187   0.00000  Uiso   1.00
O158   O     0.69439   0.18133   0.13798   0.00000  Uiso   1.00
O159   O     0.71046   0.26516   0.11843   0.00000  Uiso   1.00
N160   N     0.99104   0.11585   0.37813   0.00000  Uiso   1.00
O161   O     0.97227   0.15200   0.36202   0.00000  Uiso   1.00
O162   O     0.95621   0.06818   0.38157   0.00000  Uiso   1.00
O163   O     0.12815   0.57142   0.24686   0.00000  Uiso   1.00
O164   O     0.20518   0.42858   0.25314   0.00000  Uiso   1.00
O165   O     0.22829   0.58086   0.25502   0.00000  Uiso   1.00
O166   O     0.10504   0.41914   0.24497   0.00000  Uiso   1.00
C167   C     0.18172   0.60007   0.25130   0.00000  Uiso   1.00
C168   C     0.15161   0.39993   0.24870   0.00000  Uiso   1.00
O169   O     0.08851   0.49263   0.30854   0.00000  Uiso   1.00
O170   O     0.24482   0.50737   0.19145   0.00000  Uiso   1.00
O171   O     0.18866   0.50207   0.31671   0.00000  Uiso   1.00
O172   O     0.14468   0.49793   0.18329   0.00000  Uiso   1.00
C173   C     0.12735   0.49599   0.33336   0.00000  Uiso   1.00
C174   C     0.20598   0.50401   0.16664   0.00000  Uiso   1.00
Cu175  Cu    0.10737   0.49441   0.24516   0.00000  Uiso   1.00
Cu176  Cu    0.22596   0.50559   0.25483   0.00000  Uiso   1.00
C177   C     0.10236   0.49024   0.38147   0.00000  Uiso   1.00
C178   C     0.23098   0.50976   0.11853   0.00000  Uiso   1.00
C179   C     0.02295   0.45177   0.44616   0.00000  Uiso   1.00
C180   C     0.31038   0.54823   0.05384   0.00000  Uiso   1.00
C181   C     0.03907   0.46433   0.40181   0.00000  Uiso   1.00
C182   C     0.29427   0.53567   0.09819   0.00000  Uiso   1.00
C183   C     0.14623   0.50635   0.40701   0.00000  Uiso   1.00
C184   C     0.18711   0.49365   0.09299   0.00000  Uiso   1.00
C185   C     0.13064   0.49421   0.45178   0.00000  Uiso   1.00
C186   C     0.20269   0.50579   0.04822   0.00000  Uiso   1.00
C187   C     0.06810   0.46553   0.47083   0.00000  Uiso   1.00
C188   C     0.26524   0.53447   0.02917   0.00000  Uiso   1.00
C189   C     0.17578   0.50819   0.47772   0.00000  Uiso   1.00
C190   C     0.15755   0.49181   0.02228   0.00000  Uiso   1.00
C191   C     0.09480   0.46215   0.03935   0.00000  Uiso   1.00
C192   C     0.23853   0.53785   0.46065   0.00000  Uiso   1.00
C193   C     0.05102   0.44998   0.01424   0.00000  Uiso   1.00
C194   C     0.28231   0.55002   0.48576   0.00000  Uiso   1.00
H195   H     0.00333   0.42762   0.02895   0.00000  Uiso   1.00
H196   H     0.33000   0.57238   0.47105   0.00000  Uiso   1.00
H197   H     0.14004   0.47304   0.10959   0.00000  Uiso   1.00
H198   H     0.19330   0.52696   0.39041   0.00000  Uiso   1.00
H199   H     0.30804   0.43091   0.46143   0.00000  Uiso   1.00
H200   H     0.02529   0.56909   0.03857   0.00000  Uiso   1.00
H201   H     0.07741   0.44706   0.07208   0.00000  Uiso   1.00
H202   H     0.25592   0.55294   0.42792   0.00000  Uiso   1.00
C203   C     0.19019   0.65604   0.25194   0.00000  Uiso   1.00
C204   C     0.14314   0.34396   0.24806   0.00000  Uiso   1.00
H205   H     0.23551   0.34654   0.25561   0.00000  Uiso   1.00
H206   H     0.09782   0.65346   0.24439   0.00000  Uiso   1.00
N207   N     0.31506   0.51401   0.26212   0.00000  Uiso   1.00
N208   N     0.01827   0.48599   0.23788   0.00000  Uiso   1.00
H209   H     0.00182   0.53932   0.28358   0.00000  Uiso   1.00
H210   H     0.33151   0.46068   0.21642   0.00000  Uiso   1.00
N211   N     0.00896   0.55082   0.12187   0.00000  Uiso   1.00
O212   O     0.02773   0.51466   0.13798   0.00000  Uiso   1.00
O213   O     0.04379   0.59849   0.11843   0.00000  Uiso   1.00
N214   N     0.32437   0.44918   0.37813   0.00000  Uiso   1.00
O215   O     0.30561   0.48534   0.36202   0.00000  Uiso   1.00
O216   O     0.28954   0.40151   0.38157   0.00000  Uiso   1.00
O217   O     0.46148   0.57142   0.24686   0.00000  Uiso   1.00
O218   O     0.53852   0.42858   0.25314   0.00000  Uiso   1.00
O219   O     0.56163   0.58086   0.25502   0.00000  Uiso   1.00
O220   O     0.43837   0.41914   0.24497   0.00000  Uiso   1.00
C221   C     0.51505   0.60007   0.25130   0.00000  Uiso   1.00
C222   C     0.48495   0.39993   0.24870   0.00000  Uiso   1.00
O223   O     0.42185   0.49263   0.30854   0.00000  Uiso   1.00
O224   O     0.57815   0.50737   0.19145   0.00000  Uiso   1.00
O225   O     0.52199   0.50207   0.31671   0.00000  Uiso   1.00
O226   O     0.47801   0.49793   0.18329   0.00000  Uiso   1.00
C227   C     0.46069   0.49599   0.33336   0.00000  Uiso   1.00
C228   C     0.53931   0.50401   0.16664   0.00000  Uiso   1.00
Cu229  Cu    0.44071   0.49441   0.24516   0.00000  Uiso   1.00
Cu230  Cu    0.55929   0.50559   0.25483   0.00000  Uiso   1.00
C231   C     0.43569   0.49024   0.38147   0.00000  Uiso   1.00
C232   C     0.56431   0.50976   0.11853   0.00000  Uiso   1.00
C233   C     0.35629   0.45177   0.44616   0.00000  Uiso   1.00
C234   C     0.64371   0.54823   0.05384   0.00000  Uiso   1.00
C235   C     0.37240   0.46433   0.40181   0.00000  Uiso   1.00
C236   C     0.62760   0.53567   0.09819   0.00000  Uiso   1.00
C237   C     0.47956   0.50635   0.40701   0.00000  Uiso   1.00
C238   C     0.52044   0.49365   0.09299   0.00000  Uiso   1.00
C239   C     0.46398   0.49421   0.45178   0.00000  Uiso   1.00
C240   C     0.53602   0.50579   0.04822   0.00000  Uiso   1.00
C241   C     0.40143   0.46553   0.47083   0.00000  Uiso   1.00
C242   C     0.59857   0.53447   0.02917   0.00000  Uiso   1.00
C243   C     0.50912   0.50819   0.47772   0.00000  Uiso   1.00
C244   C     0.49088   0.49181   0.02228   0.00000  Uiso   1.00
C245   C     0.42814   0.46215   0.03935   0.00000  Uiso   1.00
C246   C     0.57186   0.53785   0.46065   0.00000  Uiso   1.00
C247   C     0.38436   0.44998   0.01424   0.00000  Uiso   1.00
C248   C     0.61564   0.55002   0.48576   0.00000  Uiso   1.00
H249   H     0.33666   0.42762   0.02895   0.00000  Uiso   1.00
H250   H     0.66334   0.57238   0.47105   0.00000  Uiso   1.00
H251   H     0.47337   0.47304   0.10959   0.00000  Uiso   1.00
H252   H     0.52663   0.52696   0.39041   0.00000  Uiso   1.00
H253   H     0.64137   0.43091   0.46143   0.00000  Uiso   1.00
H254   H     0.35863   0.56909   0.03857   0.00000  Uiso   1.00
H255   H     0.41075   0.44706   0.07208   0.00000  Uiso   1.00
H256   H     0.58925   0.55294   0.42792   0.00000  Uiso   1.00
C257   C     0.52352   0.65604   0.25194   0.00000  Uiso   1.00
C258   C     0.47648   0.34396   0.24806   0.00000  Uiso   1.00
H259   H     0.56885   0.34654   0.25561   0.00000  Uiso   1.00
H260   H     0.43115   0.65346   0.24439   0.00000  Uiso   1.00
N261   N     0.64839   0.51401   0.26212   0.00000  Uiso   1.00
N262   N     0.35161   0.48599   0.23788   0.00000  Uiso   1.00
H263   H     0.33516   0.53932   0.28358   0.00000  Uiso   1.00
H264   H     0.66484   0.46068   0.21642   0.00000  Uiso   1.00
N265   N     0.34230   0.55082   0.12187   0.00000  Uiso   1.00
O266   O     0.36106   0.51466   0.13798   0.00000  Uiso   1.00
O267   O     0.37712   0.59849   0.11843   0.00000  Uiso   1.00
N268   N     0.65770   0.44918   0.37813   0.00000  Uiso   1.00
O269   O     0.63894   0.48534   0.36202   0.00000  Uiso   1.00
O270   O     0.62288   0.40151   0.38157   0.00000  Uiso   1.00
O271   O     0.79482   0.57142   0.24686   0.00000  Uiso   1.00
O272   O     0.87185   0.42858   0.25314   0.00000  Uiso   1.00
O273   O     0.89496   0.58086   0.25502   0.00000  Uiso   1.00
O274   O     0.77171   0.41914   0.24497   0.00000  Uiso   1.00
C275   C     0.84839   0.60007   0.25130   0.00000  Uiso   1.00
C276   C     0.81828   0.39993   0.24870   0.00000  Uiso   1.00
O277   O     0.75518   0.49263   0.30854   0.00000  Uiso   1.00
O278   O     0.91149   0.50737   0.19145   0.00000  Uiso   1.00
O279   O     0.85532   0.50207   0.31671   0.00000  Uiso   1.00
O280   O     0.81134   0.49793   0.18329   0.00000  Uiso   1.00
C281   C     0.79402   0.49599   0.33336   0.00000  Uiso   1.00
C282   C     0.87265   0.50401   0.16664   0.00000  Uiso   1.00
Cu283  Cu    0.77404   0.49441   0.24516   0.00000  Uiso   1.00
Cu284  Cu    0.89263   0.50559   0.25483   0.00000  Uiso   1.00
C285   C     0.76902   0.49024   0.38147   0.00000  Uiso   1.00
C286   C     0.89764   0.50976   0.11853   0.00000  Uiso   1.00
C287   C     0.68962   0.45177   0.44616   0.00000  Uiso   1.00
C288   C     0.97705   0.54823   0.05384   0.00000  Uiso   1.00
C289   C     0.70573   0.46433   0.40181   0.00000  Uiso   1.00
C290   C     0.96093   0.53567   0.09819   0.00000  Uiso   1.00
C291   C     0.81289   0.50635   0.40701   0.00000  Uiso   1.00
C292   C     0.85377   0.49365   0.09299   0.00000  Uiso   1.00
C293   C     0.79731   0.49421   0.45178   0.00000  Uiso   1.00
C294   C     0.86936   0.50579   0.04822   0.00000  Uiso   1.00
C295   C     0.73476   0.46553   0.47083   0.00000  Uiso   1.00
C296   C     0.93190   0.53447   0.02917   0.00000  Uiso   1.00
C297   C     0.84245   0.50819   0.47772   0.00000  Uiso   1.00
C298   C     0.82422   0.49181   0.02228   0.00000  Uiso   1.00
C299   C     0.76147   0.46215   0.03935   0.00000  Uiso   1.00
C300   C     0.90520   0.53785   0.46065   0.00000  Uiso   1.00
C301   C     0.71769   0.44998   0.01424   0.00000  Uiso   1.00
C302   C     0.94898   0.55002   0.48576   0.00000  Uiso   1.00
H303   H     0.67000   0.42762   0.02895   0.00000  Uiso   1.00
H304   H     0.99667   0.57238   0.47105   0.00000  Uiso   1.00
H305   H     0.80670   0.47304   0.10959   0.00000  Uiso   1.00
H306   H     0.85996   0.52696   0.39041   0.00000  Uiso   1.00
H307   H     0.97471   0.43091   0.46143   0.00000  Uiso   1.00
H308   H     0.69196   0.56909   0.03857   0.00000  Uiso   1.00
H309   H     0.74408   0.44706   0.07208   0.00000  Uiso   1.00
H310   H     0.92259   0.55294   0.42792   0.00000  Uiso   1.00
C311   C     0.85686   0.65604   0.25194   0.00000  Uiso   1.00
C312   C     0.80981   0.34396   0.24806   0.00000  Uiso   1.00
H313   H     0.90218   0.34654   0.25561   0.00000  Uiso   1.00
H314   H     0.76449   0.65346   0.24439   0.00000  Uiso   1.00
N315   N     0.98173   0.51401   0.26212   0.00000  Uiso   1.00
N316   N     0.68494   0.48599   0.23788   0.00000  Uiso   1.00
H317   H     0.66849   0.53932   0.28358   0.00000  Uiso   1.00
H318   H     0.99818   0.46068   0.21642   0.00000  Uiso   1.00
N319   N     0.67563   0.55082   0.12187   0.00000  Uiso   1.00
O320   O     0.69439   0.51466   0.13798   0.00000  Uiso   1.00
O321   O     0.71046   0.59849   0.11843   0.00000  Uiso   1.00
N322   N     0.99104   0.44918   0.37813   0.00000  Uiso   1.00
O323   O     0.97227   0.48534   0.36202   0.00000  Uiso   1.00
O324   O     0.95621   0.40151   0.38157   0.00000  Uiso   1.00
O325   O     0.12815   0.90476   0.24686   0.00000  Uiso   1.00
O326   O     0.20518   0.76191   0.25314   0.00000  Uiso   1.00
O327   O     0.22829   0.91420   0.25502   0.00000  Uiso   1.00
O328   O     0.10504   0.75247   0.24497   0.00000  Uiso   1.00
C329   C     0.18172   0.93340   0.25130   0.00000  Uiso   1.00
C330   C     0.15161   0.73326   0.24870   0.00000  Uiso   1.00
O331   O     0.08851   0.82597   0.30854   0.00000  Uiso   1.00
O332   O     0.24482   0.84070   0.19145   0.00000  Uiso   1.00
O333   O     0.18866   0.83540   0.31671   0.00000  Uiso   1.00
O334   O     0.14468   0.83126   0.18329   0.00000  Uiso   1.00
C335   C     0.12735   0.82932   0.33336   0.00000  Uiso   1.00
C336   C     0.20598   0.83735   0.16664   0.00000  Uiso   1.00
Cu337  Cu    0.10737   0.82775   0.24516   0.00000  Uiso   1.00
Cu338  Cu    0.22596   0.83892   0.25483   0.00000  Uiso   1.00
C339   C     0.10236   0.82358   0.38147   0.00000  Uiso   1.00
C340   C     0.23098   0.84309   0.11853   0.00000  Uiso   1.00
C341   C     0.02295   0.78510   0.44616   0.00000  Uiso   1.00
C342   C     0.31038   0.88157   0.05384   0.00000  Uiso   1.00
C343   C     0.03907   0.79767   0.40181   0.00000  Uiso   1.00
C344   C     0.29427   0.86900   0.09819   0.00000  Uiso   1.00
C345   C     0.14623   0.83968   0.40701   0.00000  Uiso   1.00
C346   C     0.18711   0.82699   0.09299   0.00000  Uiso   1.00
C347   C     0.13064   0.82754   0.45178   0.00000  Uiso   1.00
C348   C     0.20269   0.83912   0.04822   0.00000  Uiso   1.00
C349   C     0.06810   0.79886   0.47083   0.00000  Uiso   1.00
C350   C     0.26524   0.86781   0.02917   0.00000  Uiso   1.00
C351   C     0.17578   0.84152   0.47772   0.00000  Uiso   1.00
C352   C     0.15755   0.82515   0.02228   0.00000  Uiso   1.00
C353   C     0.09480   0.79548   0.03935   0.00000  Uiso   1.00
C354   C     0.23853   0.87118   0.46065   0.00000  Uiso   1.00
C355   C     0.05102   0.78331   0.01424   0.00000  Uiso   1.00
C356   C     0.28231   0.88335   0.48576   0.00000  Uiso   1.00
H357   H     0.00333   0.76095   0.02895   0.00000  Uiso   1.00
H358   H     0.33000   0.90572   0.47105   0.00000  Uiso   1.00
H359   H     0.14004   0.80637   0.10959   0.00000  Uiso   1.00
H360   H     0.19330   0.86029   0.39041   0.00000  Uiso   1.00
H361   H     0.30804   0.76425   0.46143   0.00000  Uiso   1.00
H362   H     0.02529   0.90242   0.03857   0.00000  Uiso   1.00
H363   H     0.07741   0.78040   0.07208   0.00000  Uiso   1.00
H364   H     0.25592   0.88627   0.42792   0.00000  Uiso   1.00
C365   C     0.19019   0.98937   0.25194   0.00000  Uiso   1.00
C366   C     0.14314   0.67729   0.24806   0.00000  Uiso   1.00
H367   H     0.23551   0.67987   0.25561   0.00000  Uiso   1.00
H368   H     0.09782   0.98679   0.24439   0.00000  Uiso   1.00
N369   N     0.31506   0.84735   0.26212   0.00000  Uiso   1.00
N370   N     0.01827   0.81932   0.23788   0.00000  Uiso   1.00
H371   H     0.00182   0.87266   0.28358   0.00000  Uiso   1.00
H372   H     0.33151   0.79401   0.21642   0.00000  Uiso   1.00
N373   N     0.00896   0.88415   0.12187   0.00000  Uiso   1.00
O374   O     0.02773   0.84800   0.13798   0.00000  Uiso   1.00
O375   O     0.04379   0.93182   0.11843   0.00000  Uiso   1.00
N376   N     0.32437   0.78251   0.37813   0.00000  Uiso   1.00
O377   O     0.30561   0.81867   0.36202   0.00000  Uiso   1.00
O378   O     0.28954   0.73484   0.38157   0.00000  Uiso   1.00
O379   O     0.46148   0.90476   0.24686   0.00000  Uiso   1.00
O380   O     0.53852   0.76191   0.25314   0.00000  Uiso   1.00
O381   O     0.56163   0.91420   0.25502   0.00000  Uiso   1.00
O382   O     0.43837   0.75247   0.24497   0.00000  Uiso   1.00
C383   C     0.51505   0.93340   0.25130   0.00000  Uiso   1.00
C384   C     0.48495   0.73326   0.24870   0.00000  Uiso   1.00
O385   O     0.42185   0.82597   0.30854   0.00000  Uiso   1.00
O386   O     0.57815   0.84070   0.19145   0.00000  Uiso   1.00
O387   O     0.52199   0.83540   0.31671   0.00000  Uiso   1.00
O388   O     0.47801   0.83126   0.18329   0.00000  Uiso   1.00
C389   C     0.46069   0.82932   0.33336   0.00000  Uiso   1.00
C390   C     0.53931   0.83735   0.16664   0.00000  Uiso   1.00
Cu391  Cu    0.44071   0.82775   0.24516   0.00000  Uiso   1.00
Cu392  Cu    0.55929   0.83892   0.25483   0.00000  Uiso   1.00
C393   C     0.43569   0.82358   0.38147   0.00000  Uiso   1.00
C394   C     0.56431   0.84309   0.11853   0.00000  Uiso   1.00
C395   C     0.35629   0.78510   0.44616   0.00000  Uiso   1.00
C396   C     0.64371   0.88157   0.05384   0.00000  Uiso   1.00
C397   C     0.37240   0.79767   0.40181   0.00000  Uiso   1.00
C398   C     0.62760   0.86900   0.09819   0.00000  Uiso   1.00
C399   C     0.47956   0.83968   0.40701   0.00000  Uiso   1.00
C400   C     0.52044   0.82699   0.09299   0.00000  Uiso   1.00
C401   C     0.46398   0.82754   0.45178   0.00000  Uiso   1.00
C402   C     0.53602   0.83912   0.04822   0.00000  Uiso   1.00
C403   C     0.40143   0.79886   0.47083   0.00000  Uiso   1.00
C404   C     0.59857   0.86781   0.02917   0.00000  Uiso   1.00
C405   C     0.50912   0.84152   0.47772   0.00000  Uiso   1.00
C406   C     0.49088   0.82515   0.02228   0.00000  Uiso   1.00
C407   C     0.42814   0.79548   0.03935   0.00000  Uiso   1.00
C408   C     0.57186   0.87118   0.46065   0.00000  Uiso   1.00
C409   C     0.38436   0.78331   0.01424   0.00000  Uiso   1.00
C410   C     0.61564   0.88335   0.48576   0.00000  Uiso   1.00
H411   H     0.33666   0.76095   0.02895   0.00000  Uiso   1.00
H412   H     0.66334   0.90572   0.47105   0.00000  Uiso   1.00
H413   H     0.47337   0.80637   0.10959   0.00000  Uiso   1.00
H414   H     0.52663   0.86029   0.39041   0.00000  Uiso   1.00
H415   H     0.64137   0.76425   0.46143   0.00000  Uiso   1.00
H416   H     0.35863   0.90242   0.03857   0.00000  Uiso   1.00
H417   H     0.41075   0.78040   0.07208   0.00000  Uiso   1.00
H418   H     0.58925   0.88627   0.42792   0.00000  Uiso   1.00
C419   C     0.52352   0.98937   0.25194   0.00000  Uiso   1.00
C420   C     0.47648   0.67729   0.24806   0.00000  Uiso   1.00
H421   H     0.56885   0.67987   0.25561   0.00000  Uiso   1.00
H422   H     0.43115   0.98679   0.24439   0.00000  Uiso   1.00
N423   N     0.64839   0.84735   0.26212   0.00000  Uiso   1.00
N424   N     0.35161   0.81932   0.23788   0.00000  Uiso   1.00
H425   H     0.33516   0.87266   0.28358   0.00000  Uiso   1.00
H426   H     0.66484   0.79401   0.21642   0.00000  Uiso   1.00
N427   N     0.34230   0.88415   0.12187   0.00000  Uiso   1.00
O428   O     0.36106   0.84800   0.13798   0.00000  Uiso   1.00
O429   O     0.37712   0.93182   0.11843   0.00000  Uiso   1.00
N430   N     0.65770   0.78251   0.37813   0.00000  Uiso   1.00
O431   O     0.63894   0.81867   0.36202   0.00000  Uiso   1.00
O432   O     0.62288   0.73484   0.38157   0.00000  Uiso   1.00
O433   O     0.79482   0.90476   0.24686   0.00000  Uiso   1.00
O434   O     0.87185   0.76191   0.25314   0.00000  Uiso   1.00
O435   O     0.89496   0.91420   0.25502   0.00000  Uiso   1.00
O436   O     0.77171   0.75247   0.24497   0.00000  Uiso   1.00
C437   C     0.84839   0.93340   0.25130   0.00000  Uiso   1.00
C438   C     0.81828   0.73326   0.24870   0.00000  Uiso   1.00
O439   O     0.75518   0.82597   0.30854   0.00000  Uiso   1.00
O440   O     0.91149   0.84070   0.19145   0.00000  Uiso   1.00
O441   O     0.85532   0.83540   0.31671   0.00000  Uiso   1.00
O442   O     0.81134   0.83126   0.18329   0.00000  Uiso   1.00
C443   C     0.79402   0.82932   0.33336   0.00000  Uiso   1.00
C444   C     0.87265   0.83735   0.16664   0.00000  Uiso   1.00
Cu445  Cu    0.77404   0.82775   0.24516   0.00000  Uiso   1.00
Cu446  Cu    0.89263   0.83892   0.25483   0.00000  Uiso   1.00
C447   C     0.76902   0.82358   0.38147   0.00000  Uiso   1.00
C448   C     0.89764   0.84309   0.11853   0.00000  Uiso   1.00
C449   C     0.68962   0.78510   0.44616   0.00000  Uiso   1.00
C450   C     0.97705   0.88157   0.05384   0.00000  Uiso   1.00
C451   C     0.70573   0.79767   0.40181   0.00000  Uiso   1.00
C452   C     0.96093   0.86900   0.09819   0.00000  Uiso   1.00
C453   C     0.81289   0.83968   0.40701   0.00000  Uiso   1.00
C454   C     0.85377   0.82699   0.09299   0.00000  Uiso   1.00
C455   C     0.79731   0.82754   0.45178   0.00000  Uiso   1.00
C456   C     0.86936   0.83912   0.04822   0.00000  Uiso   1.00
C457   C     0.73476   0.79886   0.47083   0.00000  Uiso   1.00
C458   C     0.93190   0.86781   0.02917   0.00000  Uiso   1.00
C459   C     0.84245   0.84152   0.47772   0.00000  Uiso   1.00
C460   C     0.82422   0.82515   0.02228   0.00000  Uiso   1.00
C461   C     0.76147   0.79548   0.03935   0.00000  Uiso   1.00
C462   C     0.90520   0.87118   0.46065   0.00000  Uiso   1.00
C463   C     0.71769   0.78331   0.01424   0.00000  Uiso   1.00
C464   C     0.94898   0.88335   0.48576   0.00000  Uiso   1.00
H465   H     0.67000   0.76095   0.02895   0.00000  Uiso   1.00
H466   H     0.99667   0.90572   0.47105   0.00000  Uiso   1.00
H467   H     0.80670   0.80637   0.10959   0.00000  Uiso   1.00
H468   H     0.85996   0.86029   0.39041   0.00000  Uiso   1.00
H469   H     0.97471   0.76425   0.46143   0.00000  Uiso   1.00
H470   H     0.69196   0.90242   0.03857   0.00000  Uiso   1.00
H471   H     0.74408   0.78040   0.07208   0.00000  Uiso   1.00
H472   H     0.92259   0.88627   0.42792   0.00000  Uiso   1.00
C473   C     0.85686   0.98937   0.25194   0.00000  Uiso   1.00
C474   C     0.80981   0.67729   0.24806   0.00000  Uiso   1.00
H475   H     0.90218   0.67987   0.25561   0.00000  Uiso   1.00
H476   H     0.76449   0.98679   0.24439   0.00000  Uiso   1.00
N477   N     0.98173   0.84735   0.26212   0.00000  Uiso   1.00
N478   N     0.68494   0.81932   0.23788   0.00000  Uiso   1.00
H479   H     0.66849   0.87266   0.28358   0.00000  Uiso   1.00
H480   H     0.99818   0.79401   0.21642   0.00000  Uiso   1.00
N481   N     0.67563   0.88415   0.12187   0.00000  Uiso   1.00
O482   O     0.69439   0.84800   0.13798   0.00000  Uiso   1.00
O483   O     0.71046   0.93182   0.11843   0.00000  Uiso   1.00
N484   N     0.99104   0.78251   0.37813   0.00000  Uiso   1.00
O485   O     0.97227   0.81867   0.36202   0.00000  Uiso   1.00
O486   O     0.95621   0.73484   0.38157   0.00000  Uiso   1.00
O487   O     0.12815   0.23809   0.74686   0.00000  Uiso   1.00
O488   O     0.20518   0.09524   0.75314   0.00000  Uiso   1.00
O489   O     0.22829   0.24753   0.75502   0.00000  Uiso   1.00
O490   O     0.10504   0.08580   0.74497   0.00000  Uiso   1.00
C491   C     0.18172   0.26674   0.75130   0.00000  Uiso   1.00
C492   C     0.15161   0.06660   0.74870   0.00000  Uiso   1.00
O493   O     0.08851   0.15930   0.80854   0.00000  Uiso   1.00
O494   O     0.24482   0.17403   0.69145   0.00000  Uiso   1.00
O495   O     0.18866   0.16874   0.81671   0.00000  Uiso   1.00
O496   O     0.14468   0.16460   0.68329   0.00000  Uiso   1.00
C497   C     0.12735   0.16265   0.83336   0.00000  Uiso   1.00
C498   C     0.20598   0.17068   0.66664   0.00000  Uiso   1.00
Cu499  Cu    0.10737   0.16108   0.74516   0.00000  Uiso   1.00
Cu500  Cu    0.22596   0.17225   0.75483   0.00000  Uiso   1.00
C501   C     0.10236   0.15691   0.88147   0.00000  Uiso   1.00
C502   C     0.23098   0.17642   0.61853   0.00000  Uiso   1.00
C503   C     0.02295   0.11843   0.94616   0.00000  Uiso   1.00
C504   C     0.31038   0.21490   0.55384   0.00000  Uiso   1.00
C505   C     0.03907   0.13100   0.90181   0.00000  Uiso   1.00
C506   C     0.29427   0.20233   0.59819   0.00000  Uiso   1.00
C507   C     0.14623   0.17301   0.90701   0.00000  Uiso   1.00
C508   C     0.18711   0.16032   0.59299   0.00000  Uiso   1.00
C509   C     0.13064   0.16088   0.95178   0.00000  Uiso   1.00
C510   C     0.20269   0.17246   0.54822   0.00000  Uiso   1.00
C511   C     0.06810   0.13219   0.97083   0.00000  Uiso   1.00
C512   C     0.26524   0.20114   0.52917   0.00000  Uiso   1.00
C513   C     0.17578   0.17485   0.97772   0.00000  Uiso   1.00
C514   C     0.15755   0.15848   0.52228   0.00000  Uiso   1.00
C515   C     0.09480   0.12882   0.53935   0.00000  Uiso   1.00
C516   C     0.23853   0.20452   0.96065   0.00000  Uiso   1.00
C517   C     0.05102   0.11665   0.51424   0.00000  Uiso   1.00
C518   C     0.28231   0.21669   0.98576   0.00000  Uiso   1.00
H519   H     0.00333   0.09428   0.52895   0.00000  Uiso   1.00
H520   H     0.33000   0.23905   0.97105   0.00000  Uiso   1.00
H521   H     0.14004   0.13971   0.60959   0.00000  Uiso   1.00
H522   H     0.19330   0.19363   0.89041   0.00000  Uiso   1.00
H523   H     0.30804   0.09758   0.96143   0.00000  Uiso   1.00
H524   H     0.02529   0.23576   0.53857   0.00000  Uiso   1.00
H525   H     0.07741   0.11373   0.57208   0.00000  Uiso   1.00
H526   H     0.25592   0.21960   0.92792   0.00000  Uiso   1.00
C527   C     0.19019   0.32271   0.75194   0.00000  Uiso   1.00
C528   C     0.14314   0.01063   0.74806   0.00000  Uiso   1.00
H529   H     0.23551   0.01321   0.75561   0.00000  Uiso   1.00
H530   H     0.09782   0.32013   0.74439   0.00000  Uiso   1.00
N531   N     0.31506   0.18068   0.76212   0.00000  Uiso   1.00
N532   N     0.01827   0.15265   0.73788   0.00000  Uiso   1.00
H533   H     0.00182   0.20599   0.78358   0.00000  Uiso   1.00
H534   H     0.33151   0.12734   0.71642   0.00000  Uiso   1.00
N535   N     0.00896   0.21749   0.62187   0.00000  Uiso   1.00
O536   O     0.02773   0.18133   0.63798   0.00000  Uiso   1.00
O537   O     0.04379   0.26516   0.61843   0.00000  Uiso   1.00
N538   N     0.32437   0.11585   0.87813   0.00000  Uiso   1.00
O539   O     0.30561   0.15200   0.86202   0.00000  Uiso   1.00
O540   O     0.28954   0.06818   0.88157   0.00000  Uiso   1.00
O541   O     0.46148   0.23809   0.74686   0.00000  Uiso   1.00
O542   O     0.53852   0.09524   0.75314   0.00000  Uiso   1.00
O543   O     0.56163   0.24753   0.75502   0.00000  Uiso   1.00
O544   O     0.43837   0.08580   0.74497   0.00000  Uiso   1.00
C545   C     0.51505   0.26674   0.75130   0.00000  Uiso   1.00
C546   C     0.48495   0.06660   0.74870   0.00000  Uiso   1.00
O547   O     0.42185   0.15930   0.80854   0.00000  Uiso   1.00
O548   O     0.57815   0.17403   0.69145   0.00000  Uiso   1.00
O549   O     0.52199   0.16874   0.81671   0.00000  Uiso   1.00
O550   O     0.47801   0.16460   0.68329   0.00000  Uiso   1.00
C551   C     0.46069   0.16265   0.83336   0.00000  Uiso   1.00
C552   C     0.53931   0.17068   0.66664   0.00000  Uiso   1.00
Cu553  Cu    0.44071   0.16108   0.74516   0.00000  Uiso   1.00
Cu554  Cu    0.55929   0.17225   0.75483   0.00000  Uiso   1.00
C555   C     0.43569   0.15691   0.88147   0.00000  Uiso   1.00
C556   C     0.56431   0.17642   0.61853   0.00000  Uiso   1.00
C557   C     0.35629   0.11843   0.94616   0.00000  Uiso   1.00
C558   C     0.64371   0.21490   0.55384   0.00000  Uiso   1.00
C559   C     0.37240   0.13100   0.90181   0.00000  Uiso   1.00
C560   C     0.62760   0.20233   0.59819   0.00000  Uiso   1.00
C561   C     0.47956   0.17301   0.90701   0.00000  Uiso   1.00
C562   C     0.52044   0.16032   0.59299   0.00000  Uiso   1.00
C563   C     0.46398   0.16088   0.95178   0.00000  Uiso   1.00
C564   C     0.53602   0.17246   0.54822   0.00000  Uiso   1.00
C565   C     0.40143   0.13219   0.97083   0.00000  Uiso   1.00
C566   C     0.59857   0.20114   0.52917   0.00000  Uiso   1.00
C567   C     0.50912   0.17485   0.97772   0.00000  Uiso   1.00
C568   C     0.49088   0.15848   0.52228   0.00000  Uiso   1.00
C569   C     0.42814   0.12882   0.53935   0.00000  Uiso   1.00
C570   C     0.57186   0.20452   0.96065   0.00000  Uiso   1.00
C571   C     0.38436   0.11665   0.51424   0.00000  Uiso   1.00
C572   C     0.61564   0.21669   0.98576   0.00000  Uiso   1.00
H573   H     0.33666   0.09428   0.52895   0.00000  Uiso   1.00
H574   H     0.66334   0.23905   0.97105   0.00000  Uiso   1.00
H575   H     0.47337   0.13971   0.60959   0.00000  Uiso   1.00
H576   H     0.52663   0.19363   0.89041   0.00000  Uiso   1.00
H577   H     0.64137   0.09758   0.96143   0.00000  Uiso   1.00
H578   H     0.35863   0.23576   0.53857   0.00000  Uiso   1.00
H579   H     0.41075   0.11373   0.57208   0.00000  Uiso   1.00
H580   H     0.58925   0.21960   0.92792   0.00000  Uiso   1.00
C581   C     0.52352   0.32271   0.75194   0.00000  Uiso   1.00
C582   C     0.47648   0.01063   0.74806   0.00000  Uiso   1.00
H583   H     0.56885   0.01321   0.75561   0.00000  Uiso   1.00
H584   H     0.43115   0.32013   0.74439   0.00000  Uiso   1.00
N585   N     0.64839   0.18068   0.76212   0.00000  Uiso   1.00
N586   N     0.35161   0.15265   0.73788   0.00000  Uiso   1.00
H587   H     0.33516   0.20599   0.78358   0.00000  Uiso   1.00
H588   H     0.66484   0.12734   0.71642   0.00000  Uiso   1.00
N589   N     0.34230   0.21749   0.62187   0.00000  Uiso   1.00
O590   O     0.36106   0.18133   0.63798   0.00000  Uiso   1.00
O591   O     0.37712   0.26516   0.61843   0.00000  Uiso   1.00
N592   N     0.65770   0.11585   0.87813   0.00000  Uiso   1.00
O593   O     0.63894   0.15200   0.86202   0.00000  Uiso   1.00
O594   O     0.62288   0.06818   0.88157   0.00000  Uiso   1.00
O595   O     0.79482   0.23809   0.74686   0.00000  Uiso   1.00
O596   O     0.87185   0.09524   0.75314   0.00000  Uiso   1.00
O597   O     0.89496   0.24753   0.75502   0.00000  Uiso   1.00
O598   O     0.77171   0.08580   0.74497   0.00000  Uiso   1.00
C599   C     0.84839   0.26674   0.75130   0.00000  Uiso   1.00
C600   C     0.81828   0.06660   0.74870   0.00000  Uiso   1.00
O601   O     0.75518   0.15930   0.80854   0.00000  Uiso   1.00
O602   O     0.91149   0.17403   0.69145   0.00000  Uiso   1.00
O603   O     0.85532   0.16874   0.81671   0.00000  Uiso   1.00
O604   O     0.81134   0.16460   0.68329   0.00000  Uiso   1.00
C605   C     0.79402   0.16265   0.83336   0.00000  Uiso   1.00
C606   C     0.87265   0.17068   0.66664   0.00000  Uiso   1.00
Cu607  Cu    0.77404   0.16108   0.74516   0.00000  Uiso   1.00
Cu608  Cu    0.89263   0.17225   0.75483   0.00000  Uiso   1.00
C609   C     0.76902   0.15691   0.88147   0.00000  Uiso   1.00
C610   C     0.89764   0.17642   0.61853   0.00000  Uiso   1.00
C611   C     0.68962   0.11843   0.94616   0.00000  Uiso   1.00
C612   C     0.97705   0.21490   0.55384   0.00000  Uiso   1.00
C613   C     0.70573   0.13100   0.90181   0.00000  Uiso   1.00
C614   C     0.96093   0.20233   0.59819   0.00000  Uiso   1.00
C615   C     0.81289   0.17301   0.90701   0.00000  Uiso   1.00
C616   C     0.85377   0.16032   0.59299   0.00000  Uiso   1.00
C617   C     0.79731   0.16088   0.95178   0.00000  Uiso   1.00
C618   C     0.86936   0.17246   0.54822   0.00000  Uiso   1.00
C619   C     0.73476   0.13219   0.97083   0.00000  Uiso   1.00
C620   C     0.93190   0.20114   0.52917   0.00000  Uiso   1.00
C621   C     0.84245   0.17485   0.97772   0.00000  Uiso   1.00
C622   C     0.82422   0.15848   0.52228   0.00000  Uiso   1.00
C623   C     0.76147   0.12882   0.53935   0.00000  Uiso   1.00
C624   C     0.90520   0.20452   0.96065   0.00000  Uiso   1.00
C625   C     0.71769   0.11665   0.51424   0.00000  Uiso   1.00
C626   C     0.94898   0.21669   0.98576   0.00000  Uiso   1.00
H627   H     0.67000   0.09428   0.52895   0.00000  Uiso   1.00
H628   H     0.99667   0.23905   0.97105   0.00000  Uiso   1.00
H629   H     0.80670   0.13971   0.60959   0.00000  Uiso   1.00
H630   H     0.85996   0.19363   0.89041   0.00000  Uiso   1.00
H631   H     0.97471   0.09758   0.96143   0.00000  Uiso   1.00
H632   H     0.69196   0.23576   0.53857   0.00000  Uiso   1.00
H633   H     0.74408   0.11373   0.57208   0.00000  Uiso   1.00
H634   H     0.92259   0.21960   0.92792   0.00000  Uiso   1.00
C635   C     0.85686   0.32271   0.75194   0.00000  Uiso   1.00
C636   C     0.80981   0.01063   0.74806   0.00000  Uiso   1.00
H637   H     0.90218   0.01321   0.75561   0.00000  Uiso   1.00
H638   H     0.76449   0.32013   0.74439   0.00000  Uiso   1.00
N639   N     0.98173   0.18068   0.76212   0.00000  Uiso   1.00
N640   N     0.68494   0.15265   0.73788   0.00000  Uiso   1.00
H641   H     0.66849   0.20599   0.78358   0.00000  Uiso   1.00
H642   H     0.99818   0.12734   0.71642   0.00000  Uiso   1.00
N643   N     0.67563   0.21749   0.62187   0.00000  Uiso   1.00
O644   O     0.69439   0.18133   0.63798   0.00000  Uiso   1.00
O645   O     0.71046   0.26516   0.61843   0.00000  Uiso   1.00
N646   N     0.99104   0.11585   0.87813   0.00000  Uiso   1.00
O647   O     0.97227   0.15200   0.86202   0.00000  Uiso   1.00
O648   O     0.95621   0.06818   0.88157   0.00000  Uiso   1.00
O649   O     0.12815   0.57142   0.74686   0.00000  Uiso   1.00
O650   O     0.20518   0.42858   0.75314   0.00000  Uiso   1.00
O651   O     0.22829   0.58086   0.75502   0.00000  Uiso   1.00
O652   O     0.10504   0.41914   0.74497   0.00000  Uiso   1.00
C653   C     0.18172   0.60007   0.75130   0.00000  Uiso   1.00
C654   C     0.15161   0.39993   0.74870   0.00000  Uiso   1.00
O655   O     0.08851   0.49263   0.80854   0.00000  Uiso   1.00
O656   O     0.24482   0.50737   0.69145   0.00000  Uiso   1.00
O657   O     0.18866   0.50207   0.81671   0.00000  Uiso   1.00
O658   O     0.14468   0.49793   0.68329   0.00000  Uiso   1.00
C659   C     0.12735   0.49599   0.83336   0.00000  Uiso   1.00
C660   C     0.20598   0.50401   0.66664   0.00000  Uiso   1.00
Cu661  Cu    0.10737   0.49441   0.74516   0.00000  Uiso   1.00
Cu662  Cu    0.22596   0.50559   0.75483   0.00000  Uiso   1.00
C663   C     0.10236   0.49024   0.88147   0.00000  Uiso   1.00
C664   C     0.23098   0.50976   0.61853   0.00000  Uiso   1.00
C665   C     0.02295   0.45177   0.94616   0.00000  Uiso   1.00
C666   C     0.31038   0.54823   0.55384   0.00000  Uiso   1.00
C667   C     0.03907   0.46433   0.90181   0.00000  Uiso   1.00
C668   C     0.29427   0.53567   0.59819   0.00000  Uiso   1.00
C669   C     0.14623   0.50635   0.90701   0.00000  Uiso   1.00
C670   C     0.18711   0.49365   0.59299   0.00000  Uiso   1.00
C671   C     0.13064   0.49421   0.95178   0.00000  Uiso   1.00
C672   C     0.20269   0.50579   0.54822   0.00000  Uiso   1.00
C673   C     0.06810   0.46553   0.97083   0.00000  Uiso   1.00
C674   C     0.26524   0.53447   0.52917   0.00000  Uiso   1.00
C675   C     0.17578   0.50819   0.97772   0.00000  Uiso   1.00
C676   C     0.15755   0.49181   0.52228   0.00000  Uiso   1.00
C677   C     0.09480   0.46215   0.53935   0.00000  Uiso   1.00
C678   C     0.23853   0.53785   0.96065   0.00000  Uiso   1.00
C679   C     0.05102   0.44998   0.51424   0.00000  Uiso   1.00
C680   C     0.28231   0.55002   0.98576   0.00000  Uiso   1.00
H681   H     0.00333   0.42762   0.52895   0.00000  Uiso   1.00
H682   H     0.33000   0.57238   0.97105   0.00000  Uiso   1.00
H683   H     0.14004   0.47304   0.60959   0.00000  Uiso   1.00
H684   H     0.19330   0.52696   0.89041   0.00000  Uiso   1.00
H685   H     0.30804   0.43091   0.96143   0.00000  Uiso   1.00
H686   H     0.02529   0.56909   0.53857   0.00000  Uiso   1.00
H687   H     0.07741   0.44706   0.57208   0.00000  Uiso   1.00
H688   H     0.25592   0.55294   0.92792   0.00000  Uiso   1.00
C689   C     0.19019   0.65604   0.75194   0.00000  Uiso   1.00
C690   C     0.14314   0.34396   0.74806   0.00000  Uiso   1.00
H691   H     0.23551   0.34654   0.75561   0.00000  Uiso   1.00
H692   H     0.09782   0.65346   0.74439   0.00000  Uiso   1.00
N693   N     0.31506   0.51401   0.76212   0.00000  Uiso   1.00
N694   N     0.01827   0.48599   0.73788   0.00000  Uiso   1.00
H695   H     0.00182   0.53932   0.78358   0.00000  Uiso   1.00
H696   H     0.33151   0.46068   0.71642   0.00000  Uiso   1.00
N697   N     0.00896   0.55082   0.62187   0.00000  Uiso   1.00
O698   O     0.02773   0.51466   0.63798   0.00000  Uiso   1.00
O699   O     0.04379   0.59849   0.61843   0.00000  Uiso   1.00
N700   N     0.32437   0.44918   0.87813   0.00000  Uiso   1.00
O701   O     0.30561   0.48534   0.86202   0.00000  Uiso   1.00
O702   O     0.28954   0.40151   0.88157   0.00000  Uiso   1.00
O703   O     0.46148   0.57142   0.74686   0.00000  Uiso   1.00
O704   O     0.53852   0.42858   0.75314   0.00000  Uiso   1.00
O705   O     0.56163   0.58086   0.75502   0.00000  Uiso   1.00
O706   O     0.43837   0.41914   0.74497   0.00000  Uiso   1.00
C707   C     0.51505   0.60007   0.75130   0.00000  Uiso   1.00
C708   C     0.48495   0.39993   0.74870   0.00000  Uiso   1.00
O709   O     0.42185   0.49263   0.80854   0.00000  Uiso   1.00
O710   O     0.57815   0.50737   0.69145   0.00000  Uiso   1.00
O711   O     0.52199   0.50207   0.81671   0.00000  Uiso   1.00
O712   O     0.47801   0.49793   0.68329   0.00000  Uiso   1.00
C713   C     0.46069   0.49599   0.83336   0.00000  Uiso   1.00
C714   C     0.53931   0.50401   0.66664   0.00000  Uiso   1.00
Cu715  Cu    0.44071   0.49441   0.74516   0.00000  Uiso   1.00
Cu716  Cu    0.55929   0.50559   0.75483   0.00000  Uiso   1.00
C717   C     0.43569   0.49024   0.88147   0.00000  Uiso   1.00
C718   C     0.56431   0.50976   0.61853   0.00000  Uiso   1.00
C719   C     0.35629   0.45177   0.94616   0.00000  Uiso   1.00
C720   C     0.64371   0.54823   0.55384   0.00000  Uiso   1.00
C721   C     0.37240   0.46433   0.90181   0.00000  Uiso   1.00
C722   C     0.62760   0.53567   0.59819   0.00000  Uiso   1.00
C723   C     0.47956   0.50635   0.90701   0.00000  Uiso   1.00
C724   C     0.52044   0.49365   0.59299   0.00000  Uiso   1.00
C725   C     0.46398   0.49421   0.95178   0.00000  Uiso   1.00
C726   C     0.53602   0.50579   0.54822   0.00000  Uiso   1.00
C727   C     0.40143   0.46553   0.97083   0.00000  Uiso   1.00
C728   C     0.59857   0.53447   0.52917   0.00000  Uiso   1.00
C729   C     0.50912   0.50819   0.97772   0.00000  Uiso   1.00
C730   C     0.49088   0.49181   0.52228   0.00000  Uiso   1.00
C731   C     0.42814   0.46215   0.53935   0.00000  Uiso   1.00
C732   C     0.57186   0.53785   0.96065   0.00000  Uiso   1.00
C733   C     0.38436   0.44998   0.51424   0.00000  Uiso   1.00
C734   C     0.61564   0.55002   0.98576   0.00000  Uiso   1.00
H735   H     0.33666   0.42762   0.52895   0.00000  Uiso   1.00
H736   H     0.66334   0.57238   0.97105   0.00000  Uiso   1.00
H737   H     0.47337   0.47304   0.60959   0.00000  Uiso   1.00
H738   H     0.52663   0.52696   0.89041   0.00000  Uiso   1.00
H739   H     0.64137   0.43091   0.96143   0.00000  Uiso   1.00
H740   H     0.35863   0.56909   0.53857   0.00000  Uiso   1.00
H741   H     0.41075   0.44706   0.57208   0.00000  Uiso   1.00
H742   H     0.58925   0.55294   0.92792   0.00000  Uiso   1.00
C743   C     0.52352   0.65604   0.75194   0.00000  Uiso   1.00
C744   C     0.47648   0.34396   0.74806   0.00000  Uiso   1.00
H745   H     0.56885   0.34654   0.75561   0.00000  Uiso   1.00
H746   H     0.43115   0.65346   0.74439   0.00000  Uiso   1.00
N747   N     0.64839   0.51401   0.76212   0.00000  Uiso   1.00
N748   N     0.35161   0.48599   0.73788   0.00000  Uiso   1.00
H749   H     0.33516   0.53932   0.78358   0.00000  Uiso   1.00
H750   H     0.66484   0.46068   0.71642   0.00000  Uiso   1.00
N751   N     0.34230   0.55082   0.62187   0.00000  Uiso   1.00
O752   O     0.36106   0.51466   0.63798   0.00000  Uiso   1.00
O753   O     0.37712   0.59849   0.61843   0.00000  Uiso   1.00
N754   N     0.65770   0.44918   0.87813   0.00000  Uiso   1.00
O755   O     0.63894   0.48534   0.86202   0.00000  Uiso   1.00
O756   O     0.62288   0.40151   0.88157   0.00000  Uiso   1.00
O757   O     0.79482   0.57142   0.74686   0.00000  Uiso   1.00
O758   O     0.87185   0.42858   0.75314   0.00000  Uiso   1.00
O759   O     0.89496   0.58086   0.75502   0.00000  Uiso   1.00
O760   O     0.77171   0.41914   0.74497   0.00000  Uiso   1.00
C761   C     0.84839   0.60007   0.75130   0.00000  Uiso   1.00
C762   C     0.81828   0.39993   0.74870   0.00000  Uiso   1.00
O763   O     0.75518   0.49263   0.80854   0.00000  Uiso   1.00
O764   O     0.91149   0.50737   0.69145   0.00000  Uiso   1.00
O765   O     0.85532   0.50207   0.81671   0.00000  Uiso   1.00
O766   O     0.81134   0.49793   0.68329   0.00000  Uiso   1.00
C767   C     0.79402   0.49599   0.83336   0.00000  Uiso   1.00
C768   C     0.87265   0.50401   0.66664   0.00000  Uiso   1.00
Cu769  Cu    0.77404   0.49441   0.74516   0.00000  Uiso   1.00
Cu770  Cu    0.89263   0.50559   0.75483   0.00000  Uiso   1.00
C771   C     0.76902   0.49024   0.88147   0.00000  Uiso   1.00
C772   C     0.89764   0.50976   0.61853   0.00000  Uiso   1.00
C773   C     0.68962   0.45177   0.94616   0.00000  Uiso   1.00
C774   C     0.97705   0.54823   0.55384   0.00000  Uiso   1.00
C775   C     0.70573   0.46433   0.90181   0.00000  Uiso   1.00
C776   C     0.96093   0.53567   0.59819   0.00000  Uiso   1.00
C777   C     0.81289   0.50635   0.90701   0.00000  Uiso   1.00
C778   C     0.85377   0.49365   0.59299   0.00000  Uiso   1.00
C779   C     0.79731   0.49421   0.95178   0.00000  Uiso   1.00
C780   C     0.86936   0.50579   0.54822   0.00000  Uiso   1.00
C781   C     0.73476   0.46553   0.97083   0.00000  Uiso   1.00
C782   C     0.93190   0.53447   0.52917   0.00000  Uiso   1.00
C783   C     0.84245   0.50819   0.97772   0.00000  Uiso   1.00
C784   C     0.82422   0.49181   0.52228   0.00000  Uiso   1.00
C785   C     0.76147   0.46215   0.53935   0.00000  Uiso   1.00
C786   C     0.90520   0.53785   0.96065   0.00000  Uiso   1.00
C787   C     0.71769   0.44998   0.51424   0.00000  Uiso   1.00
C788   C     0.94898   0.55002   0.98576   0.00000  Uiso   1.00
H789   H     0.67000   0.42762   0.52895   0.00000  Uiso   1.00
H790   H     0.99667   0.57238   0.97105   0.00000  Uiso   1.00
H791   H     0.80670   0.47304   0.60959   0.00000  Uiso   1.00
H792   H     0.85996   0.52696   0.89041   0.00000  Uiso   1.00
H793   H     0.97471   0.43091   0.96143   0.00000  Uiso   1.00
H794   H     0.69196   0.56909   0.53857   0.00000  Uiso   1.00
H795   H     0.74408   0.44706   0.57208   0.00000  Uiso   1.00
H796   H     0.92259   0.55294   0.92792   0.00000  Uiso   1.00
C797   C     0.85686   0.65604   0.75194   0.00000  Uiso   1.00
C798   C     0.80981   0.34396   0.74806   0.00000  Uiso   1.00
H799   H     0.90218   0.34654   0.75561   0.00000  Uiso   1.00
H800   H     0.76449   0.65346   0.74439   0.00000  Uiso   1.00
N801   N     0.98173   0.51401   0.76212   0.00000  Uiso   1.00
N802   N     0.68494   0.48599   0.73788   0.00000  Uiso   1.00
H803   H     0.66849   0.53932   0.78358   0.00000  Uiso   1.00
H804   H     0.99818   0.46068   0.71642   0.00000  Uiso   1.00
N805   N     0.67563   0.55082   0.62187   0.00000  Uiso   1.00
O806   O     0.69439   0.51466   0.63798   0.00000  Uiso   1.00
O807   O     0.71046   0.59849   0.61843   0.00000  Uiso   1.00
N808   N     0.99104   0.44918   0.87813   0.00000  Uiso   1.00
O809   O     0.97227   0.48534   0.86202   0.00000  Uiso   1.00
O810   O     0.95621   0.40151   0.88157   0.00000  Uiso   1.00
O811   O     0.12815   0.90476   0.74686   0.00000  Uiso   1.00
O812   O     0.20518   0.76191   0.75314   0.00000  Uiso   1.00
O813   O     0.22829   0.91420   0.75502   0.00000  Uiso   1.00
O814   O     0.10504   0.75247   0.74497   0.00000  Uiso   1.00
C815   C     0.18172   0.93340   0.75130   0.00000  Uiso   1.00
C816   C     0.15161   0.73326   0.74870   0.00000  Uiso   1.00
O817   O     0.08851   0.82597   0.80854   0.00000  Uiso   1.00
O818   O     0.24482   0.84070   0.69145   0.00000  Uiso   1.00
O819   O     0.18866   0.83540   0.81671   0.00000  Uiso   1.00
O820   O     0.14468   0.83126   0.68329   0.00000  Uiso   1.00
C821   C     0.12735   0.82932   0.83336   0.00000  Uiso   1.00
C822   C     0.20598   0.83735   0.66664   0.00000  Uiso   1.00
Cu823  Cu    0.10737   0.82775   0.74516   0.00000  Uiso   1.00
Cu824  Cu    0.22596   0.83892   0.75483   0.00000  Uiso   1.00
C825   C     0.10236   0.82358   0.88147   0.00000  Uiso   1.00
C826   C     0.23098   0.84309   0.61853   0.00000  Uiso   1.00
C827   C     0.02295   0.78510   0.94616   0.00000  Uiso   1.00
C828   C     0.31038   0.88157   0.55384   0.00000  Uiso   1.00
C829   C     0.03907   0.79767   0.90181   0.00000  Uiso   1.00
C830   C     0.29427   0.86900   0.59819   0.00000  Uiso   1.00
C831   C     0.14623   0.83968   0.90701   0.00000  Uiso   1.00
C832   C     0.18711   0.82699   0.59299   0.00000  Uiso   1.00
C833   C     0.13064   0.82754   0.95178   0.00000  Uiso   1.00
C834   C     0.20269   0.83912   0.54822   0.00000  Uiso   1.00
C835   C     0.06810   0.79886   0.97083   0.00000  Uiso   1.00
C836   C     0.26524   0.86781   0.52917   0.00000  Uiso   1.00
C837   C     0.17578   0.84152   0.97772   0.00000  Uiso   1.00
C838   C     0.15755   0.82515   0.52228   0.00000  Uiso   1.00
C839   C     0.09480   0.79548   0.53935   0.00000  Uiso   1.00
C840   C     0.23853   0.87118   0.96065   0.00000  Uiso   1.00
C841   C     0.05102   0.78331   0.51424   0.00000  Uiso   1.00
C842   C     0.28231   0.88335   0.98576   0.00000  Uiso   1.00
H843   H     0.00333   0.76095   0.52895   0.00000  Uiso   1.00
H844   H     0.33000   0.90572   0.97105   0.00000  Uiso   1.00
H845   H     0.14004   0.80637   0.60959   0.00000  Uiso   1.00
H846   H     0.19330   0.86029   0.89041   0.00000  Uiso   1.00
H847   H     0.30804   0.76425   0.96143   0.00000  Uiso   1.00
H848   H     0.02529   0.90242   0.53857   0.00000  Uiso   1.00
H849   H     0.07741   0.78040   0.57208   0.00000  Uiso   1.00
H850   H     0.25592   0.88627   0.92792   0.00000  Uiso   1.00
C851   C     0.19019   0.98937   0.75194   0.00000  Uiso   1.00
C852   C     0.14314   0.67729   0.74806   0.00000  Uiso   1.00
H853   H     0.23551   0.67987   0.75561   0.00000  Uiso   1.00
H854   H     0.09782   0.98679   0.74439   0.00000  Uiso   1.00
N855   N     0.31506   0.84735   0.76212   0.00000  Uiso   1.00
N856   N     0.01827   0.81932   0.73788   0.00000  Uiso   1.00
H857   H     0.00182   0.87266   0.78358   0.00000  Uiso   1.00
H858   H     0.33151   0.79401   0.71642   0.00000  Uiso   1.00
N859   N     0.00896   0.88415   0.62187   0.00000  Uiso   1.00
O860   O     0.02773   0.84800   0.63798   0.00000  Uiso   1.00
O861   O     0.04379   0.93182   0.61843   0.00000  Uiso   1.00
N862   N     0.32437   0.78251   0.87813   0.00000  Uiso   1.00
O863   O     0.30561   0.81867   0.86202   0.00000  Uiso   1.00
O864   O     0.28954   0.73484   0.88157   0.00000  Uiso   1.00
O865   O     0.46148   0.90476   0.74686   0.00000  Uiso   1.00
O866   O     0.53852   0.76191   0.75314   0.00000  Uiso   1.00
O867   O     0.56163   0.91420   0.75502   0.00000  Uiso   1.00
O868   O     0.43837   0.75247   0.74497   0.00000  Uiso   1.00
C869   C     0.51505   0.93340   0.75130   0.00000  Uiso   1.00
C870   C     0.48495   0.73326   0.74870   0.00000  Uiso   1.00
O871   O     0.42185   0.82597   0.80854   0.00000  Uiso   1.00
O872   O     0.57815   0.84070   0.69145   0.00000  Uiso   1.00
O873   O     0.52199   0.83540   0.81671   0.00000  Uiso   1.00
O874   O     0.47801   0.83126   0.68329   0.00000  Uiso   1.00
C875   C     0.46069   0.82932   0.83336   0.00000  Uiso   1.00
C876   C     0.53931   0.83735   0.66664   0.00000  Uiso   1.00
Cu877  Cu    0.44071   0.82775   0.74516   0.00000  Uiso   1.00
Cu878  Cu    0.55929   0.83892   0.75483   0.00000  Uiso   1.00
C879   C     0.43569   0.82358   0.88147   0.00000  Uiso   1.00
C880   C     0.56431   0.84309   0.61853   0.00000  Uiso   1.00
C881   C     0.35629   0.78510   0.94616   0.00000  Uiso   1.00
C882   C     0.64371   0.88157   0.55384   0.00000  Uiso   1.00
C883   C     0.37240   0.79767   0.90181   0.00000  Uiso   1.00
C884   C     0.62760   0.86900   0.59819   0.00000  Uiso   1.00
C885   C     0.47956   0.83968   0.90701   0.00000  Uiso   1.00
C886   C     0.52044   0.82699   0.59299   0.00000  Uiso   1.00
C887   C     0.46398   0.82754   0.95178   0.00000  Uiso   1.00
C888   C     0.53602   0.83912   0.54822   0.00000  Uiso   1.00
C889   C     0.40143   0.79886   0.97083   0.00000  Uiso   1.00
C890   C     0.59857   0.86781   0.52917   0.00000  Uiso   1.00
C891   C     0.50912   0.84152   0.97772   0.00000  Uiso   1.00
C892   C     0.49088   0.82515   0.52228   0.00000  Uiso   1.00
C893   C     0.42814   0.79548   0.53935   0.00000  Uiso   1.00
C894   C     0.57186   0.87118   0.96065   0.00000  Uiso   1.00
C895   C     0.38436   0.78331   0.51424   0.00000  Uiso   1.00
C896   C     0.61564   0.88335   0.98576   0.00000  Uiso   1.00
H897   H     0.33666   0.76095   0.52895   0.00000  Uiso   1.00
H898   H     0.66334   0.90572   0.97105   0.00000  Uiso   1.00
H899   H     0.47337   0.80637   0.60959   0.00000  Uiso   1.00
H900   H     0.52663   0.86029   0.89041   0.00000  Uiso   1.00
H901   H     0.64137   0.76425   0.96143   0.00000  Uiso   1.00
H902   H     0.35863   0.90242   0.53857   0.00000  Uiso   1.00
H903   H     0.41075   0.78040   0.57208   0.00000  Uiso   1.00
H904   H     0.58925   0.88627   0.92792   0.00000  Uiso   1.00
C905   C     0.52352   0.98937   0.75194   0.00000  Uiso   1.00
C906   C     0.47648   0.67729   0.74806   0.00000  Uiso   1.00
H907   H     0.56885   0.67987   0.75561   0.00000  Uiso   1.00
H908   H     0.43115   0.98679   0.74439   0.00000  Uiso   1.00
N909   N     0.64839   0.84735   0.76212   0.00000  Uiso   1.00
N910   N     0.35161   0.81932   0.73788   0.00000  Uiso   1.00
H911   H     0.33516   0.87266   0.78358   0.00000  Uiso   1.00
H912   H     0.66484   0.79401   0.71642   0.00000  Uiso   1.00
N913   N     0.34230   0.88415   0.62187   0.00000  Uiso   1.00
O914   O     0.36106   0.84800   0.63798   0.00000  Uiso   1.00
O915   O     0.37712   0.93182   0.61843   0.00000  Uiso   1.00
N916   N     0.65770   0.78251   0.87813   0.00000  Uiso   1.00
O917   O     0.63894   0.81867   0.86202   0.00000  Uiso   1.00
O918   O     0.62288   0.73484   0.88157   0.00000  Uiso   1.00
O919   O     0.79482   0.90476   0.74686   0.00000  Uiso   1.00
O920   O     0.87185   0.76191   0.75314   0.00000  Uiso   1.00
O921   O     0.89496   0.91420   0.75502   0.00000  Uiso   1.00
O922   O     0.77171   0.75247   0.74497   0.00000  Uiso   1.00
C923   C     0.84839   0.93340   0.75130   0.00000  Uiso   1.00
C924   C     0.81828   0.73326   0.74870   0.00000  Uiso   1.00
O925   O     0.75518   0.82597   0.80854   0.00000  Uiso   1.00
O926   O     0.91149   0.84070   0.69145   0.00000  Uiso   1.00
O927   O     0.85532   0.83540   0.81671   0.00000  Uiso   1.00
O928   O     0.81134   0.83126   0.68329   0.00000  Uiso   1.00
C929   C     0.79402   0.82932   0.83336   0.00000  Uiso   1.00
C930   C     0.87265   0.83735   0.66664   0.00000  Uiso   1.00
Cu931  Cu    0.77404   0.82775   0.74516   0.00000  Uiso   1.00
Cu932  Cu    0.89263   0.83892   0.75483   0.00000  Uiso   1.00
C933   C     0.76902   0.82358   0.88147   0.00000  Uiso   1.00
C934   C     0.89764   0.84309   0.61853   0.00000  Uiso   1.00
C935   C     0.68962   0.78510   0.94616   0.00000  Uiso   1.00
C936   C     0.97705   0.88157   0.55384   0.00000  Uiso   1.00
C937   C     0.70573   0.79767   0.90181   0.00000  Uiso   1.00
C938   C     0.96093   0.86900   0.59819   0.00000  Uiso   1.00
C939   C     0.81289   0.83968   0.90701   0.00000  Uiso   1.00
C940   C     0.85377   0.82699   0.59299   0.00000  Uiso   1.00
C941   C     0.79731   0.82754   0.95178   0.00000  Uiso   1.00
C942   C     0.86936   0.83912   0.54822   0.00000  Uiso   1.00
C943   C     0.73476   0.79886   0.97083   0.00000  Uiso   1.00
C944   C     0.93190   0.86781   0.52917   0.00000  Uiso   1.00
C945   C     0.84245   0.84152   0.97772   0.00000  Uiso   1.00
C946   C     0.82422   0.82515   0.52228   0.00000  Uiso   1.00
C947   C     0.76147   0.79548   0.53935   0.00000  Uiso   1.00
C948   C     0.90520   0.87118   0.96065   0.00000  Uiso   1.00
C949   C     0.71769   0.78331   0.51424   0.00000  Uiso   1.00
C950   C     0.94898   0.88335   0.98576   0.00000  Uiso   1.00
H951   H     0.67000   0.76095   0.52895   0.00000  Uiso   1.00
H952   H     0.99667   0.90572   0.97105   0.00000  Uiso   1.00
H953   H     0.80670   0.80637   0.60959   0.00000  Uiso   1.00
H954   H     0.85996   0.86029   0.89041   0.00000  Uiso   1.00
H955   H     0.97471   0.76425   0.96143   0.00000  Uiso   1.00
H956   H     0.69196   0.90242   0.53857   0.00000  Uiso   1.00
H957   H     0.74408   0.78040   0.57208   0.00000  Uiso   1.00
H958   H     0.92259   0.88627   0.92792   0.00000  Uiso   1.00
C959   C     0.85686   0.98937   0.75194   0.00000  Uiso   1.00
C960   C     0.80981   0.67729   0.74806   0.00000  Uiso   1.00
H961   H     0.90218   0.67987   0.75561   0.00000  Uiso   1.00
H962   H     0.76449   0.98679   0.74439   0.00000  Uiso   1.00
N963   N     0.98173   0.84735   0.76212   0.00000  Uiso   1.00
N964   N     0.68494   0.81932   0.73788   0.00000  Uiso   1.00
H965   H     0.66849   0.87266   0.78358   0.00000  Uiso   1.00
H966   H     0.99818   0.79401   0.71642   0.00000  Uiso   1.00
N967   N     0.67563   0.88415   0.62187   0.00000  Uiso   1.00
O968   O     0.69439   0.84800   0.63798   0.00000  Uiso   1.00
O969   O     0.71046   0.93182   0.61843   0.00000  Uiso   1.00
N970   N     0.99104   0.78251   0.87813   0.00000  Uiso   1.00
O971   O     0.97227   0.81867   0.86202   0.00000  Uiso   1.00
O972   O     0.95621   0.73484   0.88157   0.00000  Uiso   1.00
loop_
_geom_bond_atom_site_label_1
_geom_bond_atom_site_label_2
_geom_bond_distance
_geom_bond_site_symmetry_2
_ccdc_geom_bond_type
O1     C5      1.291   .     A
O1     Cu13    1.956   .     S
O2     C6      1.291   .     A
O2     Cu14    1.956   .     S
O3     C5      1.286   .     A
O3     Cu14    1.952   .     S
O4     C6      1.286   .     A
O4     Cu13    1.952   .     S
C5     C41     1.428   .     S
C6     C42     1.428   .     S
O7     Cu13    1.939   .     S
O7     C11     1.301   .     A
O8     C12     1.301   .     A
O8     Cu14    1.939   .     S
O9     Cu14    1.912   .     S
O9     C11     1.301   .     A
O10    C12     1.301   .     A
O10    Cu13    1.912   .     S
C11    C15     1.481   .     S
C12    C16     1.481   .     S
Cu13   N46     2.019   .     S
Cu13   Cu14    2.687   .     S
Cu14   N45     2.019   .     S
C15    C19     1.414   .     A
C15    C21     1.403   .     A
C16    C20     1.414   .     A
C16    C22     1.403   .     A
C17    C25     1.401   .     A
C17    C19     1.397   .     A
C17    H145    1.085   1_455 S
C18    C26     1.401   .     A
C18    C20     1.397   .     A
C18    H92     1.085   .     S
C19    N160    1.433   1_455 S
C20    N103    1.433   .     S
C21    H36     1.073   .     S
C21    C23     1.408   .     A
C22    H35     1.073   .     S
C22    C24     1.408   .     A
C23    C27     1.431   .     A
C23    C25     1.415   .     A
C24    C28     1.431   .     A
C24    C26     1.415   .     A
C25    C517    1.390   .     S
C26    C518    1.390   1_554 S
C27    C30     1.416   .     A
C27    C514    1.429   .     S
C28    C29     1.416   .     A
C28    C513    1.429   1_554 S
C29    H39     1.075   .     S
C29    C31     1.385   .     A
C30    H40     1.075   .     S
C30    C32     1.385   .     A
C31    H33     1.085   .     S
C31    C511    1.390   1_554 S
C32    H34     1.085   .     S
C32    C512    1.390   .     S
H37    C71     1.085   .     S
H38    C126    1.085   1_455 S
C41    C204    1.329   .     S
C41    H205    1.088   .     S
C42    C365    1.329   1_545 S
C42    H368    1.088   1_545 S
H43    C365    1.088   1_545 S
H44    C204    1.088   .     S
N45    N100    1.281   .     S
N45    H101    1.029   .     S
N46    N153    1.281   1_455 S
N46    H156    1.029   1_455 S
H47    N153    1.029   1_455 S
H48    N100    1.029   .     S
N49    O50     1.300   .     A
N49    O51     1.301   .     A
N49    C128    1.433   1_455 S
N52    O54     1.301   .     A
N52    O53     1.300   .     A
N52    C73     1.433   .     S
O55    C59     1.291   .     A
O55    Cu67    1.956   .     S
O56    C60     1.291   .     A
O56    Cu68    1.956   .     S
O57    C59     1.286   .     A
O57    Cu68    1.952   .     S
O58    C60     1.286   .     A
O58    Cu67    1.952   .     S
C59    C95     1.428   .     S
C60    C96     1.428   .     S
O61    Cu67    1.939   .     S
O61    C65     1.301   .     A
O62    C66     1.301   .     A
O62    Cu68    1.939   .     S
O63    Cu68    1.912   .     S
O63    C65     1.301   .     A
O64    C66     1.301   .     A
O64    Cu67    1.912   .     S
C65    C69     1.481   .     S
C66    C70     1.481   .     S
Cu67   N100    2.019   .     S
Cu67   Cu68    2.687   .     S
Cu68   N99     2.019   .     S
C69    C73     1.414   .     A
C69    C75     1.403   .     A
C70    C74     1.414   .     A
C70    C76     1.403   .     A
C71    C79     1.401   .     A
C71    C73     1.397   .     A
C72    C80     1.401   .     A
C72    C74     1.397   .     A
C72    H146    1.085   .     S
C74    N157    1.433   .     S
C75    H90     1.073   .     S
C75    C77     1.408   .     A
C76    H89     1.073   .     S
C76    C78     1.408   .     A
C77    C81     1.431   .     A
C77    C79     1.415   .     A
C78    C82     1.431   .     A
C78    C80     1.415   .     A
C79    C571    1.390   .     S
C80    C572    1.390   1_554 S
C81    C84     1.416   .     A
C81    C568    1.429   .     S
C82    C83     1.416   .     A
C82    C567    1.429   1_554 S
C83    H93     1.075   .     S
C83    C85     1.385   .     A
C84    H94     1.075   .     S
C84    C86     1.385   .     A
C85    H87     1.085   .     S
C85    C565    1.390   1_554 S
C86    H88     1.085   .     S
C86    C566    1.390   .     S
H91    C125    1.085   .     S
C95    C258    1.329   .     S
C95    H259    1.088   .     S
C96    C419    1.329   1_545 S
C96    H422    1.088   1_545 S
H97    C419    1.088   1_545 S
H98    C258    1.088   .     S
N99    N154    1.281   .     S
N99    H155    1.029   .     S
H102   N154    1.029   .     S
N103   O104    1.300   .     A
N103   O105    1.301   .     A
N106   O108    1.301   .     A
N106   O107    1.300   .     A
N106   C127    1.433   .     S
O109   C113    1.291   .     A
O109   Cu121   1.956   .     S
O110   C114    1.291   .     A
O110   Cu122   1.956   .     S
O111   C113    1.286   .     A
O111   Cu122   1.952   .     S
O112   C114    1.286   .     A
O112   Cu121   1.952   .     S
C113   C149    1.428   .     S
C114   C150    1.428   .     S
O115   Cu121   1.939   .     S
O115   C119    1.301   .     A
O116   C120    1.301   .     A
O116   Cu122   1.939   .     S
O117   Cu122   1.912   .     S
O117   C119    1.301   .     A
O118   C120    1.301   .     A
O118   Cu121   1.912   .     S
C119   C123    1.481   .     S
C120   C124    1.481   .     S
Cu121  N154    2.019   .     S
Cu121  Cu122   2.687   .     S
Cu122  N153    2.019   .     S
C123   C127    1.414   .     A
C123   C129    1.403   .     A
C124   C128    1.414   .     A
C124   C130    1.403   .     A
C125   C133    1.401   .     A
C125   C127    1.397   .     A
C126   C134    1.401   .     A
C126   C128    1.397   .     A
C126   H38     1.085   1_655 S
C128   N49     1.433   1_655 S
C129   H144    1.073   .     S
C129   C131    1.408   .     A
C130   H143    1.073   .     S
C130   C132    1.408   .     A
C131   C135    1.431   .     A
C131   C133    1.415   .     A
C132   C136    1.431   .     A
C132   C134    1.415   .     A
C133   C625    1.390   .     S
C134   C626    1.390   1_554 S
C135   C138    1.416   .     A
C135   C622    1.429   .     S
C136   C137    1.416   .     A
C136   C621    1.429   1_554 S
C137   H147    1.075   .     S
C137   C139    1.385   .     A
C138   H148    1.075   .     S
C138   C140    1.385   .     A
C139   H141    1.085   .     S
C139   C619    1.390   1_554 S
C140   H142    1.085   .     S
C140   C620    1.390   .     S
H145   C17     1.085   1_655 S
C149   C312    1.329   .     S
C149   H313    1.088   .     S
C150   C473    1.329   1_545 S
C150   H476    1.088   1_545 S
H151   C473    1.088   1_545 S
H152   C312    1.088   .     S
N153   N46     1.281   1_655 S
N153   H47     1.029   1_655 S
H156   N46     1.029   1_655 S
N157   O158    1.300   .     A
N157   O159    1.301   .     A
N160   O162    1.301   .     A
N160   O161    1.300   .     A
N160   C19     1.433   1_655 S
O163   C167    1.291   .     A
O163   Cu175   1.956   .     S
O164   C168    1.291   .     A
O164   Cu176   1.956   .     S
O165   C167    1.286   .     A
O165   Cu176   1.952   .     S
O166   C168    1.286   .     A
O166   Cu175   1.952   .     S
C167   C203    1.428   .     S
C168   C204    1.428   .     S
O169   Cu175   1.939   .     S
O169   C173    1.301   .     A
O170   C174    1.301   .     A
O170   Cu176   1.939   .     S
O171   Cu176   1.912   .     S
O171   C173    1.301   .     A
O172   C174    1.301   .     A
O172   Cu175   1.912   .     S
C173   C177    1.481   .     S
C174   C178    1.481   .     S
Cu175  N208    2.019   .     S
Cu175  Cu176   2.687   .     S
Cu176  N207    2.019   .     S
C177   C181    1.414   .     A
C177   C183    1.403   .     A
C178   C182    1.414   .     A
C178   C184    1.403   .     A
C179   C187    1.401   .     A
C179   C181    1.397   .     A
C179   H307    1.085   1_455 S
C180   C188    1.401   .     A
C180   C182    1.397   .     A
C180   H254    1.085   .     S
C181   N322    1.433   1_455 S
C182   N265    1.433   .     S
C183   H198    1.073   .     S
C183   C185    1.408   .     A
C184   H197    1.073   .     S
C184   C186    1.408   .     A
C185   C189    1.431   .     A
C185   C187    1.415   .     A
C186   C190    1.431   .     A
C186   C188    1.415   .     A
C187   C679    1.390   .     S
C188   C680    1.390   1_554 S
C189   C192    1.416   .     A
C189   C676    1.429   .     S
C190   C191    1.416   .     A
C190   C675    1.429   1_554 S
C191   H201    1.075   .     S
C191   C193    1.385   .     A
C192   H202    1.075   .     S
C192   C194    1.385   .     A
C193   H195    1.085   .     S
C193   C673    1.390   1_554 S
C194   H196    1.085   .     S
C194   C674    1.390   .     S
H199   C233    1.085   .     S
H200   C288    1.085   1_455 S
C203   C366    1.329   .     S
C203   H367    1.088   .     S
H206   C366    1.088   .     S
N207   N262    1.281   .     S
N207   H263    1.029   .     S
N208   N315    1.281   1_455 S
N208   H318    1.029   1_455 S
H209   N315    1.029   1_455 S
H210   N262    1.029   .     S
N211   O212    1.300   .     A
N211   O213    1.301   .     A
N211   C290    1.433   1_455 S
N214   O216    1.301   .     A
N214   O215    1.300   .     A
N214   C235    1.433   .     S
O217   C221    1.291   .     A
O217   Cu229   1.956   .     S
O218   C222    1.291   .     A
O218   Cu230   1.956   .     S
O219   C221    1.286   .     A
O219   Cu230   1.952   .     S
O220   C222    1.286   .     A
O220   Cu229   1.952   .     S
C221   C257    1.428   .     S
C222   C258    1.428   .     S
O223   Cu229   1.939   .     S
O223   C227    1.301   .     A
O224   C228    1.301   .     A
O224   Cu230   1.939   .     S
O225   Cu230   1.912   .     S
O225   C227    1.301   .     A
O226   C228    1.301   .     A
O226   Cu229   1.912   .     S
C227   C231    1.481   .     S
C228   C232    1.481   .     S
Cu229  N262    2.019   .     S
Cu229  Cu230   2.687   .     S
Cu230  N261    2.019   .     S
C231   C235    1.414   .     A
C231   C237    1.403   .     A
C232   C236    1.414   .     A
C232   C238    1.403   .     A
C233   C241    1.401   .     A
C233   C235    1.397   .     A
C234   C242    1.401   .     A
C234   C236    1.397   .     A
C234   H308    1.085   .     S
C236   N319    1.433   .     S
C237   H252    1.073   .     S
C237   C239    1.408   .     A
C238   H251    1.073   .     S
C238   C240    1.408   .     A
C239   C243    1.431   .     A
C239   C241    1.415   .     A
C240   C244    1.431   .     A
C240   C242    1.415   .     A
C241   C733    1.390   .     S
C242   C734    1.390   1_554 S
C243   C246    1.416   .     A
C243   C730    1.429   .     S
C244   C245    1.416   .     A
C244   C729    1.429   1_554 S
C245   H255    1.075   .     S
C245   C247    1.385   .     A
C246   H256    1.075   .     S
C246   C248    1.385   .     A
C247   H249    1.085   .     S
C247   C727    1.390   1_554 S
C248   H250    1.085   .     S
C248   C728    1.390   .     S
H253   C287    1.085   .     S
C257   C420    1.329   .     S
C257   H421    1.088   .     S
H260   C420    1.088   .     S
N261   N316    1.281   .     S
N261   H317    1.029   .     S
H264   N316    1.029   .     S
N265   O266    1.300   .     A
N265   O267    1.301   .     A
N268   O270    1.301   .     A
N268   O269    1.300   .     A
N268   C289    1.433   .     S
O271   C275    1.291   .     A
O271   Cu283   1.956   .     S
O272   C276    1.291   .     A
O272   Cu284   1.956   .     S
O273   C275    1.286   .     A
O273   Cu284   1.952   .     S
O274   C276    1.286   .     A
O274   Cu283   1.952   .     S
C275   C311    1.428   .     S
C276   C312    1.428   .     S
O277   Cu283   1.939   .     S
O277   C281    1.301   .     A
O278   C282    1.301   .     A
O278   Cu284   1.939   .     S
O279   Cu284   1.912   .     S
O279   C281    1.301   .     A
O280   C282    1.301   .     A
O280   Cu283   1.912   .     S
C281   C285    1.481   .     S
C282   C286    1.481   .     S
Cu283  N316    2.019   .     S
Cu283  Cu284   2.687   .     S
Cu284  N315    2.019   .     S
C285   C289    1.414   .     A
C285   C291    1.403   .     A
C286   C290    1.414   .     A
C286   C292    1.403   .     A
C287   C295    1.401   .     A
C287   C289    1.397   .     A
C288   C296    1.401   .     A
C288   C290    1.397   .     A
C288   H200    1.085   1_655 S
C290   N211    1.433   1_655 S
C291   H306    1.073   .     S
C291   C293    1.408   .     A
C292   H305    1.073   .     S
C292   C294    1.408   .     A
C293   C297    1.431   .     A
C293   C295    1.415   .     A
C294   C298    1.431   .     A
C294   C296    1.415   .     A
C295   C787    1.390   .     S
C296   C788    1.390   1_554 S
C297   C300    1.416   .     A
C297   C784    1.429   .     S
C298   C299    1.416   .     A
C298   C783    1.429   1_554 S
C299   H309    1.075   .     S
C299   C301    1.385   .     A
C300   H310    1.075   .     S
C300   C302    1.385   .     A
C301   H303    1.085   .     S
C301   C781    1.390   1_554 S
C302   H304    1.085   .     S
C302   C782    1.390   .     S
H307   C179    1.085   1_655 S
C311   C474    1.329   .     S
C311   H475    1.088   .     S
H314   C474    1.088   .     S
N315   N208    1.281   1_655 S
N315   H209    1.029   1_655 S
H318   N208    1.029   1_655 S
N319   O320    1.300   .     A
N319   O321    1.301   .     A
N322   O324    1.301   .     A
N322   O323    1.300   .     A
N322   C181    1.433   1_655 S
O325   C329    1.291   .     A
O325   Cu337   1.956   .     S
O326   C330    1.291   .     A
O326   Cu338   1.956   .     S
O327   C329    1.286   .     A
O327   Cu338   1.952   .     S
O328   C330    1.286   .     A
O328   Cu337   1.952   .     S
C329   C365    1.428   .     S
C330   C366    1.428   .     S
O331   Cu337   1.939   .     S
O331   C335    1.301   .     A
O332   C336    1.301   .     A
O332   Cu338   1.939   .     S
O333   Cu338   1.912   .     S
O333   C335    1.301   .     A
O334   C336    1.301   .     A
O334   Cu337   1.912   .     S
C335   C339    1.481   .     S
C336   C340    1.481   .     S
Cu337  N370    2.019   .     S
Cu337  Cu338   2.687   .     S
Cu338  N369    2.019   .     S
C339   C343    1.414   .     A
C339   C345    1.403   .     A
C340   C344    1.414   .     A
C340   C346    1.403   .     A
C341   C349    1.401   .     A
C341   C343    1.397   .     A
C341   H469    1.085   1_455 S
C342   C350    1.401   .     A
C342   C344    1.397   .     A
C342   H416    1.085   .     S
C343   N484    1.433   1_455 S
C344   N427    1.433   .     S
C345   H360    1.073   .     S
C345   C347    1.408   .     A
C346   H359    1.073   .     S
C346   C348    1.408   .     A
C347   C351    1.431   .     A
C347   C349    1.415   .     A
C348   C352    1.431   .     A
C348   C350    1.415   .     A
C349   C841    1.390   .     S
C350   C842    1.390   1_554 S
C351   C354    1.416   .     A
C351   C838    1.429   .     S
C352   C353    1.416   .     A
C352   C837    1.429   1_554 S
C353   H363    1.075   .     S
C353   C355    1.385   .     A
C354   H364    1.075   .     S
C354   C356    1.385   .     A
C355   H357    1.085   .     S
C355   C835    1.390   1_554 S
C356   H358    1.085   .     S
C356   C836    1.390   .     S
H361   C395    1.085   .     S
H362   C450    1.085   1_455 S
C365   C42     1.329   1_565 S
C365   H43     1.088   1_565 S
H368   C42     1.088   1_565 S
N369   N424    1.281   .     S
N369   H425    1.029   .     S
N370   N477    1.281   1_455 S
N370   H480    1.029   1_455 S
H371   N477    1.029   1_455 S
H372   N424    1.029   .     S
N373   O374    1.300   .     A
N373   O375    1.301   .     A
N373   C452    1.433   1_455 S
N376   O378    1.301   .     A
N376   O377    1.300   .     A
N376   C397    1.433   .     S
O379   C383    1.291   .     A
O379   Cu391   1.956   .     S
O380   C384    1.291   .     A
O380   Cu392   1.956   .     S
O381   C383    1.286   .     A
O381   Cu392   1.952   .     S
O382   C384    1.286   .     A
O382   Cu391   1.952   .     S
C383   C419    1.428   .     S
C384   C420    1.428   .     S
O385   Cu391   1.939   .     S
O385   C389    1.301   .     A
O386   C390    1.301   .     A
O386   Cu392   1.939   .     S
O387   Cu392   1.912   .     S
O387   C389    1.301   .     A
O388   C390    1.301   .     A
O388   Cu391   1.912   .     S
C389   C393    1.481   .     S
C390   C394    1.481   .     S
Cu391  N424    2.019   .     S
Cu391  Cu392   2.687   .     S
Cu392  N423    2.019   .     S
C393   C397    1.414   .     A
C393   C399    1.403   .     A
C394   C398    1.414   .     A
C394   C400    1.403   .     A
C395   C403    1.401   .     A
C395   C397    1.397   .     A
C396   C404    1.401   .     A
C396   C398    1.397   .     A
C396   H470    1.085   .     S
C398   N481    1.433   .     S
C399   H414    1.073   .     S
C399   C401    1.408   .     A
C400   H413    1.073   .     S
C400   C402    1.408   .     A
C401   C405    1.431   .     A
C401   C403    1.415   .     A
C402   C406    1.431   .     A
C402   C404    1.415   .     A
C403   C895    1.390   .     S
C404   C896    1.390   1_554 S
C405   C408    1.416   .     A
C405   C892    1.429   .     S
C406   C407    1.416   .     A
C406   C891    1.429   1_554 S
C407   H417    1.075   .     S
C407   C409    1.385   .     A
C408   H418    1.075   .     S
C408   C410    1.385   .     A
C409   H411    1.085   .     S
C409   C889    1.390   1_554 S
C410   H412    1.085   .     S
C410   C890    1.390   .     S
H415   C449    1.085   .     S
C419   C96     1.329   1_565 S
C419   H97     1.088   1_565 S
H422   C96     1.088   1_565 S
N423   N478    1.281   .     S
N423   H479    1.029   .     S
H426   N478    1.029   .     S
N427   O428    1.300   .     A
N427   O429    1.301   .     A
N430   O432    1.301   .     A
N430   O431    1.300   .     A
N430   C451    1.433   .     S
O433   C437    1.291   .     A
O433   Cu445   1.956   .     S
O434   C438    1.291   .     A
O434   Cu446   1.956   .     S
O435   C437    1.286   .     A
O435   Cu446   1.952   .     S
O436   C438    1.286   .     A
O436   Cu445   1.952   .     S
C437   C473    1.428   .     S
C438   C474    1.428   .     S
O439   Cu445   1.939   .     S
O439   C443    1.301   .     A
O440   C444    1.301   .     A
O440   Cu446   1.939   .     S
O441   Cu446   1.912   .     S
O441   C443    1.301   .     A
O442   C444    1.301   .     A
O442   Cu445   1.912   .     S
C443   C447    1.481   .     S
C444   C448    1.481   .     S
Cu445  N478    2.019   .     S
Cu445  Cu446   2.687   .     S
Cu446  N477    2.019   .     S
C447   C451    1.414   .     A
C447   C453    1.403   .     A
C448   C452    1.414   .     A
C448   C454    1.403   .     A
C449   C457    1.401   .     A
C449   C451    1.397   .     A
C450   C458    1.401   .     A
C450   C452    1.397   .     A
C450   H362    1.085   1_655 S
C452   N373    1.433   1_655 S
C453   H468    1.073   .     S
C453   C455    1.408   .     A
C454   H467    1.073   .     S
C454   C456    1.408   .     A
C455   C459    1.431   .     A
C455   C457    1.415   .     A
C456   C460    1.431   .     A
C456   C458    1.415   .     A
C457   C949    1.390   .     S
C458   C950    1.390   1_554 S
C459   C462    1.416   .     A
C459   C946    1.429   .     S
C460   C461    1.416   .     A
C460   C945    1.429   1_554 S
C461   H471    1.075   .     S
C461   C463    1.385   .     A
C462   H472    1.075   .     S
C462   C464    1.385   .     A
C463   H465    1.085   .     S
C463   C943    1.390   1_554 S
C464   H466    1.085   .     S
C464   C944    1.390   .     S
H469   C341    1.085   1_655 S
C473   C150    1.329   1_565 S
C473   H151    1.088   1_565 S
H476   C150    1.088   1_565 S
N477   N370    1.281   1_655 S
N477   H371    1.029   1_655 S
H480   N370    1.029   1_655 S
N481   O482    1.300   .     A
N481   O483    1.301   .     A
N484   O486    1.301   .     A
N484   O485    1.300   .     A
N484   C343    1.433   1_655 S
O487   C491    1.291   .     A
O487   Cu499   1.956   .     S
O488   C492    1.291   .     A
O488   Cu500   1.956   .     S
O489   C491    1.286   .     A
O489   Cu500   1.952   .     S
O490   C492    1.286   .     A
O490   Cu499   1.952   .     S
C491   C527    1.428   .     S
C492   C528    1.428   .     S
O493   Cu499   1.939   .     S
O493   C497    1.301   .     A
O494   C498    1.301   .     A
O494   Cu500   1.939   .     S
O495   Cu500   1.912   .     S
O495   C497    1.301   .     A
O496   C498    1.301   .     A
O496   Cu499   1.912   .     S
C497   C501    1.481   .     S
C498   C502    1.481   .     S
Cu499  N532    2.019   .     S
Cu499  Cu500   2.687   .     S
Cu500  N531    2.019   .     S
C501   C505    1.414   .     A
C501   C507    1.403   .     A
C502   C506    1.414   .     A
C502   C508    1.403   .     A
C503   C511    1.401   .     A
C503   C505    1.397   .     A
C503   H631    1.085   1_455 S
C504   C512    1.401   .     A
C504   C506    1.397   .     A
C504   H578    1.085   .     S
C505   N646    1.433   1_455 S
C506   N589    1.433   .     S
C507   H522    1.073   .     S
C507   C509    1.408   .     A
C508   H521    1.073   .     S
C508   C510    1.408   .     A
C509   C513    1.431   .     A
C509   C511    1.415   .     A
C510   C514    1.431   .     A
C510   C512    1.415   .     A
C511   C31     1.390   1_556 S
C513   C516    1.416   .     A
C513   C28     1.429   1_556 S
C514   C515    1.416   .     A
C515   H525    1.075   .     S
C515   C517    1.385   .     A
C516   H526    1.075   .     S
C516   C518    1.385   .     A
C517   H519    1.085   .     S
C518   H520    1.085   .     S
C518   C26     1.390   1_556 S
H523   C557    1.085   .     S
H524   C612    1.085   1_455 S
C527   C690    1.329   .     S
C527   H691    1.088   .     S
C528   C851    1.329   1_545 S
C528   H854    1.088   1_545 S
H529   C851    1.088   1_545 S
H530   C690    1.088   .     S
N531   N586    1.281   .     S
N531   H587    1.029   .     S
N532   N639    1.281   1_455 S
N532   H642    1.029   1_455 S
H533   N639    1.029   1_455 S
H534   N586    1.029   .     S
N535   O536    1.300   .     A
N535   O537    1.301   .     A
N535   C614    1.433   1_455 S
N538   O540    1.301   .     A
N538   O539    1.300   .     A
N538   C559    1.433   .     S
O541   C545    1.291   .     A
O541   Cu553   1.956   .     S
O542   C546    1.291   .     A
O542   Cu554   1.956   .     S
O543   C545    1.286   .     A
O543   Cu554   1.952   .     S
O544   C546    1.286   .     A
O544   Cu553   1.952   .     S
C545   C581    1.428   .     S
C546   C582    1.428   .     S
O547   Cu553   1.939   .     S
O547   C551    1.301   .     A
O548   C552    1.301   .     A
O548   Cu554   1.939   .     S
O549   Cu554   1.912   .     S
O549   C551    1.301   .     A
O550   C552    1.301   .     A
O550   Cu553   1.912   .     S
C551   C555    1.481   .     S
C552   C556    1.481   .     S
Cu553  N586    2.019   .     S
Cu553  Cu554   2.687   .     S
Cu554  N585    2.019   .     S
C555   C559    1.414   .     A
C555   C561    1.403   .     A
C556   C560    1.414   .     A
C556   C562    1.403   .     A
C557   C565    1.401   .     A
C557   C559    1.397   .     A
C558   C566    1.401   .     A
C558   C560    1.397   .     A
C558   H632    1.085   .     S
C560   N643    1.433   .     S
C561   H576    1.073   .     S
C561   C563    1.408   .     A
C562   H575    1.073   .     S
C562   C564    1.408   .     A
C563   C567    1.431   .     A
C563   C565    1.415   .     A
C564   C568    1.431   .     A
C564   C566    1.415   .     A
C565   C85     1.390   1_556 S
C567   C570    1.416   .     A
C567   C82     1.429   1_556 S
C568   C569    1.416   .     A
C569   H579    1.075   .     S
C569   C571    1.385   .     A
C570   H580    1.075   .     S
C570   C572    1.385   .     A
C571   H573    1.085   .     S
C572   H574    1.085   .     S
C572   C80     1.390   1_556 S
H577   C611    1.085   .     S
C581   C744    1.329   .     S
C581   H745    1.088   .     S
C582   C905    1.329   1_545 S
C582   H908    1.088   1_545 S
H583   C905    1.088   1_545 S
H584   C744    1.088   .     S
N585   N640    1.281   .     S
N585   H641    1.029   .     S
H588   N640    1.029   .     S
N589   O590    1.300   .     A
N589   O591    1.301   .     A
N592   O594    1.301   .     A
N592   O593    1.300   .     A
N592   C613    1.433   .     S
O595   C599    1.291   .     A
O595   Cu607   1.956   .     S
O596   C600    1.291   .     A
O596   Cu608   1.956   .     S
O597   C599    1.286   .     A
O597   Cu608   1.952   .     S
O598   C600    1.286   .     A
O598   Cu607   1.952   .     S
C599   C635    1.428   .     S
C600   C636    1.428   .     S
O601   Cu607   1.939   .     S
O601   C605    1.301   .     A
O602   C606    1.301   .     A
O602   Cu608   1.939   .     S
O603   Cu608   1.912   .     S
O603   C605    1.301   .     A
O604   C606    1.301   .     A
O604   Cu607   1.912   .     S
C605   C609    1.481   .     S
C606   C610    1.481   .     S
Cu607  N640    2.019   .     S
Cu607  Cu608   2.687   .     S
Cu608  N639    2.019   .     S
C609   C613    1.414   .     A
C609   C615    1.403   .     A
C610   C614    1.414   .     A
C610   C616    1.403   .     A
C611   C619    1.401   .     A
C611   C613    1.397   .     A
C612   C620    1.401   .     A
C612   C614    1.397   .     A
C612   H524    1.085   1_655 S
C614   N535    1.433   1_655 S
C615   H630    1.073   .     S
C615   C617    1.408   .     A
C616   H629    1.073   .     S
C616   C618    1.408   .     A
C617   C621    1.431   .     A
C617   C619    1.415   .     A
C618   C622    1.431   .     A
C618   C620    1.415   .     A
C619   C139    1.390   1_556 S
C621   C624    1.416   .     A
C621   C136    1.429   1_556 S
C622   C623    1.416   .     A
C623   H633    1.075   .     S
C623   C625    1.385   .     A
C624   H634    1.075   .     S
C624   C626    1.385   .     A
C625   H627    1.085   .     S
C626   H628    1.085   .     S
C626   C134    1.390   1_556 S
H631   C503    1.085   1_655 S
C635   C798    1.329   .     S
C635   H799    1.088   .     S
C636   C959    1.329   1_545 S
C636   H962    1.088   1_545 S
H637   C959    1.088   1_545 S
H638   C798    1.088   .     S
N639   N532    1.281   1_655 S
N639   H533    1.029   1_655 S
H642   N532    1.029   1_655 S
N643   O644    1.300   .     A
N643   O645    1.301   .     A
N646   O648    1.301   .     A
N646   O647    1.300   .     A
N646   C505    1.433   1_655 S
O649   C653    1.291   .     A
O649   Cu661   1.956   .     S
O650   C654    1.291   .     A
O650   Cu662   1.956   .     S
O651   C653    1.286   .     A
O651   Cu662   1.952   .     S
O652   C654    1.286   .     A
O652   Cu661   1.952   .     S
C653   C689    1.428   .     S
C654   C690    1.428   .     S
O655   Cu661   1.939   .     S
O655   C659    1.301   .     A
O656   C660    1.301   .     A
O656   Cu662   1.939   .     S
O657   Cu662   1.912   .     S
O657   C659    1.301   .     A
O658   C660    1.301   .     A
O658   Cu661   1.912   .     S
C659   C663    1.481   .     S
C660   C664    1.481   .     S
Cu661  N694    2.019   .     S
Cu661  Cu662   2.687   .     S
Cu662  N693    2.019   .     S
C663   C667    1.414   .     A
C663   C669    1.403   .     A
C664   C668    1.414   .     A
C664   C670    1.403   .     A
C665   C673    1.401   .     A
C665   C667    1.397   .     A
C665   H793    1.085   1_455 S
C666   C674    1.401   .     A
C666   C668    1.397   .     A
C666   H740    1.085   .     S
C667   N808    1.433   1_455 S
C668   N751    1.433   .     S
C669   H684    1.073   .     S
C669   C671    1.408   .     A
C670   H683    1.073   .     S
C670   C672    1.408   .     A
C671   C675    1.431   .     A
C671   C673    1.415   .     A
C672   C676    1.431   .     A
C672   C674    1.415   .     A
C673   C193    1.390   1_556 S
C675   C678    1.416   .     A
C675   C190    1.429   1_556 S
C676   C677    1.416   .     A
C677   H687    1.075   .     S
C677   C679    1.385   .     A
C678   H688    1.075   .     S
C678   C680    1.385   .     A
C679   H681    1.085   .     S
C680   H682    1.085   .     S
C680   C188    1.390   1_556 S
H685   C719    1.085   .     S
H686   C774    1.085   1_455 S
C689   C852    1.329   .     S
C689   H853    1.088   .     S
H692   C852    1.088   .     S
N693   N748    1.281   .     S
N693   H749    1.029   .     S
N694   N801    1.281   1_455 S
N694   H804    1.029   1_455 S
H695   N801    1.029   1_455 S
H696   N748    1.029   .     S
N697   O698    1.300   .     A
N697   O699    1.301   .     A
N697   C776    1.433   1_455 S
N700   O702    1.301   .     A
N700   O701    1.300   .     A
N700   C721    1.433   .     S
O703   C707    1.291   .     A
O703   Cu715   1.956   .     S
O704   C708    1.291   .     A
O704   Cu716   1.956   .     S
O705   C707    1.286   .     A
O705   Cu716   1.952   .     S
O706   C708    1.286   .     A
O706   Cu715   1.952   .     S
C707   C743    1.428   .     S
C708   C744    1.428   .     S
O709   Cu715   1.939   .     S
O709   C713    1.301   .     A
O710   C714    1.301   .     A
O710   Cu716   1.939   .     S
O711   Cu716   1.912   .     S
O711   C713    1.301   .     A
O712   C714    1.301   .     A
O712   Cu715   1.912   .     S
C713   C717    1.481   .     S
C714   C718    1.481   .     S
Cu715  N748    2.019   .     S
Cu715  Cu716   2.687   .     S
Cu716  N747    2.019   .     S
C717   C721    1.414   .     A
C717   C723    1.403   .     A
C718   C722    1.414   .     A
C718   C724    1.403   .     A
C719   C727    1.401   .     A
C719   C721    1.397   .     A
C720   C728    1.401   .     A
C720   C722    1.397   .     A
C720   H794    1.085   .     S
C722   N805    1.433   .     S
C723   H738    1.073   .     S
C723   C725    1.408   .     A
C724   H737    1.073   .     S
C724   C726    1.408   .     A
C725   C729    1.431   .     A
C725   C727    1.415   .     A
C726   C730    1.431   .     A
C726   C728    1.415   .     A
C727   C247    1.390   1_556 S
C729   C732    1.416   .     A
C729   C244    1.429   1_556 S
C730   C731    1.416   .     A
C731   H741    1.075   .     S
C731   C733    1.385   .     A
C732   H742    1.075   .     S
C732   C734    1.385   .     A
C733   H735    1.085   .     S
C734   H736    1.085   .     S
C734   C242    1.390   1_556 S
H739   C773    1.085   .     S
C743   C906    1.329   .     S
C743   H907    1.088   .     S
H746   C906    1.088   .     S
N747   N802    1.281   .     S
N747   H803    1.029   .     S
H750   N802    1.029   .     S
N751   O752    1.300   .     A
N751   O753    1.301   .     A
N754   O756    1.301   .     A
N754   O755    1.300   .     A
N754   C775    1.433   .     S
O757   C761    1.291   .     A
O757   Cu769   1.956   .     S
O758   C762    1.291   .     A
O758   Cu770   1.956   .     S
O759   C761    1.286   .     A
O759   Cu770   1.952   .     S
O760   C762    1.286   .     A
O760   Cu769   1.952   .     S
C761   C797    1.428   .     S
C762   C798    1.428   .     S
O763   Cu769   1.939   .     S
O763   C767    1.301   .     A
O764   C768    1.301   .     A
O764   Cu770   1.939   .     S
O765   Cu770   1.912   .     S
O765   C767    1.301   .     A
O766   C768    1.301   .     A
O766   Cu769   1.912   .     S
C767   C771    1.481   .     S
C768   C772    1.481   .     S
Cu769  N802    2.019   .     S
Cu769  Cu770   2.687   .     S
Cu770  N801    2.019   .     S
C771   C775    1.414   .     A
C771   C777    1.403   .     A
C772   C776    1.414   .     A
C772   C778    1.403   .     A
C773   C781    1.401   .     A
C773   C775    1.397   .     A
C774   C782    1.401   .     A
C774   C776    1.397   .     A
C774   H686    1.085   1_655 S
C776   N697    1.433   1_655 S
C777   H792    1.073   .     S
C777   C779    1.408   .     A
C778   H791    1.073   .     S
C778   C780    1.408   .     A
C779   C783    1.431   .     A
C779   C781    1.415   .     A
C780   C784    1.431   .     A
C780   C782    1.415   .     A
C781   C301    1.390   1_556 S
C783   C786    1.416   .     A
C783   C298    1.429   1_556 S
C784   C785    1.416   .     A
C785   H795    1.075   .     S
C785   C787    1.385   .     A
C786   H796    1.075   .     S
C786   C788    1.385   .     A
C787   H789    1.085   .     S
C788   H790    1.085   .     S
C788   C296    1.390   1_556 S
H793   C665    1.085   1_655 S
C797   C960    1.329   .     S
C797   H961    1.088   .     S
H800   C960    1.088   .     S
N801   N694    1.281   1_655 S
N801   H695    1.029   1_655 S
H804   N694    1.029   1_655 S
N805   O806    1.300   .     A
N805   O807    1.301   .     A
N808   O810    1.301   .     A
N808   O809    1.300   .     A
N808   C667    1.433   1_655 S
O811   C815    1.291   .     A
O811   Cu823   1.956   .     S
O812   C816    1.291   .     A
O812   Cu824   1.956   .     S
O813   C815    1.286   .     A
O813   Cu824   1.952   .     S
O814   C816    1.286   .     A
O814   Cu823   1.952   .     S
C815   C851    1.428   .     S
C816   C852    1.428   .     S
O817   Cu823   1.939   .     S
O817   C821    1.301   .     A
O818   C822    1.301   .     A
O818   Cu824   1.939   .     S
O819   Cu824   1.912   .     S
O819   C821    1.301   .     A
O820   C822    1.301   .     A
O820   Cu823   1.912   .     S
C821   C825    1.481   .     S
C822   C826    1.481   .     S
Cu823  N856    2.019   .     S
Cu823  Cu824   2.687   .     S
Cu824  N855    2.019   .     S
C825   C829    1.414   .     A
C825   C831    1.403   .     A
C826   C830    1.414   .     A
C826   C832    1.403   .     A
C827   C835    1.401   .     A
C827   C829    1.397   .     A
C827   H955    1.085   1_455 S
C828   C836    1.401   .     A
C828   C830    1.397   .     A
C828   H902    1.085   .     S
C829   N970    1.433   1_455 S
C830   N913    1.433   .     S
C831   H846    1.073   .     S
C831   C833    1.408   .     A
C832   H845    1.073   .     S
C832   C834    1.408   .     A
C833   C837    1.431   .     A
C833   C835    1.415   .     A
C834   C838    1.431   .     A
C834   C836    1.415   .     A
C835   C355    1.390   1_556 S
C837   C840    1.416   .     A
C837   C352    1.429   1_556 S
C838   C839    1.416   .     A
C839   H849    1.075   .     S
C839   C841    1.385   .     A
C840   H850    1.075   .     S
C840   C842    1.385   .     A
C841   H843    1.085   .     S
C842   H844    1.085   .     S
C842   C350    1.390   1_556 S
H847   C881    1.085   .     S
H848   C936    1.085   1_455 S
C851   C528    1.329   1_565 S
C851   H529    1.088   1_565 S
H854   C528    1.088   1_565 S
N855   N910    1.281   .     S
N855   H911    1.029   .     S
N856   N963    1.281   1_455 S
N856   H966    1.029   1_455 S
H857   N963    1.029   1_455 S
H858   N910    1.029   .     S
N859   O860    1.300   .     A
N859   O861    1.301   .     A
N859   C938    1.433   1_455 S
N862   O864    1.301   .     A
N862   O863    1.300   .     A
N862   C883    1.433   .     S
O865   C869    1.291   .     A
O865   Cu877   1.956   .     S
O866   C870    1.291   .     A
O866   Cu878   1.956   .     S
O867   C869    1.286   .     A
O867   Cu878   1.952   .     S
O868   C870    1.286   .     A
O868   Cu877   1.952   .     S
C869   C905    1.428   .     S
C870   C906    1.428   .     S
O871   Cu877   1.939   .     S
O871   C875    1.301   .     A
O872   C876    1.301   .     A
O872   Cu878   1.939   .     S
O873   Cu878   1.912   .     S
O873   C875    1.301   .     A
O874   C876    1.301   .     A
O874   Cu877   1.912   .     S
C875   C879    1.481   .     S
C876   C880    1.481   .     S
Cu877  N910    2.019   .     S
Cu877  Cu878   2.687   .     S
Cu878  N909    2.019   .     S
C879   C883    1.414   .     A
C879   C885    1.403   .     A
C880   C884    1.414   .     A
C880   C886    1.403   .     A
C881   C889    1.401   .     A
C881   C883    1.397   .     A
C882   C890    1.401   .     A
C882   C884    1.397   .     A
C882   H956    1.085   .     S
C884   N967    1.433   .     S
C885   H900    1.073   .     S
C885   C887    1.408   .     A
C886   H899    1.073   .     S
C886   C888    1.408   .     A
C887   C891    1.431   .     A
C887   C889    1.415   .     A
C888   C892    1.431   .     A
C888   C890    1.415   .     A
C889   C409    1.390   1_556 S
C891   C894    1.416   .     A
C891   C406    1.429   1_556 S
C892   C893    1.416   .     A
C893   H903    1.075   .     S
C893   C895    1.385   .     A
C894   H904    1.075   .     S
C894   C896    1.385   .     A
C895   H897    1.085   .     S
C896   H898    1.085   .     S
C896   C404    1.390   1_556 S
H901   C935    1.085   .     S
C905   C582    1.329   1_565 S
C905   H583    1.088   1_565 S
H908   C582    1.088   1_565 S
N909   N964    1.281   .     S
N909   H965    1.029   .     S
H912   N964    1.029   .     S
N913   O914    1.300   .     A
N913   O915    1.301   .     A
N916   O918    1.301   .     A
N916   O917    1.300   .     A
N916   C937    1.433   .     S
O919   C923    1.291   .     A
O919   Cu931   1.956   .     S
O920   C924    1.291   .     A
O920   Cu932   1.956   .     S
O921   C923    1.286   .     A
O921   Cu932   1.952   .     S
O922   C924    1.286   .     A
O922   Cu931   1.952   .     S
C923   C959    1.428   .     S
C924   C960    1.428   .     S
O925   Cu931   1.939   .     S
O925   C929    1.301   .     A
O926   C930    1.301   .     A
O926   Cu932   1.939   .     S
O927   Cu932   1.912   .     S
O927   C929    1.301   .     A
O928   C930    1.301   .     A
O928   Cu931   1.912   .     S
C929   C933    1.481   .     S
C930   C934    1.481   .     S
Cu931  N964    2.019   .     S
Cu931  Cu932   2.687   .     S
Cu932  N963    2.019   .     S
C933   C937    1.414   .     A
C933   C939    1.403   .     A
C934   C938    1.414   .     A
C934   C940    1.403   .     A
C935   C943    1.401   .     A
C935   C937    1.397   .     A
C936   C944    1.401   .     A
C936   C938    1.397   .     A
C936   H848    1.085   1_655 S
C938   N859    1.433   1_655 S
C939   H954    1.073   .     S
C939   C941    1.408   .     A
C940   H953    1.073   .     S
C940   C942    1.408   .     A
C941   C945    1.431   .     A
C941   C943    1.415   .     A
C942   C946    1.431   .     A
C942   C944    1.415   .     A
C943   C463    1.390   1_556 S
C945   C948    1.416   .     A
C945   C460    1.429   1_556 S
C946   C947    1.416   .     A
C947   H957    1.075   .     S
C947   C949    1.385   .     A
C948   H958    1.075   .     S
C948   C950    1.385   .     A
C949   H951    1.085   .     S
C950   H952    1.085   .     S
C950   C458    1.390   1_556 S
H955   C827    1.085   1_655 S
C959   C636    1.329   1_565 S
C959   H637    1.088   1_565 S
H962   C636    1.088   1_565 S
N963   N856    1.281   1_655 S
N963   H857    1.029   1_655 S
H966   N856    1.029   1_655 S
N967   O968    1.300   .     A
N967   O969    1.301   .     A
N970   O972    1.301   .     A
N970   O971    1.300   .     A
N970   C829    1.433   1_655 S
