data_str_m2_o1_o10_pcu_sym.1
_audit_creation_date              2020-01-03
_audit_creation_method            'Materials Studio'
_symmetry_space_group_name_H-M    'P1'
_symmetry_Int_Tables_number       1
_symmetry_cell_setting            triclinic
loop_
_symmetry_equiv_pos_as_xyz
  x,y,z
_cell_length_a                    26.4040
_cell_length_b                    32.2450
_cell_length_c                    28.9976
_cell_angle_alpha                 89.1276
_cell_angle_beta                  98.0077
_cell_angle_gamma                 93.5803
loop_
_atom_site_label
_atom_site_type_symbol
_atom_site_fract_x
_atom_site_fract_y
_atom_site_fract_z
_atom_site_U_iso_or_equiv
_atom_site_adp_type
_atom_site_occupancy
C1     C     0.16696   0.08772   0.16692   0.00000  Uiso   1.00
C2     C     0.21408   0.02396   0.17148   0.00000  Uiso   1.00
C3     C     0.16645   0.29030   0.16611   0.00000  Uiso   1.00
C4     C     0.16688   0.04303   0.16723   0.00000  Uiso   1.00
C5     C     0.13968   0.13588   0.02159   0.00000  Uiso   1.00
C6     C     0.19366   0.19745   0.31175   0.00000  Uiso   1.00
C7     C     0.14135   0.13512   0.30580   0.00000  Uiso   1.00
C8     C     0.19198   0.19821   0.02753   0.00000  Uiso   1.00
C9     C     0.31840   0.16330   0.06538   0.00000  Uiso   1.00
C10    C     0.01493   0.17003   0.26796   0.00000  Uiso   1.00
C11    C     0.06885   0.04043   0.15829   0.00000  Uiso   1.00
C12    C     0.16638   0.24561   0.16641   0.00000  Uiso   1.00
C13    C     0.26448   0.29291   0.17504   0.00000  Uiso   1.00
C14    C     0.06837   0.28389   0.15687   0.00000  Uiso   1.00
C15    C     0.26496   0.04944   0.17647   0.00000  Uiso   1.00
C16    C     0.10584   0.10238   0.04135   0.00000  Uiso   1.00
C17    C     0.22749   0.23095   0.29199   0.00000  Uiso   1.00
C18    C     0.13354   0.06000   0.28855   0.00000  Uiso   1.00
C19    C     0.19979   0.27333   0.04478   0.00000  Uiso   1.00
C20    C     0.06820   0.16572   0.15482   0.00000  Uiso   1.00
C21    C     0.26513   0.16761   0.17851   0.00000  Uiso   1.00
C22    C     0.01288   0.16120   0.14908   0.00000  Uiso   1.00
C23    C     0.32046   0.17214   0.18425   0.00000  Uiso   1.00
C24    C     0.11948   0.01959   0.16244   0.00000  Uiso   1.00
C25    C     0.21386   0.31374   0.17089   0.00000  Uiso   1.00
C26    C     0.11926   0.30937   0.16186   0.00000  Uiso   1.00
Cu27   Cu    0.16667   0.16667   0.21355   0.00000  Uiso   1.00
Cu28   Cu    0.16667   0.16666   0.11978   0.00000  Uiso   1.00
H29    H     0.33253   0.11034   0.10546   0.00000  Uiso   1.00
H30    H     0.04773   0.03001   0.18732   0.00000  Uiso   1.00
H31    H     0.07289   0.07474   0.15978   0.00000  Uiso   1.00
H32    H     0.28806   0.30109   0.20877   0.00000  Uiso   1.00
H33    H     0.26045   0.25859   0.17355   0.00000  Uiso   1.00
H34    H     0.28560   0.30333   0.14602   0.00000  Uiso   1.00
H35    H     0.07206   0.25005   0.15576   0.00000  Uiso   1.00
H36    H     0.04797   0.28980   0.18685   0.00000  Uiso   1.00
H37    H     0.04433   0.29233   0.12398   0.00000  Uiso   1.00
H38    H     0.26127   0.08329   0.17758   0.00000  Uiso   1.00
H39    H     0.28900   0.04100   0.20935   0.00000  Uiso   1.00
H40    H     0.28515   0.15088   0.04076   0.00000  Uiso   1.00
H41    H     0.28536   0.04353   0.14649   0.00000  Uiso   1.00
H42    H     0.09154   0.11097   0.07309   0.00000  Uiso   1.00
H43    H     0.07035   0.09522   0.01673   0.00000  Uiso   1.00
H44    H     0.12675   0.07366   0.04839   0.00000  Uiso   1.00
H45    H     0.26299   0.23811   0.31660   0.00000  Uiso   1.00
H46    H     0.24179   0.22236   0.26024   0.00000  Uiso   1.00
H47    H     0.20658   0.25967   0.28495   0.00000  Uiso   1.00
H48    H     0.09485   0.10671   0.24738   0.00000  Uiso   1.00
H49    H     0.14257   0.04624   0.25624   0.00000  Uiso   1.00
H50    H     0.10311   0.03951   0.30142   0.00000  Uiso   1.00
H51    H     0.02027   0.16015   0.04914   0.00000  Uiso   1.00
H52    H     0.16874   0.06058   0.31457   0.00000  Uiso   1.00
H53    H     0.23849   0.22663   0.08595   0.00000  Uiso   1.00
H54    H     0.19076   0.28709   0.07709   0.00000  Uiso   1.00
H55    H     0.16459   0.27275   0.01876   0.00000  Uiso   1.00
H56    H     0.23022   0.29382   0.03191   0.00000  Uiso   1.00
H57    H     0.31396   0.19675   0.07120   0.00000  Uiso   1.00
H58    H     0.00080   0.22300   0.22787   0.00000  Uiso   1.00
H59    H     0.04818   0.18246   0.29258   0.00000  Uiso   1.00
H60    H     0.01937   0.13658   0.26213   0.00000  Uiso   1.00
H61    H     0.31306   0.17318   0.28419   0.00000  Uiso   1.00
H62    H     0.04527   0.03225   0.12456   0.00000  Uiso   1.00
N63    N     0.16668   0.16668   0.28403   0.00000  Uiso   1.00
N64    N     0.16665   0.16666   0.04931   0.00000  Uiso   1.00
N65    N     0.32076   0.13994   0.10862   0.00000  Uiso   1.00
N66    N     0.01257   0.19340   0.22471   0.00000  Uiso   1.00
N67    N     0.11517   0.10128   0.27949   0.00000  Uiso   1.00
N68    N     0.21817   0.23205   0.05384   0.00000  Uiso   1.00
O69    O     0.16666   0.10655   0.20625   0.00000  Uiso   1.00
O70    O     0.16667   0.22678   0.12709   0.00000  Uiso   1.00
O71    O     0.16666   0.10654   0.12706   0.00000  Uiso   1.00
O72    O     0.16667   0.22679   0.20628   0.00000  Uiso   1.00
O73    O     0.09161   0.16667   0.19712   0.00000  Uiso   1.00
O74    O     0.24172   0.16666   0.13621   0.00000  Uiso   1.00
O75    O     0.09161   0.16666   0.11793   0.00000  Uiso   1.00
O76    O     0.24172   0.16667   0.21540   0.00000  Uiso   1.00
C77    C     0.50029   0.08772   0.16692   0.00000  Uiso   1.00
C78    C     0.54741   0.02396   0.17148   0.00000  Uiso   1.00
C79    C     0.49978   0.29030   0.16611   0.00000  Uiso   1.00
C80    C     0.50022   0.04303   0.16723   0.00000  Uiso   1.00
C81    C     0.47301   0.13588   0.02159   0.00000  Uiso   1.00
C82    C     0.52699   0.19745   0.31175   0.00000  Uiso   1.00
C83    C     0.47469   0.13512   0.30580   0.00000  Uiso   1.00
C84    C     0.52531   0.19821   0.02753   0.00000  Uiso   1.00
C85    C     0.65173   0.16330   0.06538   0.00000  Uiso   1.00
C86    C     0.34827   0.17003   0.26796   0.00000  Uiso   1.00
C87    C     0.40219   0.04043   0.15829   0.00000  Uiso   1.00
C88    C     0.49971   0.24561   0.16641   0.00000  Uiso   1.00
C89    C     0.59781   0.29291   0.17504   0.00000  Uiso   1.00
C90    C     0.40171   0.28389   0.15687   0.00000  Uiso   1.00
C91    C     0.59829   0.04944   0.17647   0.00000  Uiso   1.00
C92    C     0.43917   0.10238   0.04135   0.00000  Uiso   1.00
C93    C     0.56082   0.23095   0.29199   0.00000  Uiso   1.00
C94    C     0.46687   0.06000   0.28855   0.00000  Uiso   1.00
C95    C     0.53313   0.27333   0.04478   0.00000  Uiso   1.00
C96    C     0.40154   0.16572   0.15482   0.00000  Uiso   1.00
C97    C     0.59846   0.16761   0.17851   0.00000  Uiso   1.00
C98    C     0.34621   0.16120   0.14908   0.00000  Uiso   1.00
C99    C     0.65379   0.17214   0.18425   0.00000  Uiso   1.00
C100   C     0.45281   0.01959   0.16244   0.00000  Uiso   1.00
C101   C     0.54719   0.31374   0.17089   0.00000  Uiso   1.00
C102   C     0.45259   0.30937   0.16186   0.00000  Uiso   1.00
Cu103  Cu    0.50000   0.16667   0.21355   0.00000  Uiso   1.00
Cu104  Cu    0.50000   0.16666   0.11978   0.00000  Uiso   1.00
H105   H     0.66587   0.11034   0.10546   0.00000  Uiso   1.00
H106   H     0.38107   0.03001   0.18732   0.00000  Uiso   1.00
H107   H     0.40622   0.07474   0.15978   0.00000  Uiso   1.00
H108   H     0.62140   0.30109   0.20877   0.00000  Uiso   1.00
H109   H     0.59378   0.25859   0.17355   0.00000  Uiso   1.00
H110   H     0.61893   0.30333   0.14602   0.00000  Uiso   1.00
H111   H     0.40539   0.25005   0.15576   0.00000  Uiso   1.00
H112   H     0.38131   0.28980   0.18685   0.00000  Uiso   1.00
H113   H     0.37767   0.29233   0.12398   0.00000  Uiso   1.00
H114   H     0.59461   0.08329   0.17758   0.00000  Uiso   1.00
H115   H     0.62233   0.04100   0.20935   0.00000  Uiso   1.00
H116   H     0.61848   0.15088   0.04076   0.00000  Uiso   1.00
H117   H     0.61869   0.04353   0.14649   0.00000  Uiso   1.00
H118   H     0.42487   0.11097   0.07309   0.00000  Uiso   1.00
H119   H     0.40368   0.09522   0.01673   0.00000  Uiso   1.00
H120   H     0.46008   0.07366   0.04839   0.00000  Uiso   1.00
H121   H     0.59632   0.23811   0.31660   0.00000  Uiso   1.00
H122   H     0.57513   0.22236   0.26024   0.00000  Uiso   1.00
H123   H     0.53992   0.25967   0.28495   0.00000  Uiso   1.00
H124   H     0.42818   0.10671   0.24738   0.00000  Uiso   1.00
H125   H     0.47591   0.04624   0.25624   0.00000  Uiso   1.00
H126   H     0.43645   0.03951   0.30142   0.00000  Uiso   1.00
H127   H     0.35360   0.16015   0.04914   0.00000  Uiso   1.00
H128   H     0.50208   0.06058   0.31457   0.00000  Uiso   1.00
H129   H     0.57182   0.22663   0.08595   0.00000  Uiso   1.00
H130   H     0.52409   0.28709   0.07709   0.00000  Uiso   1.00
H131   H     0.49792   0.27275   0.01876   0.00000  Uiso   1.00
H132   H     0.56355   0.29382   0.03191   0.00000  Uiso   1.00
H133   H     0.64730   0.19675   0.07120   0.00000  Uiso   1.00
H134   H     0.33413   0.22300   0.22787   0.00000  Uiso   1.00
H135   H     0.38152   0.18246   0.29258   0.00000  Uiso   1.00
H136   H     0.35270   0.13658   0.26213   0.00000  Uiso   1.00
H137   H     0.64640   0.17318   0.28419   0.00000  Uiso   1.00
H138   H     0.37860   0.03225   0.12456   0.00000  Uiso   1.00
N139   N     0.50001   0.16668   0.28403   0.00000  Uiso   1.00
N140   N     0.49999   0.16666   0.04931   0.00000  Uiso   1.00
N141   N     0.65410   0.13994   0.10862   0.00000  Uiso   1.00
N142   N     0.34590   0.19340   0.22471   0.00000  Uiso   1.00
N143   N     0.44850   0.10128   0.27949   0.00000  Uiso   1.00
N144   N     0.55150   0.23205   0.05384   0.00000  Uiso   1.00
O145   O     0.50000   0.10655   0.20625   0.00000  Uiso   1.00
O146   O     0.50000   0.22678   0.12709   0.00000  Uiso   1.00
O147   O     0.50000   0.10654   0.12706   0.00000  Uiso   1.00
O148   O     0.50000   0.22679   0.20628   0.00000  Uiso   1.00
O149   O     0.42495   0.16667   0.19712   0.00000  Uiso   1.00
O150   O     0.57505   0.16666   0.13621   0.00000  Uiso   1.00
O151   O     0.42494   0.16666   0.11793   0.00000  Uiso   1.00
O152   O     0.57506   0.16667   0.21540   0.00000  Uiso   1.00
C153   C     0.83362   0.08772   0.16692   0.00000  Uiso   1.00
C154   C     0.88074   0.02396   0.17148   0.00000  Uiso   1.00
C155   C     0.83312   0.29030   0.16611   0.00000  Uiso   1.00
C156   C     0.83355   0.04303   0.16723   0.00000  Uiso   1.00
C157   C     0.80634   0.13588   0.02159   0.00000  Uiso   1.00
C158   C     0.86032   0.19745   0.31175   0.00000  Uiso   1.00
C159   C     0.80802   0.13512   0.30580   0.00000  Uiso   1.00
C160   C     0.85864   0.19821   0.02753   0.00000  Uiso   1.00
C161   C     0.98507   0.16330   0.06538   0.00000  Uiso   1.00
C162   C     0.68160   0.17003   0.26796   0.00000  Uiso   1.00
C163   C     0.73552   0.04043   0.15829   0.00000  Uiso   1.00
C164   C     0.83304   0.24561   0.16641   0.00000  Uiso   1.00
C165   C     0.93115   0.29291   0.17504   0.00000  Uiso   1.00
C166   C     0.73504   0.28389   0.15687   0.00000  Uiso   1.00
C167   C     0.93163   0.04944   0.17647   0.00000  Uiso   1.00
C168   C     0.77251   0.10238   0.04135   0.00000  Uiso   1.00
C169   C     0.89416   0.23095   0.29199   0.00000  Uiso   1.00
C170   C     0.80021   0.06000   0.28855   0.00000  Uiso   1.00
C171   C     0.86646   0.27333   0.04478   0.00000  Uiso   1.00
C172   C     0.73487   0.16572   0.15482   0.00000  Uiso   1.00
C173   C     0.93180   0.16761   0.17851   0.00000  Uiso   1.00
C174   C     0.67954   0.16120   0.14908   0.00000  Uiso   1.00
C175   C     0.98712   0.17214   0.18425   0.00000  Uiso   1.00
C176   C     0.78614   0.01959   0.16244   0.00000  Uiso   1.00
C177   C     0.88052   0.31374   0.17089   0.00000  Uiso   1.00
C178   C     0.78592   0.30937   0.16186   0.00000  Uiso   1.00
Cu179  Cu    0.83333   0.16667   0.21355   0.00000  Uiso   1.00
Cu180  Cu    0.83333   0.16666   0.11978   0.00000  Uiso   1.00
H181   H     0.99920   0.11034   0.10546   0.00000  Uiso   1.00
H182   H     0.71440   0.03001   0.18732   0.00000  Uiso   1.00
H183   H     0.73955   0.07474   0.15978   0.00000  Uiso   1.00
H184   H     0.95473   0.30109   0.20877   0.00000  Uiso   1.00
H185   H     0.92711   0.25859   0.17355   0.00000  Uiso   1.00
H186   H     0.95227   0.30333   0.14602   0.00000  Uiso   1.00
H187   H     0.73873   0.25005   0.15576   0.00000  Uiso   1.00
H188   H     0.71464   0.28980   0.18685   0.00000  Uiso   1.00
H189   H     0.71100   0.29233   0.12398   0.00000  Uiso   1.00
H190   H     0.92794   0.08329   0.17758   0.00000  Uiso   1.00
H191   H     0.95567   0.04100   0.20935   0.00000  Uiso   1.00
H192   H     0.95182   0.15088   0.04076   0.00000  Uiso   1.00
H193   H     0.95203   0.04353   0.14649   0.00000  Uiso   1.00
H194   H     0.75821   0.11097   0.07309   0.00000  Uiso   1.00
H195   H     0.73701   0.09522   0.01673   0.00000  Uiso   1.00
H196   H     0.79341   0.07366   0.04839   0.00000  Uiso   1.00
H197   H     0.92965   0.23811   0.31660   0.00000  Uiso   1.00
H198   H     0.90846   0.22236   0.26024   0.00000  Uiso   1.00
H199   H     0.87325   0.25967   0.28495   0.00000  Uiso   1.00
H200   H     0.76151   0.10671   0.24738   0.00000  Uiso   1.00
H201   H     0.80924   0.04624   0.25624   0.00000  Uiso   1.00
H202   H     0.76978   0.03951   0.30142   0.00000  Uiso   1.00
H203   H     0.68694   0.16015   0.04914   0.00000  Uiso   1.00
H204   H     0.83541   0.06058   0.31457   0.00000  Uiso   1.00
H205   H     0.90515   0.22663   0.08595   0.00000  Uiso   1.00
H206   H     0.85743   0.28709   0.07709   0.00000  Uiso   1.00
H207   H     0.83126   0.27275   0.01876   0.00000  Uiso   1.00
H208   H     0.89689   0.29382   0.03191   0.00000  Uiso   1.00
H209   H     0.98063   0.19675   0.07120   0.00000  Uiso   1.00
H210   H     0.66747   0.22300   0.22787   0.00000  Uiso   1.00
H211   H     0.71485   0.18246   0.29258   0.00000  Uiso   1.00
H212   H     0.68604   0.13658   0.26213   0.00000  Uiso   1.00
H213   H     0.97973   0.17318   0.28419   0.00000  Uiso   1.00
H214   H     0.71194   0.03225   0.12456   0.00000  Uiso   1.00
N215   N     0.83335   0.16668   0.28403   0.00000  Uiso   1.00
N216   N     0.83332   0.16666   0.04931   0.00000  Uiso   1.00
N217   N     0.98743   0.13994   0.10862   0.00000  Uiso   1.00
N218   N     0.67924   0.19340   0.22471   0.00000  Uiso   1.00
N219   N     0.78183   0.10128   0.27949   0.00000  Uiso   1.00
N220   N     0.88483   0.23205   0.05384   0.00000  Uiso   1.00
O221   O     0.83333   0.10655   0.20625   0.00000  Uiso   1.00
O222   O     0.83334   0.22678   0.12709   0.00000  Uiso   1.00
O223   O     0.83333   0.10654   0.12706   0.00000  Uiso   1.00
O224   O     0.83334   0.22679   0.20628   0.00000  Uiso   1.00
O225   O     0.75828   0.16667   0.19712   0.00000  Uiso   1.00
O226   O     0.90839   0.16666   0.13621   0.00000  Uiso   1.00
O227   O     0.75828   0.16666   0.11793   0.00000  Uiso   1.00
O228   O     0.90839   0.16667   0.21540   0.00000  Uiso   1.00
C229   C     0.16696   0.42106   0.16692   0.00000  Uiso   1.00
C230   C     0.21408   0.35730   0.17148   0.00000  Uiso   1.00
C231   C     0.16645   0.62364   0.16611   0.00000  Uiso   1.00
C232   C     0.16688   0.37636   0.16723   0.00000  Uiso   1.00
C233   C     0.13968   0.46921   0.02159   0.00000  Uiso   1.00
C234   C     0.19366   0.53079   0.31175   0.00000  Uiso   1.00
C235   C     0.14135   0.46846   0.30580   0.00000  Uiso   1.00
C236   C     0.19198   0.53154   0.02753   0.00000  Uiso   1.00
C237   C     0.31840   0.49663   0.06538   0.00000  Uiso   1.00
C238   C     0.01493   0.50337   0.26796   0.00000  Uiso   1.00
C239   C     0.06885   0.37376   0.15829   0.00000  Uiso   1.00
C240   C     0.16638   0.57894   0.16641   0.00000  Uiso   1.00
C241   C     0.26448   0.62624   0.17504   0.00000  Uiso   1.00
C242   C     0.06837   0.61722   0.15687   0.00000  Uiso   1.00
C243   C     0.26496   0.38278   0.17647   0.00000  Uiso   1.00
C244   C     0.10584   0.43572   0.04135   0.00000  Uiso   1.00
C245   C     0.22749   0.56428   0.29199   0.00000  Uiso   1.00
C246   C     0.13354   0.39334   0.28855   0.00000  Uiso   1.00
C247   C     0.19979   0.60666   0.04478   0.00000  Uiso   1.00
C248   C     0.06820   0.49905   0.15482   0.00000  Uiso   1.00
C249   C     0.26513   0.50095   0.17851   0.00000  Uiso   1.00
C250   C     0.01288   0.49453   0.14908   0.00000  Uiso   1.00
C251   C     0.32046   0.50547   0.18425   0.00000  Uiso   1.00
C252   C     0.11948   0.35292   0.16244   0.00000  Uiso   1.00
C253   C     0.21386   0.64708   0.17089   0.00000  Uiso   1.00
C254   C     0.11926   0.64270   0.16186   0.00000  Uiso   1.00
Cu255  Cu    0.16667   0.50001   0.21355   0.00000  Uiso   1.00
Cu256  Cu    0.16667   0.49999   0.11978   0.00000  Uiso   1.00
H257   H     0.33253   0.44367   0.10546   0.00000  Uiso   1.00
H258   H     0.04773   0.36334   0.18732   0.00000  Uiso   1.00
H259   H     0.07289   0.40808   0.15978   0.00000  Uiso   1.00
H260   H     0.28806   0.63442   0.20877   0.00000  Uiso   1.00
H261   H     0.26045   0.59192   0.17355   0.00000  Uiso   1.00
H262   H     0.28560   0.63666   0.14602   0.00000  Uiso   1.00
H263   H     0.07206   0.58338   0.15576   0.00000  Uiso   1.00
H264   H     0.04797   0.62314   0.18685   0.00000  Uiso   1.00
H265   H     0.04433   0.62566   0.12398   0.00000  Uiso   1.00
H266   H     0.26127   0.41662   0.17758   0.00000  Uiso   1.00
H267   H     0.28900   0.37434   0.20935   0.00000  Uiso   1.00
H268   H     0.28515   0.48421   0.04076   0.00000  Uiso   1.00
H269   H     0.28536   0.37686   0.14649   0.00000  Uiso   1.00
H270   H     0.09154   0.44431   0.07309   0.00000  Uiso   1.00
H271   H     0.07035   0.42855   0.01673   0.00000  Uiso   1.00
H272   H     0.12675   0.40700   0.04839   0.00000  Uiso   1.00
H273   H     0.26299   0.57145   0.31660   0.00000  Uiso   1.00
H274   H     0.24179   0.55569   0.26024   0.00000  Uiso   1.00
H275   H     0.20658   0.59300   0.28495   0.00000  Uiso   1.00
H276   H     0.09485   0.44004   0.24738   0.00000  Uiso   1.00
H277   H     0.14257   0.37957   0.25624   0.00000  Uiso   1.00
H278   H     0.10311   0.37284   0.30142   0.00000  Uiso   1.00
H279   H     0.02027   0.49348   0.04914   0.00000  Uiso   1.00
H280   H     0.16874   0.39392   0.31457   0.00000  Uiso   1.00
H281   H     0.23849   0.55996   0.08595   0.00000  Uiso   1.00
H282   H     0.19076   0.62043   0.07709   0.00000  Uiso   1.00
H283   H     0.16459   0.60608   0.01876   0.00000  Uiso   1.00
H284   H     0.23022   0.62716   0.03191   0.00000  Uiso   1.00
H285   H     0.31396   0.53008   0.07120   0.00000  Uiso   1.00
H286   H     0.00080   0.55633   0.22787   0.00000  Uiso   1.00
H287   H     0.04818   0.51579   0.29258   0.00000  Uiso   1.00
H288   H     0.01937   0.46992   0.26213   0.00000  Uiso   1.00
H289   H     0.31306   0.50651   0.28419   0.00000  Uiso   1.00
H290   H     0.04527   0.36558   0.12456   0.00000  Uiso   1.00
N291   N     0.16668   0.50001   0.28403   0.00000  Uiso   1.00
N292   N     0.16665   0.49999   0.04931   0.00000  Uiso   1.00
N293   N     0.32076   0.47327   0.10862   0.00000  Uiso   1.00
N294   N     0.01257   0.52673   0.22471   0.00000  Uiso   1.00
N295   N     0.11517   0.43461   0.27949   0.00000  Uiso   1.00
N296   N     0.21817   0.56539   0.05384   0.00000  Uiso   1.00
O297   O     0.16666   0.43989   0.20625   0.00000  Uiso   1.00
O298   O     0.16667   0.56011   0.12709   0.00000  Uiso   1.00
O299   O     0.16666   0.43988   0.12706   0.00000  Uiso   1.00
O300   O     0.16667   0.56012   0.20628   0.00000  Uiso   1.00
O301   O     0.09161   0.50000   0.19712   0.00000  Uiso   1.00
O302   O     0.24172   0.50000   0.13621   0.00000  Uiso   1.00
O303   O     0.09161   0.49999   0.11793   0.00000  Uiso   1.00
O304   O     0.24172   0.50001   0.21540   0.00000  Uiso   1.00
C305   C     0.50029   0.42106   0.16692   0.00000  Uiso   1.00
C306   C     0.54741   0.35730   0.17148   0.00000  Uiso   1.00
C307   C     0.49978   0.62364   0.16611   0.00000  Uiso   1.00
C308   C     0.50022   0.37636   0.16723   0.00000  Uiso   1.00
C309   C     0.47301   0.46921   0.02159   0.00000  Uiso   1.00
C310   C     0.52699   0.53079   0.31175   0.00000  Uiso   1.00
C311   C     0.47469   0.46846   0.30580   0.00000  Uiso   1.00
C312   C     0.52531   0.53154   0.02753   0.00000  Uiso   1.00
C313   C     0.65173   0.49663   0.06538   0.00000  Uiso   1.00
C314   C     0.34827   0.50337   0.26796   0.00000  Uiso   1.00
C315   C     0.40219   0.37376   0.15829   0.00000  Uiso   1.00
C316   C     0.49971   0.57894   0.16641   0.00000  Uiso   1.00
C317   C     0.59781   0.62624   0.17504   0.00000  Uiso   1.00
C318   C     0.40171   0.61722   0.15687   0.00000  Uiso   1.00
C319   C     0.59829   0.38278   0.17647   0.00000  Uiso   1.00
C320   C     0.43917   0.43572   0.04135   0.00000  Uiso   1.00
C321   C     0.56082   0.56428   0.29199   0.00000  Uiso   1.00
C322   C     0.46687   0.39334   0.28855   0.00000  Uiso   1.00
C323   C     0.53313   0.60666   0.04478   0.00000  Uiso   1.00
C324   C     0.40154   0.49905   0.15482   0.00000  Uiso   1.00
C325   C     0.59846   0.50095   0.17851   0.00000  Uiso   1.00
C326   C     0.34621   0.49453   0.14908   0.00000  Uiso   1.00
C327   C     0.65379   0.50547   0.18425   0.00000  Uiso   1.00
C328   C     0.45281   0.35292   0.16244   0.00000  Uiso   1.00
C329   C     0.54719   0.64708   0.17089   0.00000  Uiso   1.00
C330   C     0.45259   0.64270   0.16186   0.00000  Uiso   1.00
Cu331  Cu    0.50000   0.50001   0.21355   0.00000  Uiso   1.00
Cu332  Cu    0.50000   0.49999   0.11978   0.00000  Uiso   1.00
H333   H     0.66587   0.44367   0.10546   0.00000  Uiso   1.00
H334   H     0.38107   0.36334   0.18732   0.00000  Uiso   1.00
H335   H     0.40622   0.40808   0.15978   0.00000  Uiso   1.00
H336   H     0.62140   0.63442   0.20877   0.00000  Uiso   1.00
H337   H     0.59378   0.59192   0.17355   0.00000  Uiso   1.00
H338   H     0.61893   0.63666   0.14602   0.00000  Uiso   1.00
H339   H     0.40539   0.58338   0.15576   0.00000  Uiso   1.00
H340   H     0.38131   0.62314   0.18685   0.00000  Uiso   1.00
H341   H     0.37767   0.62566   0.12398   0.00000  Uiso   1.00
H342   H     0.59461   0.41662   0.17758   0.00000  Uiso   1.00
H343   H     0.62233   0.37434   0.20935   0.00000  Uiso   1.00
H344   H     0.61848   0.48421   0.04076   0.00000  Uiso   1.00
H345   H     0.61869   0.37686   0.14649   0.00000  Uiso   1.00
H346   H     0.42487   0.44431   0.07309   0.00000  Uiso   1.00
H347   H     0.40368   0.42855   0.01673   0.00000  Uiso   1.00
H348   H     0.46008   0.40700   0.04839   0.00000  Uiso   1.00
H349   H     0.59632   0.57145   0.31660   0.00000  Uiso   1.00
H350   H     0.57513   0.55569   0.26024   0.00000  Uiso   1.00
H351   H     0.53992   0.59300   0.28495   0.00000  Uiso   1.00
H352   H     0.42818   0.44004   0.24738   0.00000  Uiso   1.00
H353   H     0.47591   0.37957   0.25624   0.00000  Uiso   1.00
H354   H     0.43645   0.37284   0.30142   0.00000  Uiso   1.00
H355   H     0.35360   0.49348   0.04914   0.00000  Uiso   1.00
H356   H     0.50208   0.39392   0.31457   0.00000  Uiso   1.00
H357   H     0.57182   0.55996   0.08595   0.00000  Uiso   1.00
H358   H     0.52409   0.62043   0.07709   0.00000  Uiso   1.00
H359   H     0.49792   0.60608   0.01876   0.00000  Uiso   1.00
H360   H     0.56355   0.62716   0.03191   0.00000  Uiso   1.00
H361   H     0.64730   0.53008   0.07120   0.00000  Uiso   1.00
H362   H     0.33413   0.55633   0.22787   0.00000  Uiso   1.00
H363   H     0.38152   0.51579   0.29258   0.00000  Uiso   1.00
H364   H     0.35270   0.46992   0.26213   0.00000  Uiso   1.00
H365   H     0.64640   0.50651   0.28419   0.00000  Uiso   1.00
H366   H     0.37860   0.36558   0.12456   0.00000  Uiso   1.00
N367   N     0.50001   0.50001   0.28403   0.00000  Uiso   1.00
N368   N     0.49999   0.49999   0.04931   0.00000  Uiso   1.00
N369   N     0.65410   0.47327   0.10862   0.00000  Uiso   1.00
N370   N     0.34590   0.52673   0.22471   0.00000  Uiso   1.00
N371   N     0.44850   0.43461   0.27949   0.00000  Uiso   1.00
N372   N     0.55150   0.56539   0.05384   0.00000  Uiso   1.00
O373   O     0.50000   0.43989   0.20625   0.00000  Uiso   1.00
O374   O     0.50000   0.56011   0.12709   0.00000  Uiso   1.00
O375   O     0.50000   0.43988   0.12706   0.00000  Uiso   1.00
O376   O     0.50000   0.56012   0.20628   0.00000  Uiso   1.00
O377   O     0.42495   0.50000   0.19712   0.00000  Uiso   1.00
O378   O     0.57505   0.50000   0.13621   0.00000  Uiso   1.00
O379   O     0.42494   0.49999   0.11793   0.00000  Uiso   1.00
O380   O     0.57506   0.50001   0.21540   0.00000  Uiso   1.00
C381   C     0.83362   0.42106   0.16692   0.00000  Uiso   1.00
C382   C     0.88074   0.35730   0.17148   0.00000  Uiso   1.00
C383   C     0.83312   0.62364   0.16611   0.00000  Uiso   1.00
C384   C     0.83355   0.37636   0.16723   0.00000  Uiso   1.00
C385   C     0.80634   0.46921   0.02159   0.00000  Uiso   1.00
C386   C     0.86032   0.53079   0.31175   0.00000  Uiso   1.00
C387   C     0.80802   0.46846   0.30580   0.00000  Uiso   1.00
C388   C     0.85864   0.53154   0.02753   0.00000  Uiso   1.00
C389   C     0.98507   0.49663   0.06538   0.00000  Uiso   1.00
C390   C     0.68160   0.50337   0.26796   0.00000  Uiso   1.00
C391   C     0.73552   0.37376   0.15829   0.00000  Uiso   1.00
C392   C     0.83304   0.57894   0.16641   0.00000  Uiso   1.00
C393   C     0.93115   0.62624   0.17504   0.00000  Uiso   1.00
C394   C     0.73504   0.61722   0.15687   0.00000  Uiso   1.00
C395   C     0.93163   0.38278   0.17647   0.00000  Uiso   1.00
C396   C     0.77251   0.43572   0.04135   0.00000  Uiso   1.00
C397   C     0.89416   0.56428   0.29199   0.00000  Uiso   1.00
C398   C     0.80021   0.39334   0.28855   0.00000  Uiso   1.00
C399   C     0.86646   0.60666   0.04478   0.00000  Uiso   1.00
C400   C     0.73487   0.49905   0.15482   0.00000  Uiso   1.00
C401   C     0.93180   0.50095   0.17851   0.00000  Uiso   1.00
C402   C     0.67954   0.49453   0.14908   0.00000  Uiso   1.00
C403   C     0.98712   0.50547   0.18425   0.00000  Uiso   1.00
C404   C     0.78614   0.35292   0.16244   0.00000  Uiso   1.00
C405   C     0.88052   0.64708   0.17089   0.00000  Uiso   1.00
C406   C     0.78592   0.64270   0.16186   0.00000  Uiso   1.00
Cu407  Cu    0.83333   0.50001   0.21355   0.00000  Uiso   1.00
Cu408  Cu    0.83333   0.49999   0.11978   0.00000  Uiso   1.00
H409   H     0.99920   0.44367   0.10546   0.00000  Uiso   1.00
H410   H     0.71440   0.36334   0.18732   0.00000  Uiso   1.00
H411   H     0.73955   0.40808   0.15978   0.00000  Uiso   1.00
H412   H     0.95473   0.63442   0.20877   0.00000  Uiso   1.00
H413   H     0.92711   0.59192   0.17355   0.00000  Uiso   1.00
H414   H     0.95227   0.63666   0.14602   0.00000  Uiso   1.00
H415   H     0.73873   0.58338   0.15576   0.00000  Uiso   1.00
H416   H     0.71464   0.62314   0.18685   0.00000  Uiso   1.00
H417   H     0.71100   0.62566   0.12398   0.00000  Uiso   1.00
H418   H     0.92794   0.41662   0.17758   0.00000  Uiso   1.00
H419   H     0.95567   0.37434   0.20935   0.00000  Uiso   1.00
H420   H     0.95182   0.48421   0.04076   0.00000  Uiso   1.00
H421   H     0.95203   0.37686   0.14649   0.00000  Uiso   1.00
H422   H     0.75821   0.44431   0.07309   0.00000  Uiso   1.00
H423   H     0.73701   0.42855   0.01673   0.00000  Uiso   1.00
H424   H     0.79341   0.40700   0.04839   0.00000  Uiso   1.00
H425   H     0.92965   0.57145   0.31660   0.00000  Uiso   1.00
H426   H     0.90846   0.55569   0.26024   0.00000  Uiso   1.00
H427   H     0.87325   0.59300   0.28495   0.00000  Uiso   1.00
H428   H     0.76151   0.44004   0.24738   0.00000  Uiso   1.00
H429   H     0.80924   0.37957   0.25624   0.00000  Uiso   1.00
H430   H     0.76978   0.37284   0.30142   0.00000  Uiso   1.00
H431   H     0.68694   0.49348   0.04914   0.00000  Uiso   1.00
H432   H     0.83541   0.39392   0.31457   0.00000  Uiso   1.00
H433   H     0.90515   0.55996   0.08595   0.00000  Uiso   1.00
H434   H     0.85743   0.62043   0.07709   0.00000  Uiso   1.00
H435   H     0.83126   0.60608   0.01876   0.00000  Uiso   1.00
H436   H     0.89689   0.62716   0.03191   0.00000  Uiso   1.00
H437   H     0.98063   0.53008   0.07120   0.00000  Uiso   1.00
H438   H     0.66747   0.55633   0.22787   0.00000  Uiso   1.00
H439   H     0.71485   0.51579   0.29258   0.00000  Uiso   1.00
H440   H     0.68604   0.46992   0.26213   0.00000  Uiso   1.00
H441   H     0.97973   0.50651   0.28419   0.00000  Uiso   1.00
H442   H     0.71194   0.36558   0.12456   0.00000  Uiso   1.00
N443   N     0.83335   0.50001   0.28403   0.00000  Uiso   1.00
N444   N     0.83332   0.49999   0.04931   0.00000  Uiso   1.00
N445   N     0.98743   0.47327   0.10862   0.00000  Uiso   1.00
N446   N     0.67924   0.52673   0.22471   0.00000  Uiso   1.00
N447   N     0.78183   0.43461   0.27949   0.00000  Uiso   1.00
N448   N     0.88483   0.56539   0.05384   0.00000  Uiso   1.00
O449   O     0.83333   0.43989   0.20625   0.00000  Uiso   1.00
O450   O     0.83334   0.56011   0.12709   0.00000  Uiso   1.00
O451   O     0.83333   0.43988   0.12706   0.00000  Uiso   1.00
O452   O     0.83334   0.56012   0.20628   0.00000  Uiso   1.00
O453   O     0.75828   0.50000   0.19712   0.00000  Uiso   1.00
O454   O     0.90839   0.50000   0.13621   0.00000  Uiso   1.00
O455   O     0.75828   0.49999   0.11793   0.00000  Uiso   1.00
O456   O     0.90839   0.50001   0.21540   0.00000  Uiso   1.00
C457   C     0.16696   0.75439   0.16692   0.00000  Uiso   1.00
C458   C     0.21408   0.69063   0.17148   0.00000  Uiso   1.00
C459   C     0.16645   0.95697   0.16611   0.00000  Uiso   1.00
C460   C     0.16688   0.70969   0.16723   0.00000  Uiso   1.00
C461   C     0.13968   0.80255   0.02159   0.00000  Uiso   1.00
C462   C     0.19366   0.86412   0.31175   0.00000  Uiso   1.00
C463   C     0.14135   0.80179   0.30580   0.00000  Uiso   1.00
C464   C     0.19198   0.86488   0.02753   0.00000  Uiso   1.00
C465   C     0.31840   0.82997   0.06538   0.00000  Uiso   1.00
C466   C     0.01493   0.83670   0.26796   0.00000  Uiso   1.00
C467   C     0.06885   0.70709   0.15829   0.00000  Uiso   1.00
C468   C     0.16638   0.91228   0.16641   0.00000  Uiso   1.00
C469   C     0.26448   0.95957   0.17504   0.00000  Uiso   1.00
C470   C     0.06837   0.95056   0.15687   0.00000  Uiso   1.00
C471   C     0.26496   0.71611   0.17647   0.00000  Uiso   1.00
C472   C     0.10584   0.76905   0.04135   0.00000  Uiso   1.00
C473   C     0.22749   0.89762   0.29199   0.00000  Uiso   1.00
C474   C     0.13354   0.72667   0.28855   0.00000  Uiso   1.00
C475   C     0.19979   0.94000   0.04478   0.00000  Uiso   1.00
C476   C     0.06820   0.83239   0.15482   0.00000  Uiso   1.00
C477   C     0.26513   0.83428   0.17851   0.00000  Uiso   1.00
C478   C     0.01288   0.82786   0.14908   0.00000  Uiso   1.00
C479   C     0.32046   0.83880   0.18425   0.00000  Uiso   1.00
C480   C     0.11948   0.68626   0.16244   0.00000  Uiso   1.00
C481   C     0.21386   0.98041   0.17089   0.00000  Uiso   1.00
C482   C     0.11926   0.97604   0.16186   0.00000  Uiso   1.00
Cu483  Cu    0.16667   0.83334   0.21355   0.00000  Uiso   1.00
Cu484  Cu    0.16667   0.83333   0.11978   0.00000  Uiso   1.00
H485   H     0.33253   0.77700   0.10546   0.00000  Uiso   1.00
H486   H     0.04773   0.69667   0.18732   0.00000  Uiso   1.00
H487   H     0.07289   0.74141   0.15978   0.00000  Uiso   1.00
H488   H     0.28806   0.96775   0.20877   0.00000  Uiso   1.00
H489   H     0.26045   0.92526   0.17355   0.00000  Uiso   1.00
H490   H     0.28560   0.96999   0.14602   0.00000  Uiso   1.00
H491   H     0.07206   0.91671   0.15576   0.00000  Uiso   1.00
H492   H     0.04797   0.95647   0.18685   0.00000  Uiso   1.00
H493   H     0.04433   0.95900   0.12398   0.00000  Uiso   1.00
H494   H     0.26127   0.74995   0.17758   0.00000  Uiso   1.00
H495   H     0.28900   0.70767   0.20935   0.00000  Uiso   1.00
H496   H     0.28515   0.81754   0.04076   0.00000  Uiso   1.00
H497   H     0.28536   0.71020   0.14649   0.00000  Uiso   1.00
H498   H     0.09154   0.77764   0.07309   0.00000  Uiso   1.00
H499   H     0.07035   0.76189   0.01673   0.00000  Uiso   1.00
H500   H     0.12675   0.74033   0.04839   0.00000  Uiso   1.00
H501   H     0.26299   0.90478   0.31660   0.00000  Uiso   1.00
H502   H     0.24179   0.88903   0.26024   0.00000  Uiso   1.00
H503   H     0.20658   0.92634   0.28495   0.00000  Uiso   1.00
H504   H     0.09485   0.77337   0.24738   0.00000  Uiso   1.00
H505   H     0.14257   0.71290   0.25624   0.00000  Uiso   1.00
H506   H     0.10311   0.70618   0.30142   0.00000  Uiso   1.00
H507   H     0.02027   0.82682   0.04914   0.00000  Uiso   1.00
H508   H     0.16874   0.72725   0.31457   0.00000  Uiso   1.00
H509   H     0.23849   0.89329   0.08595   0.00000  Uiso   1.00
H510   H     0.19076   0.95376   0.07709   0.00000  Uiso   1.00
H511   H     0.16459   0.93942   0.01876   0.00000  Uiso   1.00
H512   H     0.23022   0.96049   0.03191   0.00000  Uiso   1.00
H513   H     0.31396   0.86342   0.07120   0.00000  Uiso   1.00
H514   H     0.00080   0.88966   0.22787   0.00000  Uiso   1.00
H515   H     0.04818   0.84912   0.29258   0.00000  Uiso   1.00
H516   H     0.01937   0.80325   0.26213   0.00000  Uiso   1.00
H517   H     0.31306   0.83985   0.28419   0.00000  Uiso   1.00
H518   H     0.04527   0.69891   0.12456   0.00000  Uiso   1.00
N519   N     0.16668   0.83334   0.28403   0.00000  Uiso   1.00
N520   N     0.16665   0.83332   0.04931   0.00000  Uiso   1.00
N521   N     0.32076   0.80660   0.10862   0.00000  Uiso   1.00
N522   N     0.01257   0.86006   0.22471   0.00000  Uiso   1.00
N523   N     0.11517   0.76795   0.27949   0.00000  Uiso   1.00
N524   N     0.21817   0.89872   0.05384   0.00000  Uiso   1.00
O525   O     0.16666   0.77322   0.20625   0.00000  Uiso   1.00
O526   O     0.16667   0.89345   0.12709   0.00000  Uiso   1.00
O527   O     0.16666   0.77321   0.12706   0.00000  Uiso   1.00
O528   O     0.16667   0.89346   0.20628   0.00000  Uiso   1.00
O529   O     0.09161   0.83334   0.19712   0.00000  Uiso   1.00
O530   O     0.24172   0.83333   0.13621   0.00000  Uiso   1.00
O531   O     0.09161   0.83333   0.11793   0.00000  Uiso   1.00
O532   O     0.24172   0.83334   0.21540   0.00000  Uiso   1.00
C533   C     0.50029   0.75439   0.16692   0.00000  Uiso   1.00
C534   C     0.54741   0.69063   0.17148   0.00000  Uiso   1.00
C535   C     0.49978   0.95697   0.16611   0.00000  Uiso   1.00
C536   C     0.50022   0.70969   0.16723   0.00000  Uiso   1.00
C537   C     0.47301   0.80255   0.02159   0.00000  Uiso   1.00
C538   C     0.52699   0.86412   0.31175   0.00000  Uiso   1.00
C539   C     0.47469   0.80179   0.30580   0.00000  Uiso   1.00
C540   C     0.52531   0.86488   0.02753   0.00000  Uiso   1.00
C541   C     0.65173   0.82997   0.06538   0.00000  Uiso   1.00
C542   C     0.34827   0.83670   0.26796   0.00000  Uiso   1.00
C543   C     0.40219   0.70709   0.15829   0.00000  Uiso   1.00
C544   C     0.49971   0.91228   0.16641   0.00000  Uiso   1.00
C545   C     0.59781   0.95957   0.17504   0.00000  Uiso   1.00
C546   C     0.40171   0.95056   0.15687   0.00000  Uiso   1.00
C547   C     0.59829   0.71611   0.17647   0.00000  Uiso   1.00
C548   C     0.43917   0.76905   0.04135   0.00000  Uiso   1.00
C549   C     0.56082   0.89762   0.29199   0.00000  Uiso   1.00
C550   C     0.46687   0.72667   0.28855   0.00000  Uiso   1.00
C551   C     0.53313   0.94000   0.04478   0.00000  Uiso   1.00
C552   C     0.40154   0.83239   0.15482   0.00000  Uiso   1.00
C553   C     0.59846   0.83428   0.17851   0.00000  Uiso   1.00
C554   C     0.34621   0.82786   0.14908   0.00000  Uiso   1.00
C555   C     0.65379   0.83880   0.18425   0.00000  Uiso   1.00
C556   C     0.45281   0.68626   0.16244   0.00000  Uiso   1.00
C557   C     0.54719   0.98041   0.17089   0.00000  Uiso   1.00
C558   C     0.45259   0.97604   0.16186   0.00000  Uiso   1.00
Cu559  Cu    0.50000   0.83334   0.21355   0.00000  Uiso   1.00
Cu560  Cu    0.50000   0.83333   0.11978   0.00000  Uiso   1.00
H561   H     0.66587   0.77700   0.10546   0.00000  Uiso   1.00
H562   H     0.38107   0.69667   0.18732   0.00000  Uiso   1.00
H563   H     0.40622   0.74141   0.15978   0.00000  Uiso   1.00
H564   H     0.62140   0.96775   0.20877   0.00000  Uiso   1.00
H565   H     0.59378   0.92526   0.17355   0.00000  Uiso   1.00
H566   H     0.61893   0.96999   0.14602   0.00000  Uiso   1.00
H567   H     0.40539   0.91671   0.15576   0.00000  Uiso   1.00
H568   H     0.38131   0.95647   0.18685   0.00000  Uiso   1.00
H569   H     0.37767   0.95900   0.12398   0.00000  Uiso   1.00
H570   H     0.59461   0.74995   0.17758   0.00000  Uiso   1.00
H571   H     0.62233   0.70767   0.20935   0.00000  Uiso   1.00
H572   H     0.61848   0.81754   0.04076   0.00000  Uiso   1.00
H573   H     0.61869   0.71020   0.14649   0.00000  Uiso   1.00
H574   H     0.42487   0.77764   0.07309   0.00000  Uiso   1.00
H575   H     0.40368   0.76189   0.01673   0.00000  Uiso   1.00
H576   H     0.46008   0.74033   0.04839   0.00000  Uiso   1.00
H577   H     0.59632   0.90478   0.31660   0.00000  Uiso   1.00
H578   H     0.57513   0.88903   0.26024   0.00000  Uiso   1.00
H579   H     0.53992   0.92634   0.28495   0.00000  Uiso   1.00
H580   H     0.42818   0.77337   0.24738   0.00000  Uiso   1.00
H581   H     0.47591   0.71290   0.25624   0.00000  Uiso   1.00
H582   H     0.43645   0.70618   0.30142   0.00000  Uiso   1.00
H583   H     0.35360   0.82682   0.04914   0.00000  Uiso   1.00
H584   H     0.50208   0.72725   0.31457   0.00000  Uiso   1.00
H585   H     0.57182   0.89329   0.08595   0.00000  Uiso   1.00
H586   H     0.52409   0.95376   0.07709   0.00000  Uiso   1.00
H587   H     0.49792   0.93942   0.01876   0.00000  Uiso   1.00
H588   H     0.56355   0.96049   0.03191   0.00000  Uiso   1.00
H589   H     0.64730   0.86342   0.07120   0.00000  Uiso   1.00
H590   H     0.33413   0.88966   0.22787   0.00000  Uiso   1.00
H591   H     0.38152   0.84912   0.29258   0.00000  Uiso   1.00
H592   H     0.35270   0.80325   0.26213   0.00000  Uiso   1.00
H593   H     0.64640   0.83985   0.28419   0.00000  Uiso   1.00
H594   H     0.37860   0.69891   0.12456   0.00000  Uiso   1.00
N595   N     0.50001   0.83334   0.28403   0.00000  Uiso   1.00
N596   N     0.49999   0.83332   0.04931   0.00000  Uiso   1.00
N597   N     0.65410   0.80660   0.10862   0.00000  Uiso   1.00
N598   N     0.34590   0.86006   0.22471   0.00000  Uiso   1.00
N599   N     0.44850   0.76795   0.27949   0.00000  Uiso   1.00
N600   N     0.55150   0.89872   0.05384   0.00000  Uiso   1.00
O601   O     0.50000   0.77322   0.20625   0.00000  Uiso   1.00
O602   O     0.50000   0.89345   0.12709   0.00000  Uiso   1.00
O603   O     0.50000   0.77321   0.12706   0.00000  Uiso   1.00
O604   O     0.50000   0.89346   0.20628   0.00000  Uiso   1.00
O605   O     0.42495   0.83334   0.19712   0.00000  Uiso   1.00
O606   O     0.57505   0.83333   0.13621   0.00000  Uiso   1.00
O607   O     0.42494   0.83333   0.11793   0.00000  Uiso   1.00
O608   O     0.57506   0.83334   0.21540   0.00000  Uiso   1.00
C609   C     0.83362   0.75439   0.16692   0.00000  Uiso   1.00
C610   C     0.88074   0.69063   0.17148   0.00000  Uiso   1.00
C611   C     0.83312   0.95697   0.16611   0.00000  Uiso   1.00
C612   C     0.83355   0.70969   0.16723   0.00000  Uiso   1.00
C613   C     0.80634   0.80255   0.02159   0.00000  Uiso   1.00
C614   C     0.86032   0.86412   0.31175   0.00000  Uiso   1.00
C615   C     0.80802   0.80179   0.30580   0.00000  Uiso   1.00
C616   C     0.85864   0.86488   0.02753   0.00000  Uiso   1.00
C617   C     0.98507   0.82997   0.06538   0.00000  Uiso   1.00
C618   C     0.68160   0.83670   0.26796   0.00000  Uiso   1.00
C619   C     0.73552   0.70709   0.15829   0.00000  Uiso   1.00
C620   C     0.83304   0.91228   0.16641   0.00000  Uiso   1.00
C621   C     0.93115   0.95957   0.17504   0.00000  Uiso   1.00
C622   C     0.73504   0.95056   0.15687   0.00000  Uiso   1.00
C623   C     0.93163   0.71611   0.17647   0.00000  Uiso   1.00
C624   C     0.77251   0.76905   0.04135   0.00000  Uiso   1.00
C625   C     0.89416   0.89762   0.29199   0.00000  Uiso   1.00
C626   C     0.80021   0.72667   0.28855   0.00000  Uiso   1.00
C627   C     0.86646   0.94000   0.04478   0.00000  Uiso   1.00
C628   C     0.73487   0.83239   0.15482   0.00000  Uiso   1.00
C629   C     0.93180   0.83428   0.17851   0.00000  Uiso   1.00
C630   C     0.67954   0.82786   0.14908   0.00000  Uiso   1.00
C631   C     0.98712   0.83880   0.18425   0.00000  Uiso   1.00
C632   C     0.78614   0.68626   0.16244   0.00000  Uiso   1.00
C633   C     0.88052   0.98041   0.17089   0.00000  Uiso   1.00
C634   C     0.78592   0.97604   0.16186   0.00000  Uiso   1.00
Cu635  Cu    0.83333   0.83334   0.21355   0.00000  Uiso   1.00
Cu636  Cu    0.83333   0.83333   0.11978   0.00000  Uiso   1.00
H637   H     0.99920   0.77700   0.10546   0.00000  Uiso   1.00
H638   H     0.71440   0.69667   0.18732   0.00000  Uiso   1.00
H639   H     0.73955   0.74141   0.15978   0.00000  Uiso   1.00
H640   H     0.95473   0.96775   0.20877   0.00000  Uiso   1.00
H641   H     0.92711   0.92526   0.17355   0.00000  Uiso   1.00
H642   H     0.95227   0.96999   0.14602   0.00000  Uiso   1.00
H643   H     0.73873   0.91671   0.15576   0.00000  Uiso   1.00
H644   H     0.71464   0.95647   0.18685   0.00000  Uiso   1.00
H645   H     0.71100   0.95900   0.12398   0.00000  Uiso   1.00
H646   H     0.92794   0.74995   0.17758   0.00000  Uiso   1.00
H647   H     0.95567   0.70767   0.20935   0.00000  Uiso   1.00
H648   H     0.95182   0.81754   0.04076   0.00000  Uiso   1.00
H649   H     0.95203   0.71020   0.14649   0.00000  Uiso   1.00
H650   H     0.75821   0.77764   0.07309   0.00000  Uiso   1.00
H651   H     0.73701   0.76189   0.01673   0.00000  Uiso   1.00
H652   H     0.79341   0.74033   0.04839   0.00000  Uiso   1.00
H653   H     0.92965   0.90478   0.31660   0.00000  Uiso   1.00
H654   H     0.90846   0.88903   0.26024   0.00000  Uiso   1.00
H655   H     0.87325   0.92634   0.28495   0.00000  Uiso   1.00
H656   H     0.76151   0.77337   0.24738   0.00000  Uiso   1.00
H657   H     0.80924   0.71290   0.25624   0.00000  Uiso   1.00
H658   H     0.76978   0.70618   0.30142   0.00000  Uiso   1.00
H659   H     0.68694   0.82682   0.04914   0.00000  Uiso   1.00
H660   H     0.83541   0.72725   0.31457   0.00000  Uiso   1.00
H661   H     0.90515   0.89329   0.08595   0.00000  Uiso   1.00
H662   H     0.85743   0.95376   0.07709   0.00000  Uiso   1.00
H663   H     0.83126   0.93942   0.01876   0.00000  Uiso   1.00
H664   H     0.89689   0.96049   0.03191   0.00000  Uiso   1.00
H665   H     0.98063   0.86342   0.07120   0.00000  Uiso   1.00
H666   H     0.66747   0.88966   0.22787   0.00000  Uiso   1.00
H667   H     0.71485   0.84912   0.29258   0.00000  Uiso   1.00
H668   H     0.68604   0.80325   0.26213   0.00000  Uiso   1.00
H669   H     0.97973   0.83985   0.28419   0.00000  Uiso   1.00
H670   H     0.71194   0.69891   0.12456   0.00000  Uiso   1.00
N671   N     0.83335   0.83334   0.28403   0.00000  Uiso   1.00
N672   N     0.83332   0.83332   0.04931   0.00000  Uiso   1.00
N673   N     0.98743   0.80660   0.10862   0.00000  Uiso   1.00
N674   N     0.67924   0.86006   0.22471   0.00000  Uiso   1.00
N675   N     0.78183   0.76795   0.27949   0.00000  Uiso   1.00
N676   N     0.88483   0.89872   0.05384   0.00000  Uiso   1.00
O677   O     0.83333   0.77322   0.20625   0.00000  Uiso   1.00
O678   O     0.83334   0.89345   0.12709   0.00000  Uiso   1.00
O679   O     0.83333   0.77321   0.12706   0.00000  Uiso   1.00
O680   O     0.83334   0.89346   0.20628   0.00000  Uiso   1.00
O681   O     0.75828   0.83334   0.19712   0.00000  Uiso   1.00
O682   O     0.90839   0.83333   0.13621   0.00000  Uiso   1.00
O683   O     0.75828   0.83333   0.11793   0.00000  Uiso   1.00
O684   O     0.90839   0.83334   0.21540   0.00000  Uiso   1.00
C685   C     0.16696   0.08772   0.50026   0.00000  Uiso   1.00
C686   C     0.21408   0.02396   0.50481   0.00000  Uiso   1.00
C687   C     0.16645   0.29030   0.49944   0.00000  Uiso   1.00
C688   C     0.16688   0.04303   0.50056   0.00000  Uiso   1.00
C689   C     0.13968   0.13588   0.35492   0.00000  Uiso   1.00
C690   C     0.19366   0.19745   0.64508   0.00000  Uiso   1.00
C691   C     0.14135   0.13512   0.63914   0.00000  Uiso   1.00
C692   C     0.19198   0.19821   0.36086   0.00000  Uiso   1.00
C693   C     0.31840   0.16330   0.39871   0.00000  Uiso   1.00
C694   C     0.01493   0.17003   0.60129   0.00000  Uiso   1.00
C695   C     0.06885   0.04043   0.49162   0.00000  Uiso   1.00
C696   C     0.16638   0.24561   0.49974   0.00000  Uiso   1.00
C697   C     0.26448   0.29291   0.50838   0.00000  Uiso   1.00
C698   C     0.06837   0.28389   0.49020   0.00000  Uiso   1.00
C699   C     0.26496   0.04944   0.50980   0.00000  Uiso   1.00
C700   C     0.10584   0.10238   0.37468   0.00000  Uiso   1.00
C701   C     0.22749   0.23095   0.62532   0.00000  Uiso   1.00
C702   C     0.13354   0.06000   0.62189   0.00000  Uiso   1.00
C703   C     0.19979   0.27333   0.37811   0.00000  Uiso   1.00
C704   C     0.06820   0.16572   0.48816   0.00000  Uiso   1.00
C705   C     0.26513   0.16761   0.51184   0.00000  Uiso   1.00
C706   C     0.01288   0.16120   0.48242   0.00000  Uiso   1.00
C707   C     0.32046   0.17214   0.51758   0.00000  Uiso   1.00
C708   C     0.11948   0.01959   0.49578   0.00000  Uiso   1.00
C709   C     0.21386   0.31374   0.50422   0.00000  Uiso   1.00
C710   C     0.11926   0.30937   0.49519   0.00000  Uiso   1.00
Cu711  Cu    0.16667   0.16667   0.54689   0.00000  Uiso   1.00
Cu712  Cu    0.16667   0.16666   0.45311   0.00000  Uiso   1.00
H713   H     0.33253   0.11034   0.43879   0.00000  Uiso   1.00
H714   H     0.04773   0.03001   0.52065   0.00000  Uiso   1.00
H715   H     0.07289   0.07474   0.49311   0.00000  Uiso   1.00
H716   H     0.28806   0.30109   0.54210   0.00000  Uiso   1.00
H717   H     0.26045   0.25859   0.50689   0.00000  Uiso   1.00
H718   H     0.28560   0.30333   0.47935   0.00000  Uiso   1.00
H719   H     0.07206   0.25005   0.48909   0.00000  Uiso   1.00
H720   H     0.04797   0.28980   0.52018   0.00000  Uiso   1.00
H721   H     0.04433   0.29233   0.45732   0.00000  Uiso   1.00
H722   H     0.26127   0.08329   0.51091   0.00000  Uiso   1.00
H723   H     0.28900   0.04100   0.54268   0.00000  Uiso   1.00
H724   H     0.28515   0.15088   0.37409   0.00000  Uiso   1.00
H725   H     0.28536   0.04353   0.47982   0.00000  Uiso   1.00
H726   H     0.09154   0.11097   0.40642   0.00000  Uiso   1.00
H727   H     0.07035   0.09522   0.35006   0.00000  Uiso   1.00
H728   H     0.12675   0.07366   0.38172   0.00000  Uiso   1.00
H729   H     0.26299   0.23811   0.64994   0.00000  Uiso   1.00
H730   H     0.24179   0.22236   0.59358   0.00000  Uiso   1.00
H731   H     0.20658   0.25967   0.61828   0.00000  Uiso   1.00
H732   H     0.09485   0.10671   0.58072   0.00000  Uiso   1.00
H733   H     0.14257   0.04624   0.58958   0.00000  Uiso   1.00
H734   H     0.10311   0.03951   0.63476   0.00000  Uiso   1.00
H735   H     0.02027   0.16015   0.38248   0.00000  Uiso   1.00
H736   H     0.16874   0.06058   0.64790   0.00000  Uiso   1.00
H737   H     0.23849   0.22663   0.41928   0.00000  Uiso   1.00
H738   H     0.19076   0.28709   0.41042   0.00000  Uiso   1.00
H739   H     0.16459   0.27275   0.35210   0.00000  Uiso   1.00
H740   H     0.23022   0.29382   0.36524   0.00000  Uiso   1.00
H741   H     0.31396   0.19675   0.40453   0.00000  Uiso   1.00
H742   H     0.00080   0.22300   0.56121   0.00000  Uiso   1.00
H743   H     0.04818   0.18246   0.62591   0.00000  Uiso   1.00
H744   H     0.01937   0.13658   0.59547   0.00000  Uiso   1.00
H745   H     0.31306   0.17318   0.61752   0.00000  Uiso   1.00
H746   H     0.04527   0.03225   0.45790   0.00000  Uiso   1.00
N747   N     0.16668   0.16668   0.61736   0.00000  Uiso   1.00
N748   N     0.16665   0.16666   0.38264   0.00000  Uiso   1.00
N749   N     0.32076   0.13994   0.44196   0.00000  Uiso   1.00
N750   N     0.01257   0.19340   0.55804   0.00000  Uiso   1.00
N751   N     0.11517   0.10128   0.61282   0.00000  Uiso   1.00
N752   N     0.21817   0.23205   0.38718   0.00000  Uiso   1.00
O753   O     0.16666   0.10655   0.53958   0.00000  Uiso   1.00
O754   O     0.16667   0.22678   0.46042   0.00000  Uiso   1.00
O755   O     0.16666   0.10654   0.46039   0.00000  Uiso   1.00
O756   O     0.16667   0.22679   0.53961   0.00000  Uiso   1.00
O757   O     0.09161   0.16667   0.53046   0.00000  Uiso   1.00
O758   O     0.24172   0.16666   0.46954   0.00000  Uiso   1.00
O759   O     0.09161   0.16666   0.45127   0.00000  Uiso   1.00
O760   O     0.24172   0.16667   0.54873   0.00000  Uiso   1.00
C761   C     0.50029   0.08772   0.50026   0.00000  Uiso   1.00
C762   C     0.54741   0.02396   0.50481   0.00000  Uiso   1.00
C763   C     0.49978   0.29030   0.49944   0.00000  Uiso   1.00
C764   C     0.50022   0.04303   0.50056   0.00000  Uiso   1.00
C765   C     0.47301   0.13588   0.35492   0.00000  Uiso   1.00
C766   C     0.52699   0.19745   0.64508   0.00000  Uiso   1.00
C767   C     0.47469   0.13512   0.63914   0.00000  Uiso   1.00
C768   C     0.52531   0.19821   0.36086   0.00000  Uiso   1.00
C769   C     0.65173   0.16330   0.39871   0.00000  Uiso   1.00
C770   C     0.34827   0.17003   0.60129   0.00000  Uiso   1.00
C771   C     0.40219   0.04043   0.49162   0.00000  Uiso   1.00
C772   C     0.49971   0.24561   0.49974   0.00000  Uiso   1.00
C773   C     0.59781   0.29291   0.50838   0.00000  Uiso   1.00
C774   C     0.40171   0.28389   0.49020   0.00000  Uiso   1.00
C775   C     0.59829   0.04944   0.50980   0.00000  Uiso   1.00
C776   C     0.43917   0.10238   0.37468   0.00000  Uiso   1.00
C777   C     0.56082   0.23095   0.62532   0.00000  Uiso   1.00
C778   C     0.46687   0.06000   0.62189   0.00000  Uiso   1.00
C779   C     0.53313   0.27333   0.37811   0.00000  Uiso   1.00
C780   C     0.40154   0.16572   0.48816   0.00000  Uiso   1.00
C781   C     0.59846   0.16761   0.51184   0.00000  Uiso   1.00
C782   C     0.34621   0.16120   0.48242   0.00000  Uiso   1.00
C783   C     0.65379   0.17214   0.51758   0.00000  Uiso   1.00
C784   C     0.45281   0.01959   0.49578   0.00000  Uiso   1.00
C785   C     0.54719   0.31374   0.50422   0.00000  Uiso   1.00
C786   C     0.45259   0.30937   0.49519   0.00000  Uiso   1.00
Cu787  Cu    0.50000   0.16667   0.54689   0.00000  Uiso   1.00
Cu788  Cu    0.50000   0.16666   0.45311   0.00000  Uiso   1.00
H789   H     0.66587   0.11034   0.43879   0.00000  Uiso   1.00
H790   H     0.38107   0.03001   0.52065   0.00000  Uiso   1.00
H791   H     0.40622   0.07474   0.49311   0.00000  Uiso   1.00
H792   H     0.62140   0.30109   0.54210   0.00000  Uiso   1.00
H793   H     0.59378   0.25859   0.50689   0.00000  Uiso   1.00
H794   H     0.61893   0.30333   0.47935   0.00000  Uiso   1.00
H795   H     0.40539   0.25005   0.48909   0.00000  Uiso   1.00
H796   H     0.38131   0.28980   0.52018   0.00000  Uiso   1.00
H797   H     0.37767   0.29233   0.45732   0.00000  Uiso   1.00
H798   H     0.59461   0.08329   0.51091   0.00000  Uiso   1.00
H799   H     0.62233   0.04100   0.54268   0.00000  Uiso   1.00
H800   H     0.61848   0.15088   0.37409   0.00000  Uiso   1.00
H801   H     0.61869   0.04353   0.47982   0.00000  Uiso   1.00
H802   H     0.42487   0.11097   0.40642   0.00000  Uiso   1.00
H803   H     0.40368   0.09522   0.35006   0.00000  Uiso   1.00
H804   H     0.46008   0.07366   0.38172   0.00000  Uiso   1.00
H805   H     0.59632   0.23811   0.64994   0.00000  Uiso   1.00
H806   H     0.57513   0.22236   0.59358   0.00000  Uiso   1.00
H807   H     0.53992   0.25967   0.61828   0.00000  Uiso   1.00
H808   H     0.42818   0.10671   0.58072   0.00000  Uiso   1.00
H809   H     0.47591   0.04624   0.58958   0.00000  Uiso   1.00
H810   H     0.43645   0.03951   0.63476   0.00000  Uiso   1.00
H811   H     0.35360   0.16015   0.38248   0.00000  Uiso   1.00
H812   H     0.50208   0.06058   0.64790   0.00000  Uiso   1.00
H813   H     0.57182   0.22663   0.41928   0.00000  Uiso   1.00
H814   H     0.52409   0.28709   0.41042   0.00000  Uiso   1.00
H815   H     0.49792   0.27275   0.35210   0.00000  Uiso   1.00
H816   H     0.56355   0.29382   0.36524   0.00000  Uiso   1.00
H817   H     0.64730   0.19675   0.40453   0.00000  Uiso   1.00
H818   H     0.33413   0.22300   0.56121   0.00000  Uiso   1.00
H819   H     0.38152   0.18246   0.62591   0.00000  Uiso   1.00
H820   H     0.35270   0.13658   0.59547   0.00000  Uiso   1.00
H821   H     0.64640   0.17318   0.61752   0.00000  Uiso   1.00
H822   H     0.37860   0.03225   0.45790   0.00000  Uiso   1.00
N823   N     0.50001   0.16668   0.61736   0.00000  Uiso   1.00
N824   N     0.49999   0.16666   0.38264   0.00000  Uiso   1.00
N825   N     0.65410   0.13994   0.44196   0.00000  Uiso   1.00
N826   N     0.34590   0.19340   0.55804   0.00000  Uiso   1.00
N827   N     0.44850   0.10128   0.61282   0.00000  Uiso   1.00
N828   N     0.55150   0.23205   0.38718   0.00000  Uiso   1.00
O829   O     0.50000   0.10655   0.53958   0.00000  Uiso   1.00
O830   O     0.50000   0.22678   0.46042   0.00000  Uiso   1.00
O831   O     0.50000   0.10654   0.46039   0.00000  Uiso   1.00
O832   O     0.50000   0.22679   0.53961   0.00000  Uiso   1.00
O833   O     0.42495   0.16667   0.53046   0.00000  Uiso   1.00
O834   O     0.57505   0.16666   0.46954   0.00000  Uiso   1.00
O835   O     0.42494   0.16666   0.45127   0.00000  Uiso   1.00
O836   O     0.57506   0.16667   0.54873   0.00000  Uiso   1.00
C837   C     0.83362   0.08772   0.50026   0.00000  Uiso   1.00
C838   C     0.88074   0.02396   0.50481   0.00000  Uiso   1.00
C839   C     0.83312   0.29030   0.49944   0.00000  Uiso   1.00
C840   C     0.83355   0.04303   0.50056   0.00000  Uiso   1.00
C841   C     0.80634   0.13588   0.35492   0.00000  Uiso   1.00
C842   C     0.86032   0.19745   0.64508   0.00000  Uiso   1.00
C843   C     0.80802   0.13512   0.63914   0.00000  Uiso   1.00
C844   C     0.85864   0.19821   0.36086   0.00000  Uiso   1.00
C845   C     0.98507   0.16330   0.39871   0.00000  Uiso   1.00
C846   C     0.68160   0.17003   0.60129   0.00000  Uiso   1.00
C847   C     0.73552   0.04043   0.49162   0.00000  Uiso   1.00
C848   C     0.83304   0.24561   0.49974   0.00000  Uiso   1.00
C849   C     0.93115   0.29291   0.50838   0.00000  Uiso   1.00
C850   C     0.73504   0.28389   0.49020   0.00000  Uiso   1.00
C851   C     0.93163   0.04944   0.50980   0.00000  Uiso   1.00
C852   C     0.77251   0.10238   0.37468   0.00000  Uiso   1.00
C853   C     0.89416   0.23095   0.62532   0.00000  Uiso   1.00
C854   C     0.80021   0.06000   0.62189   0.00000  Uiso   1.00
C855   C     0.86646   0.27333   0.37811   0.00000  Uiso   1.00
C856   C     0.73487   0.16572   0.48816   0.00000  Uiso   1.00
C857   C     0.93180   0.16761   0.51184   0.00000  Uiso   1.00
C858   C     0.67954   0.16120   0.48242   0.00000  Uiso   1.00
C859   C     0.98712   0.17214   0.51758   0.00000  Uiso   1.00
C860   C     0.78614   0.01959   0.49578   0.00000  Uiso   1.00
C861   C     0.88052   0.31374   0.50422   0.00000  Uiso   1.00
C862   C     0.78592   0.30937   0.49519   0.00000  Uiso   1.00
Cu863  Cu    0.83333   0.16667   0.54689   0.00000  Uiso   1.00
Cu864  Cu    0.83333   0.16666   0.45311   0.00000  Uiso   1.00
H865   H     0.99920   0.11034   0.43879   0.00000  Uiso   1.00
H866   H     0.71440   0.03001   0.52065   0.00000  Uiso   1.00
H867   H     0.73955   0.07474   0.49311   0.00000  Uiso   1.00
H868   H     0.95473   0.30109   0.54210   0.00000  Uiso   1.00
H869   H     0.92711   0.25859   0.50689   0.00000  Uiso   1.00
H870   H     0.95227   0.30333   0.47935   0.00000  Uiso   1.00
H871   H     0.73873   0.25005   0.48909   0.00000  Uiso   1.00
H872   H     0.71464   0.28980   0.52018   0.00000  Uiso   1.00
H873   H     0.71100   0.29233   0.45732   0.00000  Uiso   1.00
H874   H     0.92794   0.08329   0.51091   0.00000  Uiso   1.00
H875   H     0.95567   0.04100   0.54268   0.00000  Uiso   1.00
H876   H     0.95182   0.15088   0.37409   0.00000  Uiso   1.00
H877   H     0.95203   0.04353   0.47982   0.00000  Uiso   1.00
H878   H     0.75821   0.11097   0.40642   0.00000  Uiso   1.00
H879   H     0.73701   0.09522   0.35006   0.00000  Uiso   1.00
H880   H     0.79341   0.07366   0.38172   0.00000  Uiso   1.00
H881   H     0.92965   0.23811   0.64994   0.00000  Uiso   1.00
H882   H     0.90846   0.22236   0.59358   0.00000  Uiso   1.00
H883   H     0.87325   0.25967   0.61828   0.00000  Uiso   1.00
H884   H     0.76151   0.10671   0.58072   0.00000  Uiso   1.00
H885   H     0.80924   0.04624   0.58958   0.00000  Uiso   1.00
H886   H     0.76978   0.03951   0.63476   0.00000  Uiso   1.00
H887   H     0.68694   0.16015   0.38248   0.00000  Uiso   1.00
H888   H     0.83541   0.06058   0.64790   0.00000  Uiso   1.00
H889   H     0.90515   0.22663   0.41928   0.00000  Uiso   1.00
H890   H     0.85743   0.28709   0.41042   0.00000  Uiso   1.00
H891   H     0.83126   0.27275   0.35210   0.00000  Uiso   1.00
H892   H     0.89689   0.29382   0.36524   0.00000  Uiso   1.00
H893   H     0.98063   0.19675   0.40453   0.00000  Uiso   1.00
H894   H     0.66747   0.22300   0.56121   0.00000  Uiso   1.00
H895   H     0.71485   0.18246   0.62591   0.00000  Uiso   1.00
H896   H     0.68604   0.13658   0.59547   0.00000  Uiso   1.00
H897   H     0.97973   0.17318   0.61752   0.00000  Uiso   1.00
H898   H     0.71194   0.03225   0.45790   0.00000  Uiso   1.00
N899   N     0.83335   0.16668   0.61736   0.00000  Uiso   1.00
N900   N     0.83332   0.16666   0.38264   0.00000  Uiso   1.00
N901   N     0.98743   0.13994   0.44196   0.00000  Uiso   1.00
N902   N     0.67924   0.19340   0.55804   0.00000  Uiso   1.00
N903   N     0.78183   0.10128   0.61282   0.00000  Uiso   1.00
N904   N     0.88483   0.23205   0.38718   0.00000  Uiso   1.00
O905   O     0.83333   0.10655   0.53958   0.00000  Uiso   1.00
O906   O     0.83334   0.22678   0.46042   0.00000  Uiso   1.00
O907   O     0.83333   0.10654   0.46039   0.00000  Uiso   1.00
O908   O     0.83334   0.22679   0.53961   0.00000  Uiso   1.00
O909   O     0.75828   0.16667   0.53046   0.00000  Uiso   1.00
O910   O     0.90839   0.16666   0.46954   0.00000  Uiso   1.00
O911   O     0.75828   0.16666   0.45127   0.00000  Uiso   1.00
O912   O     0.90839   0.16667   0.54873   0.00000  Uiso   1.00
C913   C     0.16696   0.42106   0.50026   0.00000  Uiso   1.00
C914   C     0.21408   0.35730   0.50481   0.00000  Uiso   1.00
C915   C     0.16645   0.62364   0.49944   0.00000  Uiso   1.00
C916   C     0.16688   0.37636   0.50056   0.00000  Uiso   1.00
C917   C     0.13968   0.46921   0.35492   0.00000  Uiso   1.00
C918   C     0.19366   0.53079   0.64508   0.00000  Uiso   1.00
C919   C     0.14135   0.46846   0.63914   0.00000  Uiso   1.00
C920   C     0.19198   0.53154   0.36086   0.00000  Uiso   1.00
C921   C     0.31840   0.49663   0.39871   0.00000  Uiso   1.00
C922   C     0.01493   0.50337   0.60129   0.00000  Uiso   1.00
C923   C     0.06885   0.37376   0.49162   0.00000  Uiso   1.00
C924   C     0.16638   0.57894   0.49974   0.00000  Uiso   1.00
C925   C     0.26448   0.62624   0.50838   0.00000  Uiso   1.00
C926   C     0.06837   0.61722   0.49020   0.00000  Uiso   1.00
C927   C     0.26496   0.38278   0.50980   0.00000  Uiso   1.00
C928   C     0.10584   0.43572   0.37468   0.00000  Uiso   1.00
C929   C     0.22749   0.56428   0.62532   0.00000  Uiso   1.00
C930   C     0.13354   0.39334   0.62189   0.00000  Uiso   1.00
C931   C     0.19979   0.60666   0.37811   0.00000  Uiso   1.00
C932   C     0.06820   0.49905   0.48816   0.00000  Uiso   1.00
C933   C     0.26513   0.50095   0.51184   0.00000  Uiso   1.00
C934   C     0.01288   0.49453   0.48242   0.00000  Uiso   1.00
C935   C     0.32046   0.50547   0.51758   0.00000  Uiso   1.00
C936   C     0.11948   0.35292   0.49578   0.00000  Uiso   1.00
C937   C     0.21386   0.64708   0.50422   0.00000  Uiso   1.00
C938   C     0.11926   0.64270   0.49519   0.00000  Uiso   1.00
Cu939  Cu    0.16667   0.50001   0.54689   0.00000  Uiso   1.00
Cu940  Cu    0.16667   0.49999   0.45311   0.00000  Uiso   1.00
H941   H     0.33253   0.44367   0.43879   0.00000  Uiso   1.00
H942   H     0.04773   0.36334   0.52065   0.00000  Uiso   1.00
H943   H     0.07289   0.40808   0.49311   0.00000  Uiso   1.00
H944   H     0.28806   0.63442   0.54210   0.00000  Uiso   1.00
H945   H     0.26045   0.59192   0.50689   0.00000  Uiso   1.00
H946   H     0.28560   0.63666   0.47935   0.00000  Uiso   1.00
H947   H     0.07206   0.58338   0.48909   0.00000  Uiso   1.00
H948   H     0.04797   0.62314   0.52018   0.00000  Uiso   1.00
H949   H     0.04433   0.62566   0.45732   0.00000  Uiso   1.00
H950   H     0.26127   0.41662   0.51091   0.00000  Uiso   1.00
H951   H     0.28900   0.37434   0.54268   0.00000  Uiso   1.00
H952   H     0.28515   0.48421   0.37409   0.00000  Uiso   1.00
H953   H     0.28536   0.37686   0.47982   0.00000  Uiso   1.00
H954   H     0.09154   0.44431   0.40642   0.00000  Uiso   1.00
H955   H     0.07035   0.42855   0.35006   0.00000  Uiso   1.00
H956   H     0.12675   0.40700   0.38172   0.00000  Uiso   1.00
H957   H     0.26299   0.57145   0.64994   0.00000  Uiso   1.00
H958   H     0.24179   0.55569   0.59358   0.00000  Uiso   1.00
H959   H     0.20658   0.59300   0.61828   0.00000  Uiso   1.00
H960   H     0.09485   0.44004   0.58072   0.00000  Uiso   1.00
H961   H     0.14257   0.37957   0.58958   0.00000  Uiso   1.00
H962   H     0.10311   0.37284   0.63476   0.00000  Uiso   1.00
H963   H     0.02027   0.49348   0.38248   0.00000  Uiso   1.00
H964   H     0.16874   0.39392   0.64790   0.00000  Uiso   1.00
H965   H     0.23849   0.55996   0.41928   0.00000  Uiso   1.00
H966   H     0.19076   0.62043   0.41042   0.00000  Uiso   1.00
H967   H     0.16459   0.60608   0.35210   0.00000  Uiso   1.00
H968   H     0.23022   0.62716   0.36524   0.00000  Uiso   1.00
H969   H     0.31396   0.53008   0.40453   0.00000  Uiso   1.00
H970   H     0.00080   0.55633   0.56121   0.00000  Uiso   1.00
H971   H     0.04818   0.51579   0.62591   0.00000  Uiso   1.00
H972   H     0.01937   0.46992   0.59547   0.00000  Uiso   1.00
H973   H     0.31306   0.50651   0.61752   0.00000  Uiso   1.00
H974   H     0.04527   0.36558   0.45790   0.00000  Uiso   1.00
N975   N     0.16668   0.50001   0.61736   0.00000  Uiso   1.00
N976   N     0.16665   0.49999   0.38264   0.00000  Uiso   1.00
N977   N     0.32076   0.47327   0.44196   0.00000  Uiso   1.00
N978   N     0.01257   0.52673   0.55804   0.00000  Uiso   1.00
N979   N     0.11517   0.43461   0.61282   0.00000  Uiso   1.00
N980   N     0.21817   0.56539   0.38718   0.00000  Uiso   1.00
O981   O     0.16666   0.43989   0.53958   0.00000  Uiso   1.00
O982   O     0.16667   0.56011   0.46042   0.00000  Uiso   1.00
O983   O     0.16666   0.43988   0.46039   0.00000  Uiso   1.00
O984   O     0.16667   0.56012   0.53961   0.00000  Uiso   1.00
O985   O     0.09161   0.50000   0.53046   0.00000  Uiso   1.00
O986   O     0.24172   0.50000   0.46954   0.00000  Uiso   1.00
O987   O     0.09161   0.49999   0.45127   0.00000  Uiso   1.00
O988   O     0.24172   0.50001   0.54873   0.00000  Uiso   1.00
C989   C     0.50029   0.42106   0.50026   0.00000  Uiso   1.00
C990   C     0.54741   0.35730   0.50481   0.00000  Uiso   1.00
C991   C     0.49978   0.62364   0.49944   0.00000  Uiso   1.00
C992   C     0.50022   0.37636   0.50056   0.00000  Uiso   1.00
C993   C     0.47301   0.46921   0.35492   0.00000  Uiso   1.00
C994   C     0.52699   0.53079   0.64508   0.00000  Uiso   1.00
C995   C     0.47469   0.46846   0.63914   0.00000  Uiso   1.00
C996   C     0.52531   0.53154   0.36086   0.00000  Uiso   1.00
C997   C     0.65173   0.49663   0.39871   0.00000  Uiso   1.00
C998   C     0.34827   0.50337   0.60129   0.00000  Uiso   1.00
C999   C     0.40219   0.37376   0.49162   0.00000  Uiso   1.00
C1000  C     0.49971   0.57894   0.49974   0.00000  Uiso   1.00
C1001  C     0.59781   0.62624   0.50838   0.00000  Uiso   1.00
C1002  C     0.40171   0.61722   0.49020   0.00000  Uiso   1.00
C1003  C     0.59829   0.38278   0.50980   0.00000  Uiso   1.00
C1004  C     0.43917   0.43572   0.37468   0.00000  Uiso   1.00
C1005  C     0.56082   0.56428   0.62532   0.00000  Uiso   1.00
C1006  C     0.46687   0.39334   0.62189   0.00000  Uiso   1.00
C1007  C     0.53313   0.60666   0.37811   0.00000  Uiso   1.00
C1008  C     0.40154   0.49905   0.48816   0.00000  Uiso   1.00
C1009  C     0.59846   0.50095   0.51184   0.00000  Uiso   1.00
C1010  C     0.34621   0.49453   0.48242   0.00000  Uiso   1.00
C1011  C     0.65379   0.50547   0.51758   0.00000  Uiso   1.00
C1012  C     0.45281   0.35292   0.49578   0.00000  Uiso   1.00
C1013  C     0.54719   0.64708   0.50422   0.00000  Uiso   1.00
C1014  C     0.45259   0.64270   0.49519   0.00000  Uiso   1.00
Cu1015 Cu    0.50000   0.50001   0.54689   0.00000  Uiso   1.00
Cu1016 Cu    0.50000   0.49999   0.45311   0.00000  Uiso   1.00
H1017  H     0.66587   0.44367   0.43879   0.00000  Uiso   1.00
H1018  H     0.38107   0.36334   0.52065   0.00000  Uiso   1.00
H1019  H     0.40622   0.40808   0.49311   0.00000  Uiso   1.00
H1020  H     0.62140   0.63442   0.54210   0.00000  Uiso   1.00
H1021  H     0.59378   0.59192   0.50689   0.00000  Uiso   1.00
H1022  H     0.61893   0.63666   0.47935   0.00000  Uiso   1.00
H1023  H     0.40539   0.58338   0.48909   0.00000  Uiso   1.00
H1024  H     0.38131   0.62314   0.52018   0.00000  Uiso   1.00
H1025  H     0.37767   0.62566   0.45732   0.00000  Uiso   1.00
H1026  H     0.59461   0.41662   0.51091   0.00000  Uiso   1.00
H1027  H     0.62233   0.37434   0.54268   0.00000  Uiso   1.00
H1028  H     0.61848   0.48421   0.37409   0.00000  Uiso   1.00
H1029  H     0.61869   0.37686   0.47982   0.00000  Uiso   1.00
H1030  H     0.42487   0.44431   0.40642   0.00000  Uiso   1.00
H1031  H     0.40368   0.42855   0.35006   0.00000  Uiso   1.00
H1032  H     0.46008   0.40700   0.38172   0.00000  Uiso   1.00
H1033  H     0.59632   0.57145   0.64994   0.00000  Uiso   1.00
H1034  H     0.57513   0.55569   0.59358   0.00000  Uiso   1.00
H1035  H     0.53992   0.59300   0.61828   0.00000  Uiso   1.00
H1036  H     0.42818   0.44004   0.58072   0.00000  Uiso   1.00
H1037  H     0.47591   0.37957   0.58958   0.00000  Uiso   1.00
H1038  H     0.43645   0.37284   0.63476   0.00000  Uiso   1.00
H1039  H     0.35360   0.49348   0.38248   0.00000  Uiso   1.00
H1040  H     0.50208   0.39392   0.64790   0.00000  Uiso   1.00
H1041  H     0.57182   0.55996   0.41928   0.00000  Uiso   1.00
H1042  H     0.52409   0.62043   0.41042   0.00000  Uiso   1.00
H1043  H     0.49792   0.60608   0.35210   0.00000  Uiso   1.00
H1044  H     0.56355   0.62716   0.36524   0.00000  Uiso   1.00
H1045  H     0.64730   0.53008   0.40453   0.00000  Uiso   1.00
H1046  H     0.33413   0.55633   0.56121   0.00000  Uiso   1.00
H1047  H     0.38152   0.51579   0.62591   0.00000  Uiso   1.00
H1048  H     0.35270   0.46992   0.59547   0.00000  Uiso   1.00
H1049  H     0.64640   0.50651   0.61752   0.00000  Uiso   1.00
H1050  H     0.37860   0.36558   0.45790   0.00000  Uiso   1.00
N1051  N     0.50001   0.50001   0.61736   0.00000  Uiso   1.00
N1052  N     0.49999   0.49999   0.38264   0.00000  Uiso   1.00
N1053  N     0.65410   0.47327   0.44196   0.00000  Uiso   1.00
N1054  N     0.34590   0.52673   0.55804   0.00000  Uiso   1.00
N1055  N     0.44850   0.43461   0.61282   0.00000  Uiso   1.00
N1056  N     0.55150   0.56539   0.38718   0.00000  Uiso   1.00
O1057  O     0.50000   0.43989   0.53958   0.00000  Uiso   1.00
O1058  O     0.50000   0.56011   0.46042   0.00000  Uiso   1.00
O1059  O     0.50000   0.43988   0.46039   0.00000  Uiso   1.00
O1060  O     0.50000   0.56012   0.53961   0.00000  Uiso   1.00
O1061  O     0.42495   0.50000   0.53046   0.00000  Uiso   1.00
O1062  O     0.57505   0.50000   0.46954   0.00000  Uiso   1.00
O1063  O     0.42494   0.49999   0.45127   0.00000  Uiso   1.00
O1064  O     0.57506   0.50001   0.54873   0.00000  Uiso   1.00
C1065  C     0.83362   0.42106   0.50026   0.00000  Uiso   1.00
C1066  C     0.88074   0.35730   0.50481   0.00000  Uiso   1.00
C1067  C     0.83312   0.62364   0.49944   0.00000  Uiso   1.00
C1068  C     0.83355   0.37636   0.50056   0.00000  Uiso   1.00
C1069  C     0.80634   0.46921   0.35492   0.00000  Uiso   1.00
C1070  C     0.86032   0.53079   0.64508   0.00000  Uiso   1.00
C1071  C     0.80802   0.46846   0.63914   0.00000  Uiso   1.00
C1072  C     0.85864   0.53154   0.36086   0.00000  Uiso   1.00
C1073  C     0.98507   0.49663   0.39871   0.00000  Uiso   1.00
C1074  C     0.68160   0.50337   0.60129   0.00000  Uiso   1.00
C1075  C     0.73552   0.37376   0.49162   0.00000  Uiso   1.00
C1076  C     0.83304   0.57894   0.49974   0.00000  Uiso   1.00
C1077  C     0.93115   0.62624   0.50838   0.00000  Uiso   1.00
C1078  C     0.73504   0.61722   0.49020   0.00000  Uiso   1.00
C1079  C     0.93163   0.38278   0.50980   0.00000  Uiso   1.00
C1080  C     0.77251   0.43572   0.37468   0.00000  Uiso   1.00
C1081  C     0.89416   0.56428   0.62532   0.00000  Uiso   1.00
C1082  C     0.80021   0.39334   0.62189   0.00000  Uiso   1.00
C1083  C     0.86646   0.60666   0.37811   0.00000  Uiso   1.00
C1084  C     0.73487   0.49905   0.48816   0.00000  Uiso   1.00
C1085  C     0.93180   0.50095   0.51184   0.00000  Uiso   1.00
C1086  C     0.67954   0.49453   0.48242   0.00000  Uiso   1.00
C1087  C     0.98712   0.50547   0.51758   0.00000  Uiso   1.00
C1088  C     0.78614   0.35292   0.49578   0.00000  Uiso   1.00
C1089  C     0.88052   0.64708   0.50422   0.00000  Uiso   1.00
C1090  C     0.78592   0.64270   0.49519   0.00000  Uiso   1.00
Cu1091 Cu    0.83333   0.50001   0.54689   0.00000  Uiso   1.00
Cu1092 Cu    0.83333   0.49999   0.45311   0.00000  Uiso   1.00
H1093  H     0.99920   0.44367   0.43879   0.00000  Uiso   1.00
H1094  H     0.71440   0.36334   0.52065   0.00000  Uiso   1.00
H1095  H     0.73955   0.40808   0.49311   0.00000  Uiso   1.00
H1096  H     0.95473   0.63442   0.54210   0.00000  Uiso   1.00
H1097  H     0.92711   0.59192   0.50689   0.00000  Uiso   1.00
H1098  H     0.95227   0.63666   0.47935   0.00000  Uiso   1.00
H1099  H     0.73873   0.58338   0.48909   0.00000  Uiso   1.00
H1100  H     0.71464   0.62314   0.52018   0.00000  Uiso   1.00
H1101  H     0.71100   0.62566   0.45732   0.00000  Uiso   1.00
H1102  H     0.92794   0.41662   0.51091   0.00000  Uiso   1.00
H1103  H     0.95567   0.37434   0.54268   0.00000  Uiso   1.00
H1104  H     0.95182   0.48421   0.37409   0.00000  Uiso   1.00
H1105  H     0.95203   0.37686   0.47982   0.00000  Uiso   1.00
H1106  H     0.75821   0.44431   0.40642   0.00000  Uiso   1.00
H1107  H     0.73701   0.42855   0.35006   0.00000  Uiso   1.00
H1108  H     0.79341   0.40700   0.38172   0.00000  Uiso   1.00
H1109  H     0.92965   0.57145   0.64994   0.00000  Uiso   1.00
H1110  H     0.90846   0.55569   0.59358   0.00000  Uiso   1.00
H1111  H     0.87325   0.59300   0.61828   0.00000  Uiso   1.00
H1112  H     0.76151   0.44004   0.58072   0.00000  Uiso   1.00
H1113  H     0.80924   0.37957   0.58958   0.00000  Uiso   1.00
H1114  H     0.76978   0.37284   0.63476   0.00000  Uiso   1.00
H1115  H     0.68694   0.49348   0.38248   0.00000  Uiso   1.00
H1116  H     0.83541   0.39392   0.64790   0.00000  Uiso   1.00
H1117  H     0.90515   0.55996   0.41928   0.00000  Uiso   1.00
H1118  H     0.85743   0.62043   0.41042   0.00000  Uiso   1.00
H1119  H     0.83126   0.60608   0.35210   0.00000  Uiso   1.00
H1120  H     0.89689   0.62716   0.36524   0.00000  Uiso   1.00
H1121  H     0.98063   0.53008   0.40453   0.00000  Uiso   1.00
H1122  H     0.66747   0.55633   0.56121   0.00000  Uiso   1.00
H1123  H     0.71485   0.51579   0.62591   0.00000  Uiso   1.00
H1124  H     0.68604   0.46992   0.59547   0.00000  Uiso   1.00
H1125  H     0.97973   0.50651   0.61752   0.00000  Uiso   1.00
H1126  H     0.71194   0.36558   0.45790   0.00000  Uiso   1.00
N1127  N     0.83335   0.50001   0.61736   0.00000  Uiso   1.00
N1128  N     0.83332   0.49999   0.38264   0.00000  Uiso   1.00
N1129  N     0.98743   0.47327   0.44196   0.00000  Uiso   1.00
N1130  N     0.67924   0.52673   0.55804   0.00000  Uiso   1.00
N1131  N     0.78183   0.43461   0.61282   0.00000  Uiso   1.00
N1132  N     0.88483   0.56539   0.38718   0.00000  Uiso   1.00
O1133  O     0.83333   0.43989   0.53958   0.00000  Uiso   1.00
O1134  O     0.83334   0.56011   0.46042   0.00000  Uiso   1.00
O1135  O     0.83333   0.43988   0.46039   0.00000  Uiso   1.00
O1136  O     0.83334   0.56012   0.53961   0.00000  Uiso   1.00
O1137  O     0.75828   0.50000   0.53046   0.00000  Uiso   1.00
O1138  O     0.90839   0.50000   0.46954   0.00000  Uiso   1.00
O1139  O     0.75828   0.49999   0.45127   0.00000  Uiso   1.00
O1140  O     0.90839   0.50001   0.54873   0.00000  Uiso   1.00
C1141  C     0.16696   0.75439   0.50026   0.00000  Uiso   1.00
C1142  C     0.21408   0.69063   0.50481   0.00000  Uiso   1.00
C1143  C     0.16645   0.95697   0.49944   0.00000  Uiso   1.00
C1144  C     0.16688   0.70969   0.50056   0.00000  Uiso   1.00
C1145  C     0.13968   0.80255   0.35492   0.00000  Uiso   1.00
C1146  C     0.19366   0.86412   0.64508   0.00000  Uiso   1.00
C1147  C     0.14135   0.80179   0.63914   0.00000  Uiso   1.00
C1148  C     0.19198   0.86488   0.36086   0.00000  Uiso   1.00
C1149  C     0.31840   0.82997   0.39871   0.00000  Uiso   1.00
C1150  C     0.01493   0.83670   0.60129   0.00000  Uiso   1.00
C1151  C     0.06885   0.70709   0.49162   0.00000  Uiso   1.00
C1152  C     0.16638   0.91228   0.49974   0.00000  Uiso   1.00
C1153  C     0.26448   0.95957   0.50838   0.00000  Uiso   1.00
C1154  C     0.06837   0.95056   0.49020   0.00000  Uiso   1.00
C1155  C     0.26496   0.71611   0.50980   0.00000  Uiso   1.00
C1156  C     0.10584   0.76905   0.37468   0.00000  Uiso   1.00
C1157  C     0.22749   0.89762   0.62532   0.00000  Uiso   1.00
C1158  C     0.13354   0.72667   0.62189   0.00000  Uiso   1.00
C1159  C     0.19979   0.94000   0.37811   0.00000  Uiso   1.00
C1160  C     0.06820   0.83239   0.48816   0.00000  Uiso   1.00
C1161  C     0.26513   0.83428   0.51184   0.00000  Uiso   1.00
C1162  C     0.01288   0.82786   0.48242   0.00000  Uiso   1.00
C1163  C     0.32046   0.83880   0.51758   0.00000  Uiso   1.00
C1164  C     0.11948   0.68626   0.49578   0.00000  Uiso   1.00
C1165  C     0.21386   0.98041   0.50422   0.00000  Uiso   1.00
C1166  C     0.11926   0.97604   0.49519   0.00000  Uiso   1.00
Cu1167 Cu    0.16667   0.83334   0.54689   0.00000  Uiso   1.00
Cu1168 Cu    0.16667   0.83333   0.45311   0.00000  Uiso   1.00
H1169  H     0.33253   0.77700   0.43879   0.00000  Uiso   1.00
H1170  H     0.04773   0.69667   0.52065   0.00000  Uiso   1.00
H1171  H     0.07289   0.74141   0.49311   0.00000  Uiso   1.00
H1172  H     0.28806   0.96775   0.54210   0.00000  Uiso   1.00
H1173  H     0.26045   0.92526   0.50689   0.00000  Uiso   1.00
H1174  H     0.28560   0.96999   0.47935   0.00000  Uiso   1.00
H1175  H     0.07206   0.91671   0.48909   0.00000  Uiso   1.00
H1176  H     0.04797   0.95647   0.52018   0.00000  Uiso   1.00
H1177  H     0.04433   0.95900   0.45732   0.00000  Uiso   1.00
H1178  H     0.26127   0.74995   0.51091   0.00000  Uiso   1.00
H1179  H     0.28900   0.70767   0.54268   0.00000  Uiso   1.00
H1180  H     0.28515   0.81754   0.37409   0.00000  Uiso   1.00
H1181  H     0.28536   0.71020   0.47982   0.00000  Uiso   1.00
H1182  H     0.09154   0.77764   0.40642   0.00000  Uiso   1.00
H1183  H     0.07035   0.76189   0.35006   0.00000  Uiso   1.00
H1184  H     0.12675   0.74033   0.38172   0.00000  Uiso   1.00
H1185  H     0.26299   0.90478   0.64994   0.00000  Uiso   1.00
H1186  H     0.24179   0.88903   0.59358   0.00000  Uiso   1.00
H1187  H     0.20658   0.92634   0.61828   0.00000  Uiso   1.00
H1188  H     0.09485   0.77337   0.58072   0.00000  Uiso   1.00
H1189  H     0.14257   0.71290   0.58958   0.00000  Uiso   1.00
H1190  H     0.10311   0.70618   0.63476   0.00000  Uiso   1.00
H1191  H     0.02027   0.82682   0.38248   0.00000  Uiso   1.00
H1192  H     0.16874   0.72725   0.64790   0.00000  Uiso   1.00
H1193  H     0.23849   0.89329   0.41928   0.00000  Uiso   1.00
H1194  H     0.19076   0.95376   0.41042   0.00000  Uiso   1.00
H1195  H     0.16459   0.93942   0.35210   0.00000  Uiso   1.00
H1196  H     0.23022   0.96049   0.36524   0.00000  Uiso   1.00
H1197  H     0.31396   0.86342   0.40453   0.00000  Uiso   1.00
H1198  H     0.00080   0.88966   0.56121   0.00000  Uiso   1.00
H1199  H     0.04818   0.84912   0.62591   0.00000  Uiso   1.00
H1200  H     0.01937   0.80325   0.59547   0.00000  Uiso   1.00
H1201  H     0.31306   0.83985   0.61752   0.00000  Uiso   1.00
H1202  H     0.04527   0.69891   0.45790   0.00000  Uiso   1.00
N1203  N     0.16668   0.83334   0.61736   0.00000  Uiso   1.00
N1204  N     0.16665   0.83332   0.38264   0.00000  Uiso   1.00
N1205  N     0.32076   0.80660   0.44196   0.00000  Uiso   1.00
N1206  N     0.01257   0.86006   0.55804   0.00000  Uiso   1.00
N1207  N     0.11517   0.76795   0.61282   0.00000  Uiso   1.00
N1208  N     0.21817   0.89872   0.38718   0.00000  Uiso   1.00
O1209  O     0.16666   0.77322   0.53958   0.00000  Uiso   1.00
O1210  O     0.16667   0.89345   0.46042   0.00000  Uiso   1.00
O1211  O     0.16666   0.77321   0.46039   0.00000  Uiso   1.00
O1212  O     0.16667   0.89346   0.53961   0.00000  Uiso   1.00
O1213  O     0.09161   0.83334   0.53046   0.00000  Uiso   1.00
O1214  O     0.24172   0.83333   0.46954   0.00000  Uiso   1.00
O1215  O     0.09161   0.83333   0.45127   0.00000  Uiso   1.00
O1216  O     0.24172   0.83334   0.54873   0.00000  Uiso   1.00
C1217  C     0.50029   0.75439   0.50026   0.00000  Uiso   1.00
C1218  C     0.54741   0.69063   0.50481   0.00000  Uiso   1.00
C1219  C     0.49978   0.95697   0.49944   0.00000  Uiso   1.00
C1220  C     0.50022   0.70969   0.50056   0.00000  Uiso   1.00
C1221  C     0.47301   0.80255   0.35492   0.00000  Uiso   1.00
C1222  C     0.52699   0.86412   0.64508   0.00000  Uiso   1.00
C1223  C     0.47469   0.80179   0.63914   0.00000  Uiso   1.00
C1224  C     0.52531   0.86488   0.36086   0.00000  Uiso   1.00
C1225  C     0.65173   0.82997   0.39871   0.00000  Uiso   1.00
C1226  C     0.34827   0.83670   0.60129   0.00000  Uiso   1.00
C1227  C     0.40219   0.70709   0.49162   0.00000  Uiso   1.00
C1228  C     0.49971   0.91228   0.49974   0.00000  Uiso   1.00
C1229  C     0.59781   0.95957   0.50838   0.00000  Uiso   1.00
C1230  C     0.40171   0.95056   0.49020   0.00000  Uiso   1.00
C1231  C     0.59829   0.71611   0.50980   0.00000  Uiso   1.00
C1232  C     0.43917   0.76905   0.37468   0.00000  Uiso   1.00
C1233  C     0.56082   0.89762   0.62532   0.00000  Uiso   1.00
C1234  C     0.46687   0.72667   0.62189   0.00000  Uiso   1.00
C1235  C     0.53313   0.94000   0.37811   0.00000  Uiso   1.00
C1236  C     0.40154   0.83239   0.48816   0.00000  Uiso   1.00
C1237  C     0.59846   0.83428   0.51184   0.00000  Uiso   1.00
C1238  C     0.34621   0.82786   0.48242   0.00000  Uiso   1.00
C1239  C     0.65379   0.83880   0.51758   0.00000  Uiso   1.00
C1240  C     0.45281   0.68626   0.49578   0.00000  Uiso   1.00
C1241  C     0.54719   0.98041   0.50422   0.00000  Uiso   1.00
C1242  C     0.45259   0.97604   0.49519   0.00000  Uiso   1.00
Cu1243 Cu    0.50000   0.83334   0.54689   0.00000  Uiso   1.00
Cu1244 Cu    0.50000   0.83333   0.45311   0.00000  Uiso   1.00
H1245  H     0.66587   0.77700   0.43879   0.00000  Uiso   1.00
H1246  H     0.38107   0.69667   0.52065   0.00000  Uiso   1.00
H1247  H     0.40622   0.74141   0.49311   0.00000  Uiso   1.00
H1248  H     0.62140   0.96775   0.54210   0.00000  Uiso   1.00
H1249  H     0.59378   0.92526   0.50689   0.00000  Uiso   1.00
H1250  H     0.61893   0.96999   0.47935   0.00000  Uiso   1.00
H1251  H     0.40539   0.91671   0.48909   0.00000  Uiso   1.00
H1252  H     0.38131   0.95647   0.52018   0.00000  Uiso   1.00
H1253  H     0.37767   0.95900   0.45732   0.00000  Uiso   1.00
H1254  H     0.59461   0.74995   0.51091   0.00000  Uiso   1.00
H1255  H     0.62233   0.70767   0.54268   0.00000  Uiso   1.00
H1256  H     0.61848   0.81754   0.37409   0.00000  Uiso   1.00
H1257  H     0.61869   0.71020   0.47982   0.00000  Uiso   1.00
H1258  H     0.42487   0.77764   0.40642   0.00000  Uiso   1.00
H1259  H     0.40368   0.76189   0.35006   0.00000  Uiso   1.00
H1260  H     0.46008   0.74033   0.38172   0.00000  Uiso   1.00
H1261  H     0.59632   0.90478   0.64994   0.00000  Uiso   1.00
H1262  H     0.57513   0.88903   0.59358   0.00000  Uiso   1.00
H1263  H     0.53992   0.92634   0.61828   0.00000  Uiso   1.00
H1264  H     0.42818   0.77337   0.58072   0.00000  Uiso   1.00
H1265  H     0.47591   0.71290   0.58958   0.00000  Uiso   1.00
H1266  H     0.43645   0.70618   0.63476   0.00000  Uiso   1.00
H1267  H     0.35360   0.82682   0.38248   0.00000  Uiso   1.00
H1268  H     0.50208   0.72725   0.64790   0.00000  Uiso   1.00
H1269  H     0.57182   0.89329   0.41928   0.00000  Uiso   1.00
H1270  H     0.52409   0.95376   0.41042   0.00000  Uiso   1.00
H1271  H     0.49792   0.93942   0.35210   0.00000  Uiso   1.00
H1272  H     0.56355   0.96049   0.36524   0.00000  Uiso   1.00
H1273  H     0.64730   0.86342   0.40453   0.00000  Uiso   1.00
H1274  H     0.33413   0.88966   0.56121   0.00000  Uiso   1.00
H1275  H     0.38152   0.84912   0.62591   0.00000  Uiso   1.00
H1276  H     0.35270   0.80325   0.59547   0.00000  Uiso   1.00
H1277  H     0.64640   0.83985   0.61752   0.00000  Uiso   1.00
H1278  H     0.37860   0.69891   0.45790   0.00000  Uiso   1.00
N1279  N     0.50001   0.83334   0.61736   0.00000  Uiso   1.00
N1280  N     0.49999   0.83332   0.38264   0.00000  Uiso   1.00
N1281  N     0.65410   0.80660   0.44196   0.00000  Uiso   1.00
N1282  N     0.34590   0.86006   0.55804   0.00000  Uiso   1.00
N1283  N     0.44850   0.76795   0.61282   0.00000  Uiso   1.00
N1284  N     0.55150   0.89872   0.38718   0.00000  Uiso   1.00
O1285  O     0.50000   0.77322   0.53958   0.00000  Uiso   1.00
O1286  O     0.50000   0.89345   0.46042   0.00000  Uiso   1.00
O1287  O     0.50000   0.77321   0.46039   0.00000  Uiso   1.00
O1288  O     0.50000   0.89346   0.53961   0.00000  Uiso   1.00
O1289  O     0.42495   0.83334   0.53046   0.00000  Uiso   1.00
O1290  O     0.57505   0.83333   0.46954   0.00000  Uiso   1.00
O1291  O     0.42494   0.83333   0.45127   0.00000  Uiso   1.00
O1292  O     0.57506   0.83334   0.54873   0.00000  Uiso   1.00
C1293  C     0.83362   0.75439   0.50026   0.00000  Uiso   1.00
C1294  C     0.88074   0.69063   0.50481   0.00000  Uiso   1.00
C1295  C     0.83312   0.95697   0.49944   0.00000  Uiso   1.00
C1296  C     0.83355   0.70969   0.50056   0.00000  Uiso   1.00
C1297  C     0.80634   0.80255   0.35492   0.00000  Uiso   1.00
C1298  C     0.86032   0.86412   0.64508   0.00000  Uiso   1.00
C1299  C     0.80802   0.80179   0.63914   0.00000  Uiso   1.00
C1300  C     0.85864   0.86488   0.36086   0.00000  Uiso   1.00
C1301  C     0.98507   0.82997   0.39871   0.00000  Uiso   1.00
C1302  C     0.68160   0.83670   0.60129   0.00000  Uiso   1.00
C1303  C     0.73552   0.70709   0.49162   0.00000  Uiso   1.00
C1304  C     0.83304   0.91228   0.49974   0.00000  Uiso   1.00
C1305  C     0.93115   0.95957   0.50838   0.00000  Uiso   1.00
C1306  C     0.73504   0.95056   0.49020   0.00000  Uiso   1.00
C1307  C     0.93163   0.71611   0.50980   0.00000  Uiso   1.00
C1308  C     0.77251   0.76905   0.37468   0.00000  Uiso   1.00
C1309  C     0.89416   0.89762   0.62532   0.00000  Uiso   1.00
C1310  C     0.80021   0.72667   0.62189   0.00000  Uiso   1.00
C1311  C     0.86646   0.94000   0.37811   0.00000  Uiso   1.00
C1312  C     0.73487   0.83239   0.48816   0.00000  Uiso   1.00
C1313  C     0.93180   0.83428   0.51184   0.00000  Uiso   1.00
C1314  C     0.67954   0.82786   0.48242   0.00000  Uiso   1.00
C1315  C     0.98712   0.83880   0.51758   0.00000  Uiso   1.00
C1316  C     0.78614   0.68626   0.49578   0.00000  Uiso   1.00
C1317  C     0.88052   0.98041   0.50422   0.00000  Uiso   1.00
C1318  C     0.78592   0.97604   0.49519   0.00000  Uiso   1.00
Cu1319 Cu    0.83333   0.83334   0.54689   0.00000  Uiso   1.00
Cu1320 Cu    0.83333   0.83333   0.45311   0.00000  Uiso   1.00
H1321  H     0.99920   0.77700   0.43879   0.00000  Uiso   1.00
H1322  H     0.71440   0.69667   0.52065   0.00000  Uiso   1.00
H1323  H     0.73955   0.74141   0.49311   0.00000  Uiso   1.00
H1324  H     0.95473   0.96775   0.54210   0.00000  Uiso   1.00
H1325  H     0.92711   0.92526   0.50689   0.00000  Uiso   1.00
H1326  H     0.95227   0.96999   0.47935   0.00000  Uiso   1.00
H1327  H     0.73873   0.91671   0.48909   0.00000  Uiso   1.00
H1328  H     0.71464   0.95647   0.52018   0.00000  Uiso   1.00
H1329  H     0.71100   0.95900   0.45732   0.00000  Uiso   1.00
H1330  H     0.92794   0.74995   0.51091   0.00000  Uiso   1.00
H1331  H     0.95567   0.70767   0.54268   0.00000  Uiso   1.00
H1332  H     0.95182   0.81754   0.37409   0.00000  Uiso   1.00
H1333  H     0.95203   0.71020   0.47982   0.00000  Uiso   1.00
H1334  H     0.75821   0.77764   0.40642   0.00000  Uiso   1.00
H1335  H     0.73701   0.76189   0.35006   0.00000  Uiso   1.00
H1336  H     0.79341   0.74033   0.38172   0.00000  Uiso   1.00
H1337  H     0.92965   0.90478   0.64994   0.00000  Uiso   1.00
H1338  H     0.90846   0.88903   0.59358   0.00000  Uiso   1.00
H1339  H     0.87325   0.92634   0.61828   0.00000  Uiso   1.00
H1340  H     0.76151   0.77337   0.58072   0.00000  Uiso   1.00
H1341  H     0.80924   0.71290   0.58958   0.00000  Uiso   1.00
H1342  H     0.76978   0.70618   0.63476   0.00000  Uiso   1.00
H1343  H     0.68694   0.82682   0.38248   0.00000  Uiso   1.00
H1344  H     0.83541   0.72725   0.64790   0.00000  Uiso   1.00
H1345  H     0.90515   0.89329   0.41928   0.00000  Uiso   1.00
H1346  H     0.85743   0.95376   0.41042   0.00000  Uiso   1.00
H1347  H     0.83126   0.93942   0.35210   0.00000  Uiso   1.00
H1348  H     0.89689   0.96049   0.36524   0.00000  Uiso   1.00
H1349  H     0.98063   0.86342   0.40453   0.00000  Uiso   1.00
H1350  H     0.66747   0.88966   0.56121   0.00000  Uiso   1.00
H1351  H     0.71485   0.84912   0.62591   0.00000  Uiso   1.00
H1352  H     0.68604   0.80325   0.59547   0.00000  Uiso   1.00
H1353  H     0.97973   0.83985   0.61752   0.00000  Uiso   1.00
H1354  H     0.71194   0.69891   0.45790   0.00000  Uiso   1.00
N1355  N     0.83335   0.83334   0.61736   0.00000  Uiso   1.00
N1356  N     0.83332   0.83332   0.38264   0.00000  Uiso   1.00
N1357  N     0.98743   0.80660   0.44196   0.00000  Uiso   1.00
N1358  N     0.67924   0.86006   0.55804   0.00000  Uiso   1.00
N1359  N     0.78183   0.76795   0.61282   0.00000  Uiso   1.00
N1360  N     0.88483   0.89872   0.38718   0.00000  Uiso   1.00
O1361  O     0.83333   0.77322   0.53958   0.00000  Uiso   1.00
O1362  O     0.83334   0.89345   0.46042   0.00000  Uiso   1.00
O1363  O     0.83333   0.77321   0.46039   0.00000  Uiso   1.00
O1364  O     0.83334   0.89346   0.53961   0.00000  Uiso   1.00
O1365  O     0.75828   0.83334   0.53046   0.00000  Uiso   1.00
O1366  O     0.90839   0.83333   0.46954   0.00000  Uiso   1.00
O1367  O     0.75828   0.83333   0.45127   0.00000  Uiso   1.00
O1368  O     0.90839   0.83334   0.54873   0.00000  Uiso   1.00
C1369  C     0.16696   0.08772   0.83359   0.00000  Uiso   1.00
C1370  C     0.21408   0.02396   0.83814   0.00000  Uiso   1.00
C1371  C     0.16645   0.29030   0.83277   0.00000  Uiso   1.00
C1372  C     0.16688   0.04303   0.83389   0.00000  Uiso   1.00
C1373  C     0.13968   0.13588   0.68825   0.00000  Uiso   1.00
C1374  C     0.19366   0.19745   0.97841   0.00000  Uiso   1.00
C1375  C     0.14135   0.13512   0.97247   0.00000  Uiso   1.00
C1376  C     0.19198   0.19821   0.69420   0.00000  Uiso   1.00
C1377  C     0.31840   0.16330   0.73204   0.00000  Uiso   1.00
C1378  C     0.01493   0.17003   0.93462   0.00000  Uiso   1.00
C1379  C     0.06885   0.04043   0.82496   0.00000  Uiso   1.00
C1380  C     0.16638   0.24561   0.83308   0.00000  Uiso   1.00
C1381  C     0.26448   0.29291   0.84171   0.00000  Uiso   1.00
C1382  C     0.06837   0.28389   0.82353   0.00000  Uiso   1.00
C1383  C     0.26496   0.04944   0.84314   0.00000  Uiso   1.00
C1384  C     0.10584   0.10238   0.70801   0.00000  Uiso   1.00
C1385  C     0.22749   0.23095   0.95865   0.00000  Uiso   1.00
C1386  C     0.13354   0.06000   0.95522   0.00000  Uiso   1.00
C1387  C     0.19979   0.27333   0.71145   0.00000  Uiso   1.00
C1388  C     0.06820   0.16572   0.82149   0.00000  Uiso   1.00
C1389  C     0.26513   0.16761   0.84518   0.00000  Uiso   1.00
C1390  C     0.01288   0.16120   0.81575   0.00000  Uiso   1.00
C1391  C     0.32046   0.17214   0.85091   0.00000  Uiso   1.00
C1392  C     0.11948   0.01959   0.82911   0.00000  Uiso   1.00
C1393  C     0.21386   0.31374   0.83756   0.00000  Uiso   1.00
C1394  C     0.11926   0.30937   0.82852   0.00000  Uiso   1.00
Cu1395 Cu    0.16667   0.16667   0.88022   0.00000  Uiso   1.00
Cu1396 Cu    0.16667   0.16666   0.78645   0.00000  Uiso   1.00
H1397  H     0.33253   0.11034   0.77213   0.00000  Uiso   1.00
H1398  H     0.04773   0.03001   0.85398   0.00000  Uiso   1.00
H1399  H     0.07289   0.07474   0.82645   0.00000  Uiso   1.00
H1400  H     0.28806   0.30109   0.87544   0.00000  Uiso   1.00
H1401  H     0.26045   0.25859   0.84022   0.00000  Uiso   1.00
H1402  H     0.28560   0.30333   0.81268   0.00000  Uiso   1.00
H1403  H     0.07206   0.25005   0.82242   0.00000  Uiso   1.00
H1404  H     0.04797   0.28980   0.85351   0.00000  Uiso   1.00
H1405  H     0.04433   0.29233   0.79065   0.00000  Uiso   1.00
H1406  H     0.26127   0.08329   0.84424   0.00000  Uiso   1.00
H1407  H     0.28900   0.04100   0.87602   0.00000  Uiso   1.00
H1408  H     0.28515   0.15088   0.70742   0.00000  Uiso   1.00
H1409  H     0.28536   0.04353   0.81315   0.00000  Uiso   1.00
H1410  H     0.09154   0.11097   0.73976   0.00000  Uiso   1.00
H1411  H     0.07035   0.09522   0.68340   0.00000  Uiso   1.00
H1412  H     0.12675   0.07366   0.71505   0.00000  Uiso   1.00
H1413  H     0.26299   0.23811   0.98327   0.00000  Uiso   1.00
H1414  H     0.24179   0.22236   0.92691   0.00000  Uiso   1.00
H1415  H     0.20658   0.25967   0.95161   0.00000  Uiso   1.00
H1416  H     0.09485   0.10671   0.91405   0.00000  Uiso   1.00
H1417  H     0.14257   0.04624   0.92291   0.00000  Uiso   1.00
H1418  H     0.10311   0.03951   0.96809   0.00000  Uiso   1.00
H1419  H     0.02027   0.16015   0.71581   0.00000  Uiso   1.00
H1420  H     0.16874   0.06058   0.98124   0.00000  Uiso   1.00
H1421  H     0.23849   0.22663   0.75262   0.00000  Uiso   1.00
H1422  H     0.19076   0.28709   0.74376   0.00000  Uiso   1.00
H1423  H     0.16459   0.27275   0.68543   0.00000  Uiso   1.00
H1424  H     0.23022   0.29382   0.69858   0.00000  Uiso   1.00
H1425  H     0.31396   0.19675   0.73787   0.00000  Uiso   1.00
H1426  H     0.00080   0.22300   0.89454   0.00000  Uiso   1.00
H1427  H     0.04818   0.18246   0.95924   0.00000  Uiso   1.00
H1428  H     0.01937   0.13658   0.92880   0.00000  Uiso   1.00
H1429  H     0.31306   0.17318   0.95086   0.00000  Uiso   1.00
H1430  H     0.04527   0.03225   0.79123   0.00000  Uiso   1.00
N1431  N     0.16668   0.16668   0.95069   0.00000  Uiso   1.00
N1432  N     0.16665   0.16666   0.71597   0.00000  Uiso   1.00
N1433  N     0.32076   0.13994   0.77529   0.00000  Uiso   1.00
N1434  N     0.01257   0.19340   0.89138   0.00000  Uiso   1.00
N1435  N     0.11517   0.10128   0.94616   0.00000  Uiso   1.00
N1436  N     0.21817   0.23205   0.72051   0.00000  Uiso   1.00
O1437  O     0.16666   0.10655   0.87291   0.00000  Uiso   1.00
O1438  O     0.16667   0.22678   0.79375   0.00000  Uiso   1.00
O1439  O     0.16666   0.10654   0.79372   0.00000  Uiso   1.00
O1440  O     0.16667   0.22679   0.87294   0.00000  Uiso   1.00
O1441  O     0.09161   0.16667   0.86379   0.00000  Uiso   1.00
O1442  O     0.24172   0.16666   0.80288   0.00000  Uiso   1.00
O1443  O     0.09161   0.16666   0.78460   0.00000  Uiso   1.00
O1444  O     0.24172   0.16667   0.88207   0.00000  Uiso   1.00
C1445  C     0.50029   0.08772   0.83359   0.00000  Uiso   1.00
C1446  C     0.54741   0.02396   0.83814   0.00000  Uiso   1.00
C1447  C     0.49978   0.29030   0.83277   0.00000  Uiso   1.00
C1448  C     0.50022   0.04303   0.83389   0.00000  Uiso   1.00
C1449  C     0.47301   0.13588   0.68825   0.00000  Uiso   1.00
C1450  C     0.52699   0.19745   0.97841   0.00000  Uiso   1.00
C1451  C     0.47469   0.13512   0.97247   0.00000  Uiso   1.00
C1452  C     0.52531   0.19821   0.69420   0.00000  Uiso   1.00
C1453  C     0.65173   0.16330   0.73204   0.00000  Uiso   1.00
C1454  C     0.34827   0.17003   0.93462   0.00000  Uiso   1.00
C1455  C     0.40219   0.04043   0.82496   0.00000  Uiso   1.00
C1456  C     0.49971   0.24561   0.83308   0.00000  Uiso   1.00
C1457  C     0.59781   0.29291   0.84171   0.00000  Uiso   1.00
C1458  C     0.40171   0.28389   0.82353   0.00000  Uiso   1.00
C1459  C     0.59829   0.04944   0.84314   0.00000  Uiso   1.00
C1460  C     0.43917   0.10238   0.70801   0.00000  Uiso   1.00
C1461  C     0.56082   0.23095   0.95865   0.00000  Uiso   1.00
C1462  C     0.46687   0.06000   0.95522   0.00000  Uiso   1.00
C1463  C     0.53313   0.27333   0.71145   0.00000  Uiso   1.00
C1464  C     0.40154   0.16572   0.82149   0.00000  Uiso   1.00
C1465  C     0.59846   0.16761   0.84518   0.00000  Uiso   1.00
C1466  C     0.34621   0.16120   0.81575   0.00000  Uiso   1.00
C1467  C     0.65379   0.17214   0.85091   0.00000  Uiso   1.00
C1468  C     0.45281   0.01959   0.82911   0.00000  Uiso   1.00
C1469  C     0.54719   0.31374   0.83756   0.00000  Uiso   1.00
C1470  C     0.45259   0.30937   0.82852   0.00000  Uiso   1.00
Cu1471 Cu    0.50000   0.16667   0.88022   0.00000  Uiso   1.00
Cu1472 Cu    0.50000   0.16666   0.78645   0.00000  Uiso   1.00
H1473  H     0.66587   0.11034   0.77213   0.00000  Uiso   1.00
H1474  H     0.38107   0.03001   0.85398   0.00000  Uiso   1.00
H1475  H     0.40622   0.07474   0.82645   0.00000  Uiso   1.00
H1476  H     0.62140   0.30109   0.87544   0.00000  Uiso   1.00
H1477  H     0.59378   0.25859   0.84022   0.00000  Uiso   1.00
H1478  H     0.61893   0.30333   0.81268   0.00000  Uiso   1.00
H1479  H     0.40539   0.25005   0.82242   0.00000  Uiso   1.00
H1480  H     0.38131   0.28980   0.85351   0.00000  Uiso   1.00
H1481  H     0.37767   0.29233   0.79065   0.00000  Uiso   1.00
H1482  H     0.59461   0.08329   0.84424   0.00000  Uiso   1.00
H1483  H     0.62233   0.04100   0.87602   0.00000  Uiso   1.00
H1484  H     0.61848   0.15088   0.70742   0.00000  Uiso   1.00
H1485  H     0.61869   0.04353   0.81315   0.00000  Uiso   1.00
H1486  H     0.42487   0.11097   0.73976   0.00000  Uiso   1.00
H1487  H     0.40368   0.09522   0.68340   0.00000  Uiso   1.00
H1488  H     0.46008   0.07366   0.71505   0.00000  Uiso   1.00
H1489  H     0.59632   0.23811   0.98327   0.00000  Uiso   1.00
H1490  H     0.57513   0.22236   0.92691   0.00000  Uiso   1.00
H1491  H     0.53992   0.25967   0.95161   0.00000  Uiso   1.00
H1492  H     0.42818   0.10671   0.91405   0.00000  Uiso   1.00
H1493  H     0.47591   0.04624   0.92291   0.00000  Uiso   1.00
H1494  H     0.43645   0.03951   0.96809   0.00000  Uiso   1.00
H1495  H     0.35360   0.16015   0.71581   0.00000  Uiso   1.00
H1496  H     0.50208   0.06058   0.98124   0.00000  Uiso   1.00
H1497  H     0.57182   0.22663   0.75262   0.00000  Uiso   1.00
H1498  H     0.52409   0.28709   0.74376   0.00000  Uiso   1.00
H1499  H     0.49792   0.27275   0.68543   0.00000  Uiso   1.00
H1500  H     0.56355   0.29382   0.69858   0.00000  Uiso   1.00
H1501  H     0.64730   0.19675   0.73787   0.00000  Uiso   1.00
H1502  H     0.33413   0.22300   0.89454   0.00000  Uiso   1.00
H1503  H     0.38152   0.18246   0.95924   0.00000  Uiso   1.00
H1504  H     0.35270   0.13658   0.92880   0.00000  Uiso   1.00
H1505  H     0.64640   0.17318   0.95086   0.00000  Uiso   1.00
H1506  H     0.37860   0.03225   0.79123   0.00000  Uiso   1.00
N1507  N     0.50001   0.16668   0.95069   0.00000  Uiso   1.00
N1508  N     0.49999   0.16666   0.71597   0.00000  Uiso   1.00
N1509  N     0.65410   0.13994   0.77529   0.00000  Uiso   1.00
N1510  N     0.34590   0.19340   0.89138   0.00000  Uiso   1.00
N1511  N     0.44850   0.10128   0.94616   0.00000  Uiso   1.00
N1512  N     0.55150   0.23205   0.72051   0.00000  Uiso   1.00
O1513  O     0.50000   0.10655   0.87291   0.00000  Uiso   1.00
O1514  O     0.50000   0.22678   0.79375   0.00000  Uiso   1.00
O1515  O     0.50000   0.10654   0.79372   0.00000  Uiso   1.00
O1516  O     0.50000   0.22679   0.87294   0.00000  Uiso   1.00
O1517  O     0.42495   0.16667   0.86379   0.00000  Uiso   1.00
O1518  O     0.57505   0.16666   0.80288   0.00000  Uiso   1.00
O1519  O     0.42494   0.16666   0.78460   0.00000  Uiso   1.00
O1520  O     0.57506   0.16667   0.88207   0.00000  Uiso   1.00
C1521  C     0.83362   0.08772   0.83359   0.00000  Uiso   1.00
C1522  C     0.88074   0.02396   0.83814   0.00000  Uiso   1.00
C1523  C     0.83312   0.29030   0.83277   0.00000  Uiso   1.00
C1524  C     0.83355   0.04303   0.83389   0.00000  Uiso   1.00
C1525  C     0.80634   0.13588   0.68825   0.00000  Uiso   1.00
C1526  C     0.86032   0.19745   0.97841   0.00000  Uiso   1.00
C1527  C     0.80802   0.13512   0.97247   0.00000  Uiso   1.00
C1528  C     0.85864   0.19821   0.69420   0.00000  Uiso   1.00
C1529  C     0.98507   0.16330   0.73204   0.00000  Uiso   1.00
C1530  C     0.68160   0.17003   0.93462   0.00000  Uiso   1.00
C1531  C     0.73552   0.04043   0.82496   0.00000  Uiso   1.00
C1532  C     0.83304   0.24561   0.83308   0.00000  Uiso   1.00
C1533  C     0.93115   0.29291   0.84171   0.00000  Uiso   1.00
C1534  C     0.73504   0.28389   0.82353   0.00000  Uiso   1.00
C1535  C     0.93163   0.04944   0.84314   0.00000  Uiso   1.00
C1536  C     0.77251   0.10238   0.70801   0.00000  Uiso   1.00
C1537  C     0.89416   0.23095   0.95865   0.00000  Uiso   1.00
C1538  C     0.80021   0.06000   0.95522   0.00000  Uiso   1.00
C1539  C     0.86646   0.27333   0.71145   0.00000  Uiso   1.00
C1540  C     0.73487   0.16572   0.82149   0.00000  Uiso   1.00
C1541  C     0.93180   0.16761   0.84518   0.00000  Uiso   1.00
C1542  C     0.67954   0.16120   0.81575   0.00000  Uiso   1.00
C1543  C     0.98712   0.17214   0.85091   0.00000  Uiso   1.00
C1544  C     0.78614   0.01959   0.82911   0.00000  Uiso   1.00
C1545  C     0.88052   0.31374   0.83756   0.00000  Uiso   1.00
C1546  C     0.78592   0.30937   0.82852   0.00000  Uiso   1.00
Cu1547 Cu    0.83333   0.16667   0.88022   0.00000  Uiso   1.00
Cu1548 Cu    0.83333   0.16666   0.78645   0.00000  Uiso   1.00
H1549  H     0.99920   0.11034   0.77213   0.00000  Uiso   1.00
H1550  H     0.71440   0.03001   0.85398   0.00000  Uiso   1.00
H1551  H     0.73955   0.07474   0.82645   0.00000  Uiso   1.00
H1552  H     0.95473   0.30109   0.87544   0.00000  Uiso   1.00
H1553  H     0.92711   0.25859   0.84022   0.00000  Uiso   1.00
H1554  H     0.95227   0.30333   0.81268   0.00000  Uiso   1.00
H1555  H     0.73873   0.25005   0.82242   0.00000  Uiso   1.00
H1556  H     0.71464   0.28980   0.85351   0.00000  Uiso   1.00
H1557  H     0.71100   0.29233   0.79065   0.00000  Uiso   1.00
H1558  H     0.92794   0.08329   0.84424   0.00000  Uiso   1.00
H1559  H     0.95567   0.04100   0.87602   0.00000  Uiso   1.00
H1560  H     0.95182   0.15088   0.70742   0.00000  Uiso   1.00
H1561  H     0.95203   0.04353   0.81315   0.00000  Uiso   1.00
H1562  H     0.75821   0.11097   0.73976   0.00000  Uiso   1.00
H1563  H     0.73701   0.09522   0.68340   0.00000  Uiso   1.00
H1564  H     0.79341   0.07366   0.71505   0.00000  Uiso   1.00
H1565  H     0.92965   0.23811   0.98327   0.00000  Uiso   1.00
H1566  H     0.90846   0.22236   0.92691   0.00000  Uiso   1.00
H1567  H     0.87325   0.25967   0.95161   0.00000  Uiso   1.00
H1568  H     0.76151   0.10671   0.91405   0.00000  Uiso   1.00
H1569  H     0.80924   0.04624   0.92291   0.00000  Uiso   1.00
H1570  H     0.76978   0.03951   0.96809   0.00000  Uiso   1.00
H1571  H     0.68694   0.16015   0.71581   0.00000  Uiso   1.00
H1572  H     0.83541   0.06058   0.98124   0.00000  Uiso   1.00
H1573  H     0.90515   0.22663   0.75262   0.00000  Uiso   1.00
H1574  H     0.85743   0.28709   0.74376   0.00000  Uiso   1.00
H1575  H     0.83126   0.27275   0.68543   0.00000  Uiso   1.00
H1576  H     0.89689   0.29382   0.69858   0.00000  Uiso   1.00
H1577  H     0.98063   0.19675   0.73787   0.00000  Uiso   1.00
H1578  H     0.66747   0.22300   0.89454   0.00000  Uiso   1.00
H1579  H     0.71485   0.18246   0.95924   0.00000  Uiso   1.00
H1580  H     0.68604   0.13658   0.92880   0.00000  Uiso   1.00
H1581  H     0.97973   0.17318   0.95086   0.00000  Uiso   1.00
H1582  H     0.71194   0.03225   0.79123   0.00000  Uiso   1.00
N1583  N     0.83335   0.16668   0.95069   0.00000  Uiso   1.00
N1584  N     0.83332   0.16666   0.71597   0.00000  Uiso   1.00
N1585  N     0.98743   0.13994   0.77529   0.00000  Uiso   1.00
N1586  N     0.67924   0.19340   0.89138   0.00000  Uiso   1.00
N1587  N     0.78183   0.10128   0.94616   0.00000  Uiso   1.00
N1588  N     0.88483   0.23205   0.72051   0.00000  Uiso   1.00
O1589  O     0.83333   0.10655   0.87291   0.00000  Uiso   1.00
O1590  O     0.83334   0.22678   0.79375   0.00000  Uiso   1.00
O1591  O     0.83333   0.10654   0.79372   0.00000  Uiso   1.00
O1592  O     0.83334   0.22679   0.87294   0.00000  Uiso   1.00
O1593  O     0.75828   0.16667   0.86379   0.00000  Uiso   1.00
O1594  O     0.90839   0.16666   0.80288   0.00000  Uiso   1.00
O1595  O     0.75828   0.16666   0.78460   0.00000  Uiso   1.00
O1596  O     0.90839   0.16667   0.88207   0.00000  Uiso   1.00
C1597  C     0.16696   0.42106   0.83359   0.00000  Uiso   1.00
C1598  C     0.21408   0.35730   0.83814   0.00000  Uiso   1.00
C1599  C     0.16645   0.62364   0.83277   0.00000  Uiso   1.00
C1600  C     0.16688   0.37636   0.83389   0.00000  Uiso   1.00
C1601  C     0.13968   0.46921   0.68825   0.00000  Uiso   1.00
C1602  C     0.19366   0.53079   0.97841   0.00000  Uiso   1.00
C1603  C     0.14135   0.46846   0.97247   0.00000  Uiso   1.00
C1604  C     0.19198   0.53154   0.69420   0.00000  Uiso   1.00
C1605  C     0.31840   0.49663   0.73204   0.00000  Uiso   1.00
C1606  C     0.01493   0.50337   0.93462   0.00000  Uiso   1.00
C1607  C     0.06885   0.37376   0.82496   0.00000  Uiso   1.00
C1608  C     0.16638   0.57894   0.83308   0.00000  Uiso   1.00
C1609  C     0.26448   0.62624   0.84171   0.00000  Uiso   1.00
C1610  C     0.06837   0.61722   0.82353   0.00000  Uiso   1.00
C1611  C     0.26496   0.38278   0.84314   0.00000  Uiso   1.00
C1612  C     0.10584   0.43572   0.70801   0.00000  Uiso   1.00
C1613  C     0.22749   0.56428   0.95865   0.00000  Uiso   1.00
C1614  C     0.13354   0.39334   0.95522   0.00000  Uiso   1.00
C1615  C     0.19979   0.60666   0.71145   0.00000  Uiso   1.00
C1616  C     0.06820   0.49905   0.82149   0.00000  Uiso   1.00
C1617  C     0.26513   0.50095   0.84518   0.00000  Uiso   1.00
C1618  C     0.01288   0.49453   0.81575   0.00000  Uiso   1.00
C1619  C     0.32046   0.50547   0.85091   0.00000  Uiso   1.00
C1620  C     0.11948   0.35292   0.82911   0.00000  Uiso   1.00
C1621  C     0.21386   0.64708   0.83756   0.00000  Uiso   1.00
C1622  C     0.11926   0.64270   0.82852   0.00000  Uiso   1.00
Cu1623 Cu    0.16667   0.50001   0.88022   0.00000  Uiso   1.00
Cu1624 Cu    0.16667   0.49999   0.78645   0.00000  Uiso   1.00
H1625  H     0.33253   0.44367   0.77213   0.00000  Uiso   1.00
H1626  H     0.04773   0.36334   0.85398   0.00000  Uiso   1.00
H1627  H     0.07289   0.40808   0.82645   0.00000  Uiso   1.00
H1628  H     0.28806   0.63442   0.87544   0.00000  Uiso   1.00
H1629  H     0.26045   0.59192   0.84022   0.00000  Uiso   1.00
H1630  H     0.28560   0.63666   0.81268   0.00000  Uiso   1.00
H1631  H     0.07206   0.58338   0.82242   0.00000  Uiso   1.00
H1632  H     0.04797   0.62314   0.85351   0.00000  Uiso   1.00
H1633  H     0.04433   0.62566   0.79065   0.00000  Uiso   1.00
H1634  H     0.26127   0.41662   0.84424   0.00000  Uiso   1.00
H1635  H     0.28900   0.37434   0.87602   0.00000  Uiso   1.00
H1636  H     0.28515   0.48421   0.70742   0.00000  Uiso   1.00
H1637  H     0.28536   0.37686   0.81315   0.00000  Uiso   1.00
H1638  H     0.09154   0.44431   0.73976   0.00000  Uiso   1.00
H1639  H     0.07035   0.42855   0.68340   0.00000  Uiso   1.00
H1640  H     0.12675   0.40700   0.71505   0.00000  Uiso   1.00
H1641  H     0.26299   0.57145   0.98327   0.00000  Uiso   1.00
H1642  H     0.24179   0.55569   0.92691   0.00000  Uiso   1.00
H1643  H     0.20658   0.59300   0.95161   0.00000  Uiso   1.00
H1644  H     0.09485   0.44004   0.91405   0.00000  Uiso   1.00
H1645  H     0.14257   0.37957   0.92291   0.00000  Uiso   1.00
H1646  H     0.10311   0.37284   0.96809   0.00000  Uiso   1.00
H1647  H     0.02027   0.49348   0.71581   0.00000  Uiso   1.00
H1648  H     0.16874   0.39392   0.98124   0.00000  Uiso   1.00
H1649  H     0.23849   0.55996   0.75262   0.00000  Uiso   1.00
H1650  H     0.19076   0.62043   0.74376   0.00000  Uiso   1.00
H1651  H     0.16459   0.60608   0.68543   0.00000  Uiso   1.00
H1652  H     0.23022   0.62716   0.69858   0.00000  Uiso   1.00
H1653  H     0.31396   0.53008   0.73787   0.00000  Uiso   1.00
H1654  H     0.00080   0.55633   0.89454   0.00000  Uiso   1.00
H1655  H     0.04818   0.51579   0.95924   0.00000  Uiso   1.00
H1656  H     0.01937   0.46992   0.92880   0.00000  Uiso   1.00
H1657  H     0.31306   0.50651   0.95086   0.00000  Uiso   1.00
H1658  H     0.04527   0.36558   0.79123   0.00000  Uiso   1.00
N1659  N     0.16668   0.50001   0.95069   0.00000  Uiso   1.00
N1660  N     0.16665   0.49999   0.71597   0.00000  Uiso   1.00
N1661  N     0.32076   0.47327   0.77529   0.00000  Uiso   1.00
N1662  N     0.01257   0.52673   0.89138   0.00000  Uiso   1.00
N1663  N     0.11517   0.43461   0.94616   0.00000  Uiso   1.00
N1664  N     0.21817   0.56539   0.72051   0.00000  Uiso   1.00
O1665  O     0.16666   0.43989   0.87291   0.00000  Uiso   1.00
O1666  O     0.16667   0.56011   0.79375   0.00000  Uiso   1.00
O1667  O     0.16666   0.43988   0.79372   0.00000  Uiso   1.00
O1668  O     0.16667   0.56012   0.87294   0.00000  Uiso   1.00
O1669  O     0.09161   0.50000   0.86379   0.00000  Uiso   1.00
O1670  O     0.24172   0.50000   0.80288   0.00000  Uiso   1.00
O1671  O     0.09161   0.49999   0.78460   0.00000  Uiso   1.00
O1672  O     0.24172   0.50001   0.88207   0.00000  Uiso   1.00
C1673  C     0.50029   0.42106   0.83359   0.00000  Uiso   1.00
C1674  C     0.54741   0.35730   0.83814   0.00000  Uiso   1.00
C1675  C     0.49978   0.62364   0.83277   0.00000  Uiso   1.00
C1676  C     0.50022   0.37636   0.83389   0.00000  Uiso   1.00
C1677  C     0.47301   0.46921   0.68825   0.00000  Uiso   1.00
C1678  C     0.52699   0.53079   0.97841   0.00000  Uiso   1.00
C1679  C     0.47469   0.46846   0.97247   0.00000  Uiso   1.00
C1680  C     0.52531   0.53154   0.69420   0.00000  Uiso   1.00
C1681  C     0.65173   0.49663   0.73204   0.00000  Uiso   1.00
C1682  C     0.34827   0.50337   0.93462   0.00000  Uiso   1.00
C1683  C     0.40219   0.37376   0.82496   0.00000  Uiso   1.00
C1684  C     0.49971   0.57894   0.83308   0.00000  Uiso   1.00
C1685  C     0.59781   0.62624   0.84171   0.00000  Uiso   1.00
C1686  C     0.40171   0.61722   0.82353   0.00000  Uiso   1.00
C1687  C     0.59829   0.38278   0.84314   0.00000  Uiso   1.00
C1688  C     0.43917   0.43572   0.70801   0.00000  Uiso   1.00
C1689  C     0.56082   0.56428   0.95865   0.00000  Uiso   1.00
C1690  C     0.46687   0.39334   0.95522   0.00000  Uiso   1.00
C1691  C     0.53313   0.60666   0.71145   0.00000  Uiso   1.00
C1692  C     0.40154   0.49905   0.82149   0.00000  Uiso   1.00
C1693  C     0.59846   0.50095   0.84518   0.00000  Uiso   1.00
C1694  C     0.34621   0.49453   0.81575   0.00000  Uiso   1.00
C1695  C     0.65379   0.50547   0.85091   0.00000  Uiso   1.00
C1696  C     0.45281   0.35292   0.82911   0.00000  Uiso   1.00
C1697  C     0.54719   0.64708   0.83756   0.00000  Uiso   1.00
C1698  C     0.45259   0.64270   0.82852   0.00000  Uiso   1.00
Cu1699 Cu    0.50000   0.50001   0.88022   0.00000  Uiso   1.00
Cu1700 Cu    0.50000   0.49999   0.78645   0.00000  Uiso   1.00
H1701  H     0.66587   0.44367   0.77213   0.00000  Uiso   1.00
H1702  H     0.38107   0.36334   0.85398   0.00000  Uiso   1.00
H1703  H     0.40622   0.40808   0.82645   0.00000  Uiso   1.00
H1704  H     0.62140   0.63442   0.87544   0.00000  Uiso   1.00
H1705  H     0.59378   0.59192   0.84022   0.00000  Uiso   1.00
H1706  H     0.61893   0.63666   0.81268   0.00000  Uiso   1.00
H1707  H     0.40539   0.58338   0.82242   0.00000  Uiso   1.00
H1708  H     0.38131   0.62314   0.85351   0.00000  Uiso   1.00
H1709  H     0.37767   0.62566   0.79065   0.00000  Uiso   1.00
H1710  H     0.59461   0.41662   0.84424   0.00000  Uiso   1.00
H1711  H     0.62233   0.37434   0.87602   0.00000  Uiso   1.00
H1712  H     0.61848   0.48421   0.70742   0.00000  Uiso   1.00
H1713  H     0.61869   0.37686   0.81315   0.00000  Uiso   1.00
H1714  H     0.42487   0.44431   0.73976   0.00000  Uiso   1.00
H1715  H     0.40368   0.42855   0.68340   0.00000  Uiso   1.00
H1716  H     0.46008   0.40700   0.71505   0.00000  Uiso   1.00
H1717  H     0.59632   0.57145   0.98327   0.00000  Uiso   1.00
H1718  H     0.57513   0.55569   0.92691   0.00000  Uiso   1.00
H1719  H     0.53992   0.59300   0.95161   0.00000  Uiso   1.00
H1720  H     0.42818   0.44004   0.91405   0.00000  Uiso   1.00
H1721  H     0.47591   0.37957   0.92291   0.00000  Uiso   1.00
H1722  H     0.43645   0.37284   0.96809   0.00000  Uiso   1.00
H1723  H     0.35360   0.49348   0.71581   0.00000  Uiso   1.00
H1724  H     0.50208   0.39392   0.98124   0.00000  Uiso   1.00
H1725  H     0.57182   0.55996   0.75262   0.00000  Uiso   1.00
H1726  H     0.52409   0.62043   0.74376   0.00000  Uiso   1.00
H1727  H     0.49792   0.60608   0.68543   0.00000  Uiso   1.00
H1728  H     0.56355   0.62716   0.69858   0.00000  Uiso   1.00
H1729  H     0.64730   0.53008   0.73787   0.00000  Uiso   1.00
H1730  H     0.33413   0.55633   0.89454   0.00000  Uiso   1.00
H1731  H     0.38152   0.51579   0.95924   0.00000  Uiso   1.00
H1732  H     0.35270   0.46992   0.92880   0.00000  Uiso   1.00
H1733  H     0.64640   0.50651   0.95086   0.00000  Uiso   1.00
H1734  H     0.37860   0.36558   0.79123   0.00000  Uiso   1.00
N1735  N     0.50001   0.50001   0.95069   0.00000  Uiso   1.00
N1736  N     0.49999   0.49999   0.71597   0.00000  Uiso   1.00
N1737  N     0.65410   0.47327   0.77529   0.00000  Uiso   1.00
N1738  N     0.34590   0.52673   0.89138   0.00000  Uiso   1.00
N1739  N     0.44850   0.43461   0.94616   0.00000  Uiso   1.00
N1740  N     0.55150   0.56539   0.72051   0.00000  Uiso   1.00
O1741  O     0.50000   0.43989   0.87291   0.00000  Uiso   1.00
O1742  O     0.50000   0.56011   0.79375   0.00000  Uiso   1.00
O1743  O     0.50000   0.43988   0.79372   0.00000  Uiso   1.00
O1744  O     0.50000   0.56012   0.87294   0.00000  Uiso   1.00
O1745  O     0.42495   0.50000   0.86379   0.00000  Uiso   1.00
O1746  O     0.57505   0.50000   0.80288   0.00000  Uiso   1.00
O1747  O     0.42494   0.49999   0.78460   0.00000  Uiso   1.00
O1748  O     0.57506   0.50001   0.88207   0.00000  Uiso   1.00
C1749  C     0.83362   0.42106   0.83359   0.00000  Uiso   1.00
C1750  C     0.88074   0.35730   0.83814   0.00000  Uiso   1.00
C1751  C     0.83312   0.62364   0.83277   0.00000  Uiso   1.00
C1752  C     0.83355   0.37636   0.83389   0.00000  Uiso   1.00
C1753  C     0.80634   0.46921   0.68825   0.00000  Uiso   1.00
C1754  C     0.86032   0.53079   0.97841   0.00000  Uiso   1.00
C1755  C     0.80802   0.46846   0.97247   0.00000  Uiso   1.00
C1756  C     0.85864   0.53154   0.69420   0.00000  Uiso   1.00
C1757  C     0.98507   0.49663   0.73204   0.00000  Uiso   1.00
C1758  C     0.68160   0.50337   0.93462   0.00000  Uiso   1.00
C1759  C     0.73552   0.37376   0.82496   0.00000  Uiso   1.00
C1760  C     0.83304   0.57894   0.83308   0.00000  Uiso   1.00
C1761  C     0.93115   0.62624   0.84171   0.00000  Uiso   1.00
C1762  C     0.73504   0.61722   0.82353   0.00000  Uiso   1.00
C1763  C     0.93163   0.38278   0.84314   0.00000  Uiso   1.00
C1764  C     0.77251   0.43572   0.70801   0.00000  Uiso   1.00
C1765  C     0.89416   0.56428   0.95865   0.00000  Uiso   1.00
C1766  C     0.80021   0.39334   0.95522   0.00000  Uiso   1.00
C1767  C     0.86646   0.60666   0.71145   0.00000  Uiso   1.00
C1768  C     0.73487   0.49905   0.82149   0.00000  Uiso   1.00
C1769  C     0.93180   0.50095   0.84518   0.00000  Uiso   1.00
C1770  C     0.67954   0.49453   0.81575   0.00000  Uiso   1.00
C1771  C     0.98712   0.50547   0.85091   0.00000  Uiso   1.00
C1772  C     0.78614   0.35292   0.82911   0.00000  Uiso   1.00
C1773  C     0.88052   0.64708   0.83756   0.00000  Uiso   1.00
C1774  C     0.78592   0.64270   0.82852   0.00000  Uiso   1.00
Cu1775 Cu    0.83333   0.50001   0.88022   0.00000  Uiso   1.00
Cu1776 Cu    0.83333   0.49999   0.78645   0.00000  Uiso   1.00
H1777  H     0.99920   0.44367   0.77213   0.00000  Uiso   1.00
H1778  H     0.71440   0.36334   0.85398   0.00000  Uiso   1.00
H1779  H     0.73955   0.40808   0.82645   0.00000  Uiso   1.00
H1780  H     0.95473   0.63442   0.87544   0.00000  Uiso   1.00
H1781  H     0.92711   0.59192   0.84022   0.00000  Uiso   1.00
H1782  H     0.95227   0.63666   0.81268   0.00000  Uiso   1.00
H1783  H     0.73873   0.58338   0.82242   0.00000  Uiso   1.00
H1784  H     0.71464   0.62314   0.85351   0.00000  Uiso   1.00
H1785  H     0.71100   0.62566   0.79065   0.00000  Uiso   1.00
H1786  H     0.92794   0.41662   0.84424   0.00000  Uiso   1.00
H1787  H     0.95567   0.37434   0.87602   0.00000  Uiso   1.00
H1788  H     0.95182   0.48421   0.70742   0.00000  Uiso   1.00
H1789  H     0.95203   0.37686   0.81315   0.00000  Uiso   1.00
H1790  H     0.75821   0.44431   0.73976   0.00000  Uiso   1.00
H1791  H     0.73701   0.42855   0.68340   0.00000  Uiso   1.00
H1792  H     0.79341   0.40700   0.71505   0.00000  Uiso   1.00
H1793  H     0.92965   0.57145   0.98327   0.00000  Uiso   1.00
H1794  H     0.90846   0.55569   0.92691   0.00000  Uiso   1.00
H1795  H     0.87325   0.59300   0.95161   0.00000  Uiso   1.00
H1796  H     0.76151   0.44004   0.91405   0.00000  Uiso   1.00
H1797  H     0.80924   0.37957   0.92291   0.00000  Uiso   1.00
H1798  H     0.76978   0.37284   0.96809   0.00000  Uiso   1.00
H1799  H     0.68694   0.49348   0.71581   0.00000  Uiso   1.00
H1800  H     0.83541   0.39392   0.98124   0.00000  Uiso   1.00
H1801  H     0.90515   0.55996   0.75262   0.00000  Uiso   1.00
H1802  H     0.85743   0.62043   0.74376   0.00000  Uiso   1.00
H1803  H     0.83126   0.60608   0.68543   0.00000  Uiso   1.00
H1804  H     0.89689   0.62716   0.69858   0.00000  Uiso   1.00
H1805  H     0.98063   0.53008   0.73787   0.00000  Uiso   1.00
H1806  H     0.66747   0.55633   0.89454   0.00000  Uiso   1.00
H1807  H     0.71485   0.51579   0.95924   0.00000  Uiso   1.00
H1808  H     0.68604   0.46992   0.92880   0.00000  Uiso   1.00
H1809  H     0.97973   0.50651   0.95086   0.00000  Uiso   1.00
H1810  H     0.71194   0.36558   0.79123   0.00000  Uiso   1.00
N1811  N     0.83335   0.50001   0.95069   0.00000  Uiso   1.00
N1812  N     0.83332   0.49999   0.71597   0.00000  Uiso   1.00
N1813  N     0.98743   0.47327   0.77529   0.00000  Uiso   1.00
N1814  N     0.67924   0.52673   0.89138   0.00000  Uiso   1.00
N1815  N     0.78183   0.43461   0.94616   0.00000  Uiso   1.00
N1816  N     0.88483   0.56539   0.72051   0.00000  Uiso   1.00
O1817  O     0.83333   0.43989   0.87291   0.00000  Uiso   1.00
O1818  O     0.83334   0.56011   0.79375   0.00000  Uiso   1.00
O1819  O     0.83333   0.43988   0.79372   0.00000  Uiso   1.00
O1820  O     0.83334   0.56012   0.87294   0.00000  Uiso   1.00
O1821  O     0.75828   0.50000   0.86379   0.00000  Uiso   1.00
O1822  O     0.90839   0.50000   0.80288   0.00000  Uiso   1.00
O1823  O     0.75828   0.49999   0.78460   0.00000  Uiso   1.00
O1824  O     0.90839   0.50001   0.88207   0.00000  Uiso   1.00
C1825  C     0.16696   0.75439   0.83359   0.00000  Uiso   1.00
C1826  C     0.21408   0.69063   0.83814   0.00000  Uiso   1.00
C1827  C     0.16645   0.95697   0.83277   0.00000  Uiso   1.00
C1828  C     0.16688   0.70969   0.83389   0.00000  Uiso   1.00
C1829  C     0.13968   0.80255   0.68825   0.00000  Uiso   1.00
C1830  C     0.19366   0.86412   0.97841   0.00000  Uiso   1.00
C1831  C     0.14135   0.80179   0.97247   0.00000  Uiso   1.00
C1832  C     0.19198   0.86488   0.69420   0.00000  Uiso   1.00
C1833  C     0.31840   0.82997   0.73204   0.00000  Uiso   1.00
C1834  C     0.01493   0.83670   0.93462   0.00000  Uiso   1.00
C1835  C     0.06885   0.70709   0.82496   0.00000  Uiso   1.00
C1836  C     0.16638   0.91228   0.83308   0.00000  Uiso   1.00
C1837  C     0.26448   0.95957   0.84171   0.00000  Uiso   1.00
C1838  C     0.06837   0.95056   0.82353   0.00000  Uiso   1.00
C1839  C     0.26496   0.71611   0.84314   0.00000  Uiso   1.00
C1840  C     0.10584   0.76905   0.70801   0.00000  Uiso   1.00
C1841  C     0.22749   0.89762   0.95865   0.00000  Uiso   1.00
C1842  C     0.13354   0.72667   0.95522   0.00000  Uiso   1.00
C1843  C     0.19979   0.94000   0.71145   0.00000  Uiso   1.00
C1844  C     0.06820   0.83239   0.82149   0.00000  Uiso   1.00
C1845  C     0.26513   0.83428   0.84518   0.00000  Uiso   1.00
C1846  C     0.01288   0.82786   0.81575   0.00000  Uiso   1.00
C1847  C     0.32046   0.83880   0.85091   0.00000  Uiso   1.00
C1848  C     0.11948   0.68626   0.82911   0.00000  Uiso   1.00
C1849  C     0.21386   0.98041   0.83756   0.00000  Uiso   1.00
C1850  C     0.11926   0.97604   0.82852   0.00000  Uiso   1.00
Cu1851 Cu    0.16667   0.83334   0.88022   0.00000  Uiso   1.00
Cu1852 Cu    0.16667   0.83333   0.78645   0.00000  Uiso   1.00
H1853  H     0.33253   0.77700   0.77213   0.00000  Uiso   1.00
H1854  H     0.04773   0.69667   0.85398   0.00000  Uiso   1.00
H1855  H     0.07289   0.74141   0.82645   0.00000  Uiso   1.00
H1856  H     0.28806   0.96775   0.87544   0.00000  Uiso   1.00
H1857  H     0.26045   0.92526   0.84022   0.00000  Uiso   1.00
H1858  H     0.28560   0.96999   0.81268   0.00000  Uiso   1.00
H1859  H     0.07206   0.91671   0.82242   0.00000  Uiso   1.00
H1860  H     0.04797   0.95647   0.85351   0.00000  Uiso   1.00
H1861  H     0.04433   0.95900   0.79065   0.00000  Uiso   1.00
H1862  H     0.26127   0.74995   0.84424   0.00000  Uiso   1.00
H1863  H     0.28900   0.70767   0.87602   0.00000  Uiso   1.00
H1864  H     0.28515   0.81754   0.70742   0.00000  Uiso   1.00
H1865  H     0.28536   0.71020   0.81315   0.00000  Uiso   1.00
H1866  H     0.09154   0.77764   0.73976   0.00000  Uiso   1.00
H1867  H     0.07035   0.76189   0.68340   0.00000  Uiso   1.00
H1868  H     0.12675   0.74033   0.71505   0.00000  Uiso   1.00
H1869  H     0.26299   0.90478   0.98327   0.00000  Uiso   1.00
H1870  H     0.24179   0.88903   0.92691   0.00000  Uiso   1.00
H1871  H     0.20658   0.92634   0.95161   0.00000  Uiso   1.00
H1872  H     0.09485   0.77337   0.91405   0.00000  Uiso   1.00
H1873  H     0.14257   0.71290   0.92291   0.00000  Uiso   1.00
H1874  H     0.10311   0.70618   0.96809   0.00000  Uiso   1.00
H1875  H     0.02027   0.82682   0.71581   0.00000  Uiso   1.00
H1876  H     0.16874   0.72725   0.98124   0.00000  Uiso   1.00
H1877  H     0.23849   0.89329   0.75262   0.00000  Uiso   1.00
H1878  H     0.19076   0.95376   0.74376   0.00000  Uiso   1.00
H1879  H     0.16459   0.93942   0.68543   0.00000  Uiso   1.00
H1880  H     0.23022   0.96049   0.69858   0.00000  Uiso   1.00
H1881  H     0.31396   0.86342   0.73787   0.00000  Uiso   1.00
H1882  H     0.00080   0.88966   0.89454   0.00000  Uiso   1.00
H1883  H     0.04818   0.84912   0.95924   0.00000  Uiso   1.00
H1884  H     0.01937   0.80325   0.92880   0.00000  Uiso   1.00
H1885  H     0.31306   0.83985   0.95086   0.00000  Uiso   1.00
H1886  H     0.04527   0.69891   0.79123   0.00000  Uiso   1.00
N1887  N     0.16668   0.83334   0.95069   0.00000  Uiso   1.00
N1888  N     0.16665   0.83332   0.71597   0.00000  Uiso   1.00
N1889  N     0.32076   0.80660   0.77529   0.00000  Uiso   1.00
N1890  N     0.01257   0.86006   0.89138   0.00000  Uiso   1.00
N1891  N     0.11517   0.76795   0.94616   0.00000  Uiso   1.00
N1892  N     0.21817   0.89872   0.72051   0.00000  Uiso   1.00
O1893  O     0.16666   0.77322   0.87291   0.00000  Uiso   1.00
O1894  O     0.16667   0.89345   0.79375   0.00000  Uiso   1.00
O1895  O     0.16666   0.77321   0.79372   0.00000  Uiso   1.00
O1896  O     0.16667   0.89346   0.87294   0.00000  Uiso   1.00
O1897  O     0.09161   0.83334   0.86379   0.00000  Uiso   1.00
O1898  O     0.24172   0.83333   0.80288   0.00000  Uiso   1.00
O1899  O     0.09161   0.83333   0.78460   0.00000  Uiso   1.00
O1900  O     0.24172   0.83334   0.88207   0.00000  Uiso   1.00
C1901  C     0.50029   0.75439   0.83359   0.00000  Uiso   1.00
C1902  C     0.54741   0.69063   0.83814   0.00000  Uiso   1.00
C1903  C     0.49978   0.95697   0.83277   0.00000  Uiso   1.00
C1904  C     0.50022   0.70969   0.83389   0.00000  Uiso   1.00
C1905  C     0.47301   0.80255   0.68825   0.00000  Uiso   1.00
C1906  C     0.52699   0.86412   0.97841   0.00000  Uiso   1.00
C1907  C     0.47469   0.80179   0.97247   0.00000  Uiso   1.00
C1908  C     0.52531   0.86488   0.69420   0.00000  Uiso   1.00
C1909  C     0.65173   0.82997   0.73204   0.00000  Uiso   1.00
C1910  C     0.34827   0.83670   0.93462   0.00000  Uiso   1.00
C1911  C     0.40219   0.70709   0.82496   0.00000  Uiso   1.00
C1912  C     0.49971   0.91228   0.83308   0.00000  Uiso   1.00
C1913  C     0.59781   0.95957   0.84171   0.00000  Uiso   1.00
C1914  C     0.40171   0.95056   0.82353   0.00000  Uiso   1.00
C1915  C     0.59829   0.71611   0.84314   0.00000  Uiso   1.00
C1916  C     0.43917   0.76905   0.70801   0.00000  Uiso   1.00
C1917  C     0.56082   0.89762   0.95865   0.00000  Uiso   1.00
C1918  C     0.46687   0.72667   0.95522   0.00000  Uiso   1.00
C1919  C     0.53313   0.94000   0.71145   0.00000  Uiso   1.00
C1920  C     0.40154   0.83239   0.82149   0.00000  Uiso   1.00
C1921  C     0.59846   0.83428   0.84518   0.00000  Uiso   1.00
C1922  C     0.34621   0.82786   0.81575   0.00000  Uiso   1.00
C1923  C     0.65379   0.83880   0.85091   0.00000  Uiso   1.00
C1924  C     0.45281   0.68626   0.82911   0.00000  Uiso   1.00
C1925  C     0.54719   0.98041   0.83756   0.00000  Uiso   1.00
C1926  C     0.45259   0.97604   0.82852   0.00000  Uiso   1.00
Cu1927 Cu    0.50000   0.83334   0.88022   0.00000  Uiso   1.00
Cu1928 Cu    0.50000   0.83333   0.78645   0.00000  Uiso   1.00
H1929  H     0.66587   0.77700   0.77213   0.00000  Uiso   1.00
H1930  H     0.38107   0.69667   0.85398   0.00000  Uiso   1.00
H1931  H     0.40622   0.74141   0.82645   0.00000  Uiso   1.00
H1932  H     0.62140   0.96775   0.87544   0.00000  Uiso   1.00
H1933  H     0.59378   0.92526   0.84022   0.00000  Uiso   1.00
H1934  H     0.61893   0.96999   0.81268   0.00000  Uiso   1.00
H1935  H     0.40539   0.91671   0.82242   0.00000  Uiso   1.00
H1936  H     0.38131   0.95647   0.85351   0.00000  Uiso   1.00
H1937  H     0.37767   0.95900   0.79065   0.00000  Uiso   1.00
H1938  H     0.59461   0.74995   0.84424   0.00000  Uiso   1.00
H1939  H     0.62233   0.70767   0.87602   0.00000  Uiso   1.00
H1940  H     0.61848   0.81754   0.70742   0.00000  Uiso   1.00
H1941  H     0.61869   0.71020   0.81315   0.00000  Uiso   1.00
H1942  H     0.42487   0.77764   0.73976   0.00000  Uiso   1.00
H1943  H     0.40368   0.76189   0.68340   0.00000  Uiso   1.00
H1944  H     0.46008   0.74033   0.71505   0.00000  Uiso   1.00
H1945  H     0.59632   0.90478   0.98327   0.00000  Uiso   1.00
H1946  H     0.57513   0.88903   0.92691   0.00000  Uiso   1.00
H1947  H     0.53992   0.92634   0.95161   0.00000  Uiso   1.00
H1948  H     0.42818   0.77337   0.91405   0.00000  Uiso   1.00
H1949  H     0.47591   0.71290   0.92291   0.00000  Uiso   1.00
H1950  H     0.43645   0.70618   0.96809   0.00000  Uiso   1.00
H1951  H     0.35360   0.82682   0.71581   0.00000  Uiso   1.00
H1952  H     0.50208   0.72725   0.98124   0.00000  Uiso   1.00
H1953  H     0.57182   0.89329   0.75262   0.00000  Uiso   1.00
H1954  H     0.52409   0.95376   0.74376   0.00000  Uiso   1.00
H1955  H     0.49792   0.93942   0.68543   0.00000  Uiso   1.00
H1956  H     0.56355   0.96049   0.69858   0.00000  Uiso   1.00
H1957  H     0.64730   0.86342   0.73787   0.00000  Uiso   1.00
H1958  H     0.33413   0.88966   0.89454   0.00000  Uiso   1.00
H1959  H     0.38152   0.84912   0.95924   0.00000  Uiso   1.00
H1960  H     0.35270   0.80325   0.92880   0.00000  Uiso   1.00
H1961  H     0.64640   0.83985   0.95086   0.00000  Uiso   1.00
H1962  H     0.37860   0.69891   0.79123   0.00000  Uiso   1.00
N1963  N     0.50001   0.83334   0.95069   0.00000  Uiso   1.00
N1964  N     0.49999   0.83332   0.71597   0.00000  Uiso   1.00
N1965  N     0.65410   0.80660   0.77529   0.00000  Uiso   1.00
N1966  N     0.34590   0.86006   0.89138   0.00000  Uiso   1.00
N1967  N     0.44850   0.76795   0.94616   0.00000  Uiso   1.00
N1968  N     0.55150   0.89872   0.72051   0.00000  Uiso   1.00
O1969  O     0.50000   0.77322   0.87291   0.00000  Uiso   1.00
O1970  O     0.50000   0.89345   0.79375   0.00000  Uiso   1.00
O1971  O     0.50000   0.77321   0.79372   0.00000  Uiso   1.00
O1972  O     0.50000   0.89346   0.87294   0.00000  Uiso   1.00
O1973  O     0.42495   0.83334   0.86379   0.00000  Uiso   1.00
O1974  O     0.57505   0.83333   0.80288   0.00000  Uiso   1.00
O1975  O     0.42494   0.83333   0.78460   0.00000  Uiso   1.00
O1976  O     0.57506   0.83334   0.88207   0.00000  Uiso   1.00
C1977  C     0.83362   0.75439   0.83359   0.00000  Uiso   1.00
C1978  C     0.88074   0.69063   0.83814   0.00000  Uiso   1.00
C1979  C     0.83312   0.95697   0.83277   0.00000  Uiso   1.00
C1980  C     0.83355   0.70969   0.83389   0.00000  Uiso   1.00
C1981  C     0.80634   0.80255   0.68825   0.00000  Uiso   1.00
C1982  C     0.86032   0.86412   0.97841   0.00000  Uiso   1.00
C1983  C     0.80802   0.80179   0.97247   0.00000  Uiso   1.00
C1984  C     0.85864   0.86488   0.69420   0.00000  Uiso   1.00
C1985  C     0.98507   0.82997   0.73204   0.00000  Uiso   1.00
C1986  C     0.68160   0.83670   0.93462   0.00000  Uiso   1.00
C1987  C     0.73552   0.70709   0.82496   0.00000  Uiso   1.00
C1988  C     0.83304   0.91228   0.83308   0.00000  Uiso   1.00
C1989  C     0.93115   0.95957   0.84171   0.00000  Uiso   1.00
C1990  C     0.73504   0.95056   0.82353   0.00000  Uiso   1.00
C1991  C     0.93163   0.71611   0.84314   0.00000  Uiso   1.00
C1992  C     0.77251   0.76905   0.70801   0.00000  Uiso   1.00
C1993  C     0.89416   0.89762   0.95865   0.00000  Uiso   1.00
C1994  C     0.80021   0.72667   0.95522   0.00000  Uiso   1.00
C1995  C     0.86646   0.94000   0.71145   0.00000  Uiso   1.00
C1996  C     0.73487   0.83239   0.82149   0.00000  Uiso   1.00
C1997  C     0.93180   0.83428   0.84518   0.00000  Uiso   1.00
C1998  C     0.67954   0.82786   0.81575   0.00000  Uiso   1.00
C1999  C     0.98712   0.83880   0.85091   0.00000  Uiso   1.00
C2000  C     0.78614   0.68626   0.82911   0.00000  Uiso   1.00
C2001  C     0.88052   0.98041   0.83756   0.00000  Uiso   1.00
C2002  C     0.78592   0.97604   0.82852   0.00000  Uiso   1.00
Cu2003 Cu    0.83333   0.83334   0.88022   0.00000  Uiso   1.00
Cu2004 Cu    0.83333   0.83333   0.78645   0.00000  Uiso   1.00
H2005  H     0.99920   0.77700   0.77213   0.00000  Uiso   1.00
H2006  H     0.71440   0.69667   0.85398   0.00000  Uiso   1.00
H2007  H     0.73955   0.74141   0.82645   0.00000  Uiso   1.00
H2008  H     0.95473   0.96775   0.87544   0.00000  Uiso   1.00
H2009  H     0.92711   0.92526   0.84022   0.00000  Uiso   1.00
H2010  H     0.95227   0.96999   0.81268   0.00000  Uiso   1.00
H2011  H     0.73873   0.91671   0.82242   0.00000  Uiso   1.00
H2012  H     0.71464   0.95647   0.85351   0.00000  Uiso   1.00
H2013  H     0.71100   0.95900   0.79065   0.00000  Uiso   1.00
H2014  H     0.92794   0.74995   0.84424   0.00000  Uiso   1.00
H2015  H     0.95567   0.70767   0.87602   0.00000  Uiso   1.00
H2016  H     0.95182   0.81754   0.70742   0.00000  Uiso   1.00
H2017  H     0.95203   0.71020   0.81315   0.00000  Uiso   1.00
H2018  H     0.75821   0.77764   0.73976   0.00000  Uiso   1.00
H2019  H     0.73701   0.76189   0.68340   0.00000  Uiso   1.00
H2020  H     0.79341   0.74033   0.71505   0.00000  Uiso   1.00
H2021  H     0.92965   0.90478   0.98327   0.00000  Uiso   1.00
H2022  H     0.90846   0.88903   0.92691   0.00000  Uiso   1.00
H2023  H     0.87325   0.92634   0.95161   0.00000  Uiso   1.00
H2024  H     0.76151   0.77337   0.91405   0.00000  Uiso   1.00
H2025  H     0.80924   0.71290   0.92291   0.00000  Uiso   1.00
H2026  H     0.76978   0.70618   0.96809   0.00000  Uiso   1.00
H2027  H     0.68694   0.82682   0.71581   0.00000  Uiso   1.00
H2028  H     0.83541   0.72725   0.98124   0.00000  Uiso   1.00
H2029  H     0.90515   0.89329   0.75262   0.00000  Uiso   1.00
H2030  H     0.85743   0.95376   0.74376   0.00000  Uiso   1.00
H2031  H     0.83126   0.93942   0.68543   0.00000  Uiso   1.00
H2032  H     0.89689   0.96049   0.69858   0.00000  Uiso   1.00
H2033  H     0.98063   0.86342   0.73787   0.00000  Uiso   1.00
H2034  H     0.66747   0.88966   0.89454   0.00000  Uiso   1.00
H2035  H     0.71485   0.84912   0.95924   0.00000  Uiso   1.00
H2036  H     0.68604   0.80325   0.92880   0.00000  Uiso   1.00
H2037  H     0.97973   0.83985   0.95086   0.00000  Uiso   1.00
H2038  H     0.71194   0.69891   0.79123   0.00000  Uiso   1.00
N2039  N     0.83335   0.83334   0.95069   0.00000  Uiso   1.00
N2040  N     0.83332   0.83332   0.71597   0.00000  Uiso   1.00
N2041  N     0.98743   0.80660   0.77529   0.00000  Uiso   1.00
N2042  N     0.67924   0.86006   0.89138   0.00000  Uiso   1.00
N2043  N     0.78183   0.76795   0.94616   0.00000  Uiso   1.00
N2044  N     0.88483   0.89872   0.72051   0.00000  Uiso   1.00
O2045  O     0.83333   0.77322   0.87291   0.00000  Uiso   1.00
O2046  O     0.83334   0.89345   0.79375   0.00000  Uiso   1.00
O2047  O     0.83333   0.77321   0.79372   0.00000  Uiso   1.00
O2048  O     0.83334   0.89346   0.87294   0.00000  Uiso   1.00
O2049  O     0.75828   0.83334   0.86379   0.00000  Uiso   1.00
O2050  O     0.90839   0.83333   0.80288   0.00000  Uiso   1.00
O2051  O     0.75828   0.83333   0.78460   0.00000  Uiso   1.00
O2052  O     0.90839   0.83334   0.88207   0.00000  Uiso   1.00
loop_
_geom_bond_atom_site_label_1
_geom_bond_atom_site_label_2
_geom_bond_distance
_geom_bond_site_symmetry_2
_ccdc_geom_bond_type
C1     C4      1.441   .     S
C1     O71     1.297   .     A
C1     O69     1.301   .     A
C2     C4      1.413   .     A
C2     C15     1.521   .     S
C2     C481    1.404   1_545 S
C3     C25     1.412   .     A
C3     C12     1.441   .     S
C3     C26     1.413   .     A
C4     C24     1.412   .     A
C5     C16     1.515   .     S
C5     N64     1.384   .     A
C5     C1375   1.432   1_554 S
C6     N63     1.384   .     A
C6     C17     1.515   .     S
C6     C692    1.432   .     S
C7     N63     1.376   .     A
C7     N67     1.427   .     S
C7     C689    1.432   .     S
C8     N64     1.376   .     A
C8     N68     1.427   .     S
C8     C1374   1.432   1_554 S
C9     H40     1.110   .     S
C9     H57     1.110   .     S
C9     N65     1.449   .     S
C9     H127    1.110   .     S
C10    H60     1.110   .     S
C10    N66     1.449   .     S
C10    H59     1.110   .     S
C10    H213    1.110   1_455 S
C11    H62     1.110   .     S
C11    H30     1.110   .     S
C11    H31     1.106   .     S
C11    C24     1.522   .     S
C12    O72     1.297   .     A
C12    O70     1.301   .     A
C13    H33     1.106   .     S
C13    H32     1.110   .     S
C13    H34     1.110   .     S
C13    C25     1.522   .     S
C14    C26     1.521   .     S
C14    H37     1.110   .     S
C14    H36     1.109   .     S
C14    H35     1.103   .     S
C15    H38     1.103   .     S
C15    H41     1.109   .     S
C15    H39     1.110   .     S
C16    H44     1.109   .     S
C16    H43     1.110   .     S
C16    H42     1.088   .     S
C17    H47     1.109   .     S
C17    H45     1.110   .     S
C17    H46     1.088   .     S
C18    H50     1.110   .     S
C18    H52     1.112   .     S
C18    H49     1.104   .     S
C18    N67     1.453   .     S
C19    H56     1.110   .     S
C19    H54     1.104   .     S
C19    N68     1.453   .     S
C19    H55     1.112   .     S
C20    O75     1.307   .     A
C20    O73     1.294   .     A
C20    C22     1.445   .     S
C21    O76     1.307   .     A
C21    C23     1.445   .     S
C21    O74     1.294   .     A
C22    C175    1.364   1_455 S
C22    N217    1.430   1_455 S
C23    C98     1.364   .     S
C23    N142    1.430   .     S
C24    C482    1.404   1_545 S
C25    C230    1.404   .     S
C26    C252    1.404   .     S
Cu27   O76     1.975   .     S
Cu27   N63     2.044   .     S
Cu27   Cu28    2.719   .     S
Cu27   O73     1.973   .     S
Cu27   O72     1.947   .     S
Cu27   O69     1.953   .     S
Cu28   O74     1.973   .     S
Cu28   N64     2.044   .     S
Cu28   O71     1.947   .     S
Cu28   O75     1.975   .     S
Cu28   O70     1.953   .     S
H29    N65     1.031   .     S
H48    N67     1.026   .     S
H51    C161    1.110   1_455 S
H53    N68     1.026   .     S
H58    N66     1.031   .     S
H61    C86     1.110   .     S
N65    C98     1.430   .     S
N66    C175    1.430   1_455 S
C77    C80     1.441   .     S
C77    O147    1.297   .     A
C77    O145    1.301   .     A
C78    C80     1.413   .     A
C78    C91     1.521   .     S
C78    C557    1.404   1_545 S
C79    C101    1.412   .     A
C79    C88     1.441   .     S
C79    C102    1.413   .     A
C80    C100    1.412   .     A
C81    C92     1.515   .     S
C81    N140    1.384   .     A
C81    C1451   1.432   1_554 S
C82    N139    1.384   .     A
C82    C93     1.515   .     S
C82    C768    1.432   .     S
C83    N139    1.376   .     A
C83    N143    1.427   .     S
C83    C765    1.432   .     S
C84    N140    1.376   .     A
C84    N144    1.427   .     S
C84    C1450   1.432   1_554 S
C85    H116    1.110   .     S
C85    H133    1.110   .     S
C85    N141    1.449   .     S
C85    H203    1.110   .     S
C86    H136    1.110   .     S
C86    N142    1.449   .     S
C86    H135    1.110   .     S
C87    H138    1.110   .     S
C87    H106    1.110   .     S
C87    H107    1.106   .     S
C87    C100    1.522   .     S
C88    O148    1.297   .     A
C88    O146    1.301   .     A
C89    H109    1.106   .     S
C89    H108    1.110   .     S
C89    H110    1.110   .     S
C89    C101    1.522   .     S
C90    C102    1.521   .     S
C90    H113    1.110   .     S
C90    H112    1.109   .     S
C90    H111    1.103   .     S
C91    H114    1.103   .     S
C91    H117    1.109   .     S
C91    H115    1.110   .     S
C92    H120    1.109   .     S
C92    H119    1.110   .     S
C92    H118    1.088   .     S
C93    H123    1.109   .     S
C93    H121    1.110   .     S
C93    H122    1.088   .     S
C94    H126    1.110   .     S
C94    H128    1.112   .     S
C94    H125    1.104   .     S
C94    N143    1.453   .     S
C95    H132    1.110   .     S
C95    H130    1.104   .     S
C95    N144    1.453   .     S
C95    H131    1.112   .     S
C96    O151    1.307   .     A
C96    O149    1.294   .     A
C96    C98     1.445   .     S
C97    O152    1.307   .     A
C97    C99     1.445   .     S
C97    O150    1.294   .     A
C99    C174    1.364   .     S
C99    N218    1.430   .     S
C100   C558    1.404   1_545 S
C101   C306    1.404   .     S
C102   C328    1.404   .     S
Cu103  O152    1.975   .     S
Cu103  N139    2.044   .     S
Cu103  Cu104   2.719   .     S
Cu103  O149    1.973   .     S
Cu103  O148    1.947   .     S
Cu103  O145    1.953   .     S
Cu104  O150    1.973   .     S
Cu104  N140    2.044   .     S
Cu104  O147    1.947   .     S
Cu104  O151    1.975   .     S
Cu104  O146    1.953   .     S
H105   N141    1.031   .     S
H124   N143    1.026   .     S
H129   N144    1.026   .     S
H134   N142    1.031   .     S
H137   C162    1.110   .     S
N141   C174    1.430   .     S
C153   C156    1.441   .     S
C153   O223    1.297   .     A
C153   O221    1.301   .     A
C154   C156    1.413   .     A
C154   C167    1.521   .     S
C154   C633    1.404   1_545 S
C155   C177    1.412   .     A
C155   C164    1.441   .     S
C155   C178    1.413   .     A
C156   C176    1.412   .     A
C157   C168    1.515   .     S
C157   N216    1.384   .     A
C157   C1527   1.432   1_554 S
C158   N215    1.384   .     A
C158   C169    1.515   .     S
C158   C844    1.432   .     S
C159   N215    1.376   .     A
C159   N219    1.427   .     S
C159   C841    1.432   .     S
C160   N216    1.376   .     A
C160   N220    1.427   .     S
C160   C1526   1.432   1_554 S
C161   H192    1.110   .     S
C161   H209    1.110   .     S
C161   N217    1.449   .     S
C161   H51     1.110   1_655 S
C162   H212    1.110   .     S
C162   N218    1.449   .     S
C162   H211    1.110   .     S
C163   H214    1.110   .     S
C163   H182    1.110   .     S
C163   H183    1.106   .     S
C163   C176    1.522   .     S
C164   O224    1.297   .     A
C164   O222    1.301   .     A
C165   H185    1.106   .     S
C165   H184    1.110   .     S
C165   H186    1.110   .     S
C165   C177    1.522   .     S
C166   C178    1.521   .     S
C166   H189    1.110   .     S
C166   H188    1.109   .     S
C166   H187    1.103   .     S
C167   H190    1.103   .     S
C167   H193    1.109   .     S
C167   H191    1.110   .     S
C168   H196    1.109   .     S
C168   H195    1.110   .     S
C168   H194    1.088   .     S
C169   H199    1.109   .     S
C169   H197    1.110   .     S
C169   H198    1.088   .     S
C170   H202    1.110   .     S
C170   H204    1.112   .     S
C170   H201    1.104   .     S
C170   N219    1.453   .     S
C171   H208    1.110   .     S
C171   H206    1.104   .     S
C171   N220    1.453   .     S
C171   H207    1.112   .     S
C172   O227    1.307   .     A
C172   O225    1.294   .     A
C172   C174    1.445   .     S
C173   O228    1.307   .     A
C173   C175    1.445   .     S
C173   O226    1.294   .     A
C175   C22     1.364   1_655 S
C175   N66     1.430   1_655 S
C176   C634    1.404   1_545 S
C177   C382    1.404   .     S
C178   C404    1.404   .     S
Cu179  O228    1.975   .     S
Cu179  N215    2.044   .     S
Cu179  Cu180   2.719   .     S
Cu179  O225    1.973   .     S
Cu179  O224    1.947   .     S
Cu179  O221    1.953   .     S
Cu180  O226    1.973   .     S
Cu180  N216    2.044   .     S
Cu180  O223    1.947   .     S
Cu180  O227    1.975   .     S
Cu180  O222    1.953   .     S
H181   N217    1.031   .     S
H200   N219    1.026   .     S
H205   N220    1.026   .     S
H210   N218    1.031   .     S
H213   C10     1.110   1_655 S
N217   C22     1.430   1_655 S
C229   C232    1.441   .     S
C229   O299    1.297   .     A
C229   O297    1.301   .     A
C230   C232    1.413   .     A
C230   C243    1.521   .     S
C231   C253    1.412   .     A
C231   C240    1.441   .     S
C231   C254    1.413   .     A
C232   C252    1.412   .     A
C233   C244    1.515   .     S
C233   N292    1.384   .     A
C233   C1603   1.432   1_554 S
C234   N291    1.384   .     A
C234   C245    1.515   .     S
C234   C920    1.432   .     S
C235   N291    1.376   .     A
C235   N295    1.427   .     S
C235   C917    1.432   .     S
C236   N292    1.376   .     A
C236   N296    1.427   .     S
C236   C1602   1.432   1_554 S
C237   H268    1.110   .     S
C237   H285    1.110   .     S
C237   N293    1.449   .     S
C237   H355    1.110   .     S
C238   H288    1.110   .     S
C238   N294    1.449   .     S
C238   H287    1.110   .     S
C238   H441    1.110   1_455 S
C239   H290    1.110   .     S
C239   H258    1.110   .     S
C239   H259    1.106   .     S
C239   C252    1.522   .     S
C240   O300    1.297   .     A
C240   O298    1.301   .     A
C241   H261    1.106   .     S
C241   H260    1.110   .     S
C241   H262    1.110   .     S
C241   C253    1.522   .     S
C242   C254    1.521   .     S
C242   H265    1.110   .     S
C242   H264    1.109   .     S
C242   H263    1.103   .     S
C243   H266    1.103   .     S
C243   H269    1.109   .     S
C243   H267    1.110   .     S
C244   H272    1.109   .     S
C244   H271    1.110   .     S
C244   H270    1.088   .     S
C245   H275    1.109   .     S
C245   H273    1.110   .     S
C245   H274    1.088   .     S
C246   H278    1.110   .     S
C246   H280    1.112   .     S
C246   H277    1.104   .     S
C246   N295    1.453   .     S
C247   H284    1.110   .     S
C247   H282    1.104   .     S
C247   N296    1.453   .     S
C247   H283    1.112   .     S
C248   O303    1.307   .     A
C248   O301    1.294   .     A
C248   C250    1.445   .     S
C249   O304    1.307   .     A
C249   C251    1.445   .     S
C249   O302    1.294   .     A
C250   C403    1.364   1_455 S
C250   N445    1.430   1_455 S
C251   C326    1.364   .     S
C251   N370    1.430   .     S
C253   C458    1.404   .     S
C254   C480    1.404   .     S
Cu255  O304    1.975   .     S
Cu255  N291    2.044   .     S
Cu255  Cu256   2.719   .     S
Cu255  O301    1.973   .     S
Cu255  O300    1.947   .     S
Cu255  O297    1.953   .     S
Cu256  O302    1.973   .     S
Cu256  N292    2.044   .     S
Cu256  O299    1.947   .     S
Cu256  O303    1.975   .     S
Cu256  O298    1.953   .     S
H257   N293    1.031   .     S
H276   N295    1.026   .     S
H279   C389    1.110   1_455 S
H281   N296    1.026   .     S
H286   N294    1.031   .     S
H289   C314    1.110   .     S
N293   C326    1.430   .     S
N294   C403    1.430   1_455 S
C305   C308    1.441   .     S
C305   O375    1.297   .     A
C305   O373    1.301   .     A
C306   C308    1.413   .     A
C306   C319    1.521   .     S
C307   C329    1.412   .     A
C307   C316    1.441   .     S
C307   C330    1.413   .     A
C308   C328    1.412   .     A
C309   C320    1.515   .     S
C309   N368    1.384   .     A
C309   C1679   1.432   1_554 S
C310   N367    1.384   .     A
C310   C321    1.515   .     S
C310   C996    1.432   .     S
C311   N367    1.376   .     A
C311   N371    1.427   .     S
C311   C993    1.432   .     S
C312   N368    1.376   .     A
C312   N372    1.427   .     S
C312   C1678   1.432   1_554 S
C313   H344    1.110   .     S
C313   H361    1.110   .     S
C313   N369    1.449   .     S
C313   H431    1.110   .     S
C314   H364    1.110   .     S
C314   N370    1.449   .     S
C314   H363    1.110   .     S
C315   H366    1.110   .     S
C315   H334    1.110   .     S
C315   H335    1.106   .     S
C315   C328    1.522   .     S
C316   O376    1.297   .     A
C316   O374    1.301   .     A
C317   H337    1.106   .     S
C317   H336    1.110   .     S
C317   H338    1.110   .     S
C317   C329    1.522   .     S
C318   C330    1.521   .     S
C318   H341    1.110   .     S
C318   H340    1.109   .     S
C318   H339    1.103   .     S
C319   H342    1.103   .     S
C319   H345    1.109   .     S
C319   H343    1.110   .     S
C320   H348    1.109   .     S
C320   H347    1.110   .     S
C320   H346    1.088   .     S
C321   H351    1.109   .     S
C321   H349    1.110   .     S
C321   H350    1.088   .     S
C322   H354    1.110   .     S
C322   H356    1.112   .     S
C322   H353    1.104   .     S
C322   N371    1.453   .     S
C323   H360    1.110   .     S
C323   H358    1.104   .     S
C323   N372    1.453   .     S
C323   H359    1.112   .     S
C324   O379    1.307   .     A
C324   O377    1.294   .     A
C324   C326    1.445   .     S
C325   O380    1.307   .     A
C325   C327    1.445   .     S
C325   O378    1.294   .     A
C327   C402    1.364   .     S
C327   N446    1.430   .     S
C329   C534    1.404   .     S
C330   C556    1.404   .     S
Cu331  O380    1.975   .     S
Cu331  N367    2.044   .     S
Cu331  Cu332   2.719   .     S
Cu331  O377    1.973   .     S
Cu331  O376    1.947   .     S
Cu331  O373    1.953   .     S
Cu332  O378    1.973   .     S
Cu332  N368    2.044   .     S
Cu332  O375    1.947   .     S
Cu332  O379    1.975   .     S
Cu332  O374    1.953   .     S
H333   N369    1.031   .     S
H352   N371    1.026   .     S
H357   N372    1.026   .     S
H362   N370    1.031   .     S
H365   C390    1.110   .     S
N369   C402    1.430   .     S
C381   C384    1.441   .     S
C381   O451    1.297   .     A
C381   O449    1.301   .     A
C382   C384    1.413   .     A
C382   C395    1.521   .     S
C383   C405    1.412   .     A
C383   C392    1.441   .     S
C383   C406    1.413   .     A
C384   C404    1.412   .     A
C385   C396    1.515   .     S
C385   N444    1.384   .     A
C385   C1755   1.432   1_554 S
C386   N443    1.384   .     A
C386   C397    1.515   .     S
C386   C1072   1.432   .     S
C387   N443    1.376   .     A
C387   N447    1.427   .     S
C387   C1069   1.432   .     S
C388   N444    1.376   .     A
C388   N448    1.427   .     S
C388   C1754   1.432   1_554 S
C389   H420    1.110   .     S
C389   H437    1.110   .     S
C389   N445    1.449   .     S
C389   H279    1.110   1_655 S
C390   H440    1.110   .     S
C390   N446    1.449   .     S
C390   H439    1.110   .     S
C391   H442    1.110   .     S
C391   H410    1.110   .     S
C391   H411    1.106   .     S
C391   C404    1.522   .     S
C392   O452    1.297   .     A
C392   O450    1.301   .     A
C393   H413    1.106   .     S
C393   H412    1.110   .     S
C393   H414    1.110   .     S
C393   C405    1.522   .     S
C394   C406    1.521   .     S
C394   H417    1.110   .     S
C394   H416    1.109   .     S
C394   H415    1.103   .     S
C395   H418    1.103   .     S
C395   H421    1.109   .     S
C395   H419    1.110   .     S
C396   H424    1.109   .     S
C396   H423    1.110   .     S
C396   H422    1.088   .     S
C397   H427    1.109   .     S
C397   H425    1.110   .     S
C397   H426    1.088   .     S
C398   H430    1.110   .     S
C398   H432    1.112   .     S
C398   H429    1.104   .     S
C398   N447    1.453   .     S
C399   H436    1.110   .     S
C399   H434    1.104   .     S
C399   N448    1.453   .     S
C399   H435    1.112   .     S
C400   O455    1.307   .     A
C400   O453    1.294   .     A
C400   C402    1.445   .     S
C401   O456    1.307   .     A
C401   C403    1.445   .     S
C401   O454    1.294   .     A
C403   C250    1.364   1_655 S
C403   N294    1.430   1_655 S
C405   C610    1.404   .     S
C406   C632    1.404   .     S
Cu407  O456    1.975   .     S
Cu407  N443    2.044   .     S
Cu407  Cu408   2.719   .     S
Cu407  O453    1.973   .     S
Cu407  O452    1.947   .     S
Cu407  O449    1.953   .     S
Cu408  O454    1.973   .     S
Cu408  N444    2.044   .     S
Cu408  O451    1.947   .     S
Cu408  O455    1.975   .     S
Cu408  O450    1.953   .     S
H409   N445    1.031   .     S
H428   N447    1.026   .     S
H433   N448    1.026   .     S
H438   N446    1.031   .     S
H441   C238    1.110   1_655 S
N445   C250    1.430   1_655 S
C457   C460    1.441   .     S
C457   O527    1.297   .     A
C457   O525    1.301   .     A
C458   C460    1.413   .     A
C458   C471    1.521   .     S
C459   C481    1.412   .     A
C459   C468    1.441   .     S
C459   C482    1.413   .     A
C460   C480    1.412   .     A
C461   C472    1.515   .     S
C461   N520    1.384   .     A
C461   C1831   1.432   1_554 S
C462   N519    1.384   .     A
C462   C473    1.515   .     S
C462   C1148   1.432   .     S
C463   N519    1.376   .     A
C463   N523    1.427   .     S
C463   C1145   1.432   .     S
C464   N520    1.376   .     A
C464   N524    1.427   .     S
C464   C1830   1.432   1_554 S
C465   H496    1.110   .     S
C465   H513    1.110   .     S
C465   N521    1.449   .     S
C465   H583    1.110   .     S
C466   H516    1.110   .     S
C466   N522    1.449   .     S
C466   H515    1.110   .     S
C466   H669    1.110   1_455 S
C467   H518    1.110   .     S
C467   H486    1.110   .     S
C467   H487    1.106   .     S
C467   C480    1.522   .     S
C468   O528    1.297   .     A
C468   O526    1.301   .     A
C469   H489    1.106   .     S
C469   H488    1.110   .     S
C469   H490    1.110   .     S
C469   C481    1.522   .     S
C470   C482    1.521   .     S
C470   H493    1.110   .     S
C470   H492    1.109   .     S
C470   H491    1.103   .     S
C471   H494    1.103   .     S
C471   H497    1.109   .     S
C471   H495    1.110   .     S
C472   H500    1.109   .     S
C472   H499    1.110   .     S
C472   H498    1.088   .     S
C473   H503    1.109   .     S
C473   H501    1.110   .     S
C473   H502    1.088   .     S
C474   H506    1.110   .     S
C474   H508    1.112   .     S
C474   H505    1.104   .     S
C474   N523    1.453   .     S
C475   H512    1.110   .     S
C475   H510    1.104   .     S
C475   N524    1.453   .     S
C475   H511    1.112   .     S
C476   O531    1.307   .     A
C476   O529    1.294   .     A
C476   C478    1.445   .     S
C477   O532    1.307   .     A
C477   C479    1.445   .     S
C477   O530    1.294   .     A
C478   C631    1.364   1_455 S
C478   N673    1.430   1_455 S
C479   C554    1.364   .     S
C479   N598    1.430   .     S
C481   C2      1.404   1_565 S
C482   C24     1.404   1_565 S
Cu483  O532    1.975   .     S
Cu483  N519    2.044   .     S
Cu483  Cu484   2.719   .     S
Cu483  O529    1.973   .     S
Cu483  O528    1.947   .     S
Cu483  O525    1.953   .     S
Cu484  O530    1.973   .     S
Cu484  N520    2.044   .     S
Cu484  O527    1.947   .     S
Cu484  O531    1.975   .     S
Cu484  O526    1.953   .     S
H485   N521    1.031   .     S
H504   N523    1.026   .     S
H507   C617    1.110   1_455 S
H509   N524    1.026   .     S
H514   N522    1.031   .     S
H517   C542    1.110   .     S
N521   C554    1.430   .     S
N522   C631    1.430   1_455 S
C533   C536    1.441   .     S
C533   O603    1.297   .     A
C533   O601    1.301   .     A
C534   C536    1.413   .     A
C534   C547    1.521   .     S
C535   C557    1.412   .     A
C535   C544    1.441   .     S
C535   C558    1.413   .     A
C536   C556    1.412   .     A
C537   C548    1.515   .     S
C537   N596    1.384   .     A
C537   C1907   1.432   1_554 S
C538   N595    1.384   .     A
C538   C549    1.515   .     S
C538   C1224   1.432   .     S
C539   N595    1.376   .     A
C539   N599    1.427   .     S
C539   C1221   1.432   .     S
C540   N596    1.376   .     A
C540   N600    1.427   .     S
C540   C1906   1.432   1_554 S
C541   H572    1.110   .     S
C541   H589    1.110   .     S
C541   N597    1.449   .     S
C541   H659    1.110   .     S
C542   H592    1.110   .     S
C542   N598    1.449   .     S
C542   H591    1.110   .     S
C543   H594    1.110   .     S
C543   H562    1.110   .     S
C543   H563    1.106   .     S
C543   C556    1.522   .     S
C544   O604    1.297   .     A
C544   O602    1.301   .     A
C545   H565    1.106   .     S
C545   H564    1.110   .     S
C545   H566    1.110   .     S
C545   C557    1.522   .     S
C546   C558    1.521   .     S
C546   H569    1.110   .     S
C546   H568    1.109   .     S
C546   H567    1.103   .     S
C547   H570    1.103   .     S
C547   H573    1.109   .     S
C547   H571    1.110   .     S
C548   H576    1.109   .     S
C548   H575    1.110   .     S
C548   H574    1.088   .     S
C549   H579    1.109   .     S
C549   H577    1.110   .     S
C549   H578    1.088   .     S
C550   H582    1.110   .     S
C550   H584    1.112   .     S
C550   H581    1.104   .     S
C550   N599    1.453   .     S
C551   H588    1.110   .     S
C551   H586    1.104   .     S
C551   N600    1.453   .     S
C551   H587    1.112   .     S
C552   O607    1.307   .     A
C552   O605    1.294   .     A
C552   C554    1.445   .     S
C553   O608    1.307   .     A
C553   C555    1.445   .     S
C553   O606    1.294   .     A
C555   C630    1.364   .     S
C555   N674    1.430   .     S
C557   C78     1.404   1_565 S
C558   C100    1.404   1_565 S
Cu559  O608    1.975   .     S
Cu559  N595    2.044   .     S
Cu559  Cu560   2.719   .     S
Cu559  O605    1.973   .     S
Cu559  O604    1.947   .     S
Cu559  O601    1.953   .     S
Cu560  O606    1.973   .     S
Cu560  N596    2.044   .     S
Cu560  O603    1.947   .     S
Cu560  O607    1.975   .     S
Cu560  O602    1.953   .     S
H561   N597    1.031   .     S
H580   N599    1.026   .     S
H585   N600    1.026   .     S
H590   N598    1.031   .     S
H593   C618    1.110   .     S
N597   C630    1.430   .     S
C609   C612    1.441   .     S
C609   O679    1.297   .     A
C609   O677    1.301   .     A
C610   C612    1.413   .     A
C610   C623    1.521   .     S
C611   C633    1.412   .     A
C611   C620    1.441   .     S
C611   C634    1.413   .     A
C612   C632    1.412   .     A
C613   C624    1.515   .     S
C613   N672    1.384   .     A
C613   C1983   1.432   1_554 S
C614   N671    1.384   .     A
C614   C625    1.515   .     S
C614   C1300   1.432   .     S
C615   N671    1.376   .     A
C615   N675    1.427   .     S
C615   C1297   1.432   .     S
C616   N672    1.376   .     A
C616   N676    1.427   .     S
C616   C1982   1.432   1_554 S
C617   H648    1.110   .     S
C617   H665    1.110   .     S
C617   N673    1.449   .     S
C617   H507    1.110   1_655 S
C618   H668    1.110   .     S
C618   N674    1.449   .     S
C618   H667    1.110   .     S
C619   H670    1.110   .     S
C619   H638    1.110   .     S
C619   H639    1.106   .     S
C619   C632    1.522   .     S
C620   O680    1.297   .     A
C620   O678    1.301   .     A
C621   H641    1.106   .     S
C621   H640    1.110   .     S
C621   H642    1.110   .     S
C621   C633    1.522   .     S
C622   C634    1.521   .     S
C622   H645    1.110   .     S
C622   H644    1.109   .     S
C622   H643    1.103   .     S
C623   H646    1.103   .     S
C623   H649    1.109   .     S
C623   H647    1.110   .     S
C624   H652    1.109   .     S
C624   H651    1.110   .     S
C624   H650    1.088   .     S
C625   H655    1.109   .     S
C625   H653    1.110   .     S
C625   H654    1.088   .     S
C626   H658    1.110   .     S
C626   H660    1.112   .     S
C626   H657    1.104   .     S
C626   N675    1.453   .     S
C627   H664    1.110   .     S
C627   H662    1.104   .     S
C627   N676    1.453   .     S
C627   H663    1.112   .     S
C628   O683    1.307   .     A
C628   O681    1.294   .     A
C628   C630    1.445   .     S
C629   O684    1.307   .     A
C629   C631    1.445   .     S
C629   O682    1.294   .     A
C631   C478    1.364   1_655 S
C631   N522    1.430   1_655 S
C633   C154    1.404   1_565 S
C634   C176    1.404   1_565 S
Cu635  O684    1.975   .     S
Cu635  N671    2.044   .     S
Cu635  Cu636   2.719   .     S
Cu635  O681    1.973   .     S
Cu635  O680    1.947   .     S
Cu635  O677    1.953   .     S
Cu636  O682    1.973   .     S
Cu636  N672    2.044   .     S
Cu636  O679    1.947   .     S
Cu636  O683    1.975   .     S
Cu636  O678    1.953   .     S
H637   N673    1.031   .     S
H656   N675    1.026   .     S
H661   N676    1.026   .     S
H666   N674    1.031   .     S
H669   C466    1.110   1_655 S
N673   C478    1.430   1_655 S
C685   C688    1.441   .     S
C685   O755    1.297   .     A
C685   O753    1.301   .     A
C686   C688    1.413   .     A
C686   C699    1.521   .     S
C686   C1165   1.404   1_545 S
C687   C709    1.412   .     A
C687   C696    1.441   .     S
C687   C710    1.413   .     A
C688   C708    1.412   .     A
C689   C700    1.515   .     S
C689   N748    1.384   .     A
C690   N747    1.384   .     A
C690   C701    1.515   .     S
C690   C1376   1.432   .     S
C691   N747    1.376   .     A
C691   N751    1.427   .     S
C691   C1373   1.432   .     S
C692   N748    1.376   .     A
C692   N752    1.427   .     S
C693   H724    1.110   .     S
C693   H741    1.110   .     S
C693   N749    1.449   .     S
C693   H811    1.110   .     S
C694   H744    1.110   .     S
C694   N750    1.449   .     S
C694   H743    1.110   .     S
C694   H897    1.110   1_455 S
C695   H746    1.110   .     S
C695   H714    1.110   .     S
C695   H715    1.106   .     S
C695   C708    1.522   .     S
C696   O756    1.297   .     A
C696   O754    1.301   .     A
C697   H717    1.106   .     S
C697   H716    1.110   .     S
C697   H718    1.110   .     S
C697   C709    1.522   .     S
C698   C710    1.521   .     S
C698   H721    1.110   .     S
C698   H720    1.109   .     S
C698   H719    1.103   .     S
C699   H722    1.103   .     S
C699   H725    1.109   .     S
C699   H723    1.110   .     S
C700   H728    1.109   .     S
C700   H727    1.110   .     S
C700   H726    1.088   .     S
C701   H731    1.109   .     S
C701   H729    1.110   .     S
C701   H730    1.088   .     S
C702   H734    1.110   .     S
C702   H736    1.112   .     S
C702   H733    1.104   .     S
C702   N751    1.453   .     S
C703   H740    1.110   .     S
C703   H738    1.104   .     S
C703   N752    1.453   .     S
C703   H739    1.112   .     S
C704   O759    1.307   .     A
C704   O757    1.294   .     A
C704   C706    1.445   .     S
C705   O760    1.307   .     A
C705   C707    1.445   .     S
C705   O758    1.294   .     A
C706   C859    1.364   1_455 S
C706   N901    1.430   1_455 S
C707   C782    1.364   .     S
C707   N826    1.430   .     S
C708   C1166   1.404   1_545 S
C709   C914    1.404   .     S
C710   C936    1.404   .     S
Cu711  O760    1.975   .     S
Cu711  N747    2.044   .     S
Cu711  Cu712   2.719   .     S
Cu711  O757    1.973   .     S
Cu711  O756    1.947   .     S
Cu711  O753    1.953   .     S
Cu712  O758    1.973   .     S
Cu712  N748    2.044   .     S
Cu712  O755    1.947   .     S
Cu712  O759    1.975   .     S
Cu712  O754    1.953   .     S
H713   N749    1.031   .     S
H732   N751    1.026   .     S
H735   C845    1.110   1_455 S
H737   N752    1.026   .     S
H742   N750    1.031   .     S
H745   C770    1.110   .     S
N749   C782    1.430   .     S
N750   C859    1.430   1_455 S
C761   C764    1.441   .     S
C761   O831    1.297   .     A
C761   O829    1.301   .     A
C762   C764    1.413   .     A
C762   C775    1.521   .     S
C762   C1241   1.404   1_545 S
C763   C785    1.412   .     A
C763   C772    1.441   .     S
C763   C786    1.413   .     A
C764   C784    1.412   .     A
C765   C776    1.515   .     S
C765   N824    1.384   .     A
C766   N823    1.384   .     A
C766   C777    1.515   .     S
C766   C1452   1.432   .     S
C767   N823    1.376   .     A
C767   N827    1.427   .     S
C767   C1449   1.432   .     S
C768   N824    1.376   .     A
C768   N828    1.427   .     S
C769   H800    1.110   .     S
C769   H817    1.110   .     S
C769   N825    1.449   .     S
C769   H887    1.110   .     S
C770   H820    1.110   .     S
C770   N826    1.449   .     S
C770   H819    1.110   .     S
C771   H822    1.110   .     S
C771   H790    1.110   .     S
C771   H791    1.106   .     S
C771   C784    1.522   .     S
C772   O832    1.297   .     A
C772   O830    1.301   .     A
C773   H793    1.106   .     S
C773   H792    1.110   .     S
C773   H794    1.110   .     S
C773   C785    1.522   .     S
C774   C786    1.521   .     S
C774   H797    1.110   .     S
C774   H796    1.109   .     S
C774   H795    1.103   .     S
C775   H798    1.103   .     S
C775   H801    1.109   .     S
C775   H799    1.110   .     S
C776   H804    1.109   .     S
C776   H803    1.110   .     S
C776   H802    1.088   .     S
C777   H807    1.109   .     S
C777   H805    1.110   .     S
C777   H806    1.088   .     S
C778   H810    1.110   .     S
C778   H812    1.112   .     S
C778   H809    1.104   .     S
C778   N827    1.453   .     S
C779   H816    1.110   .     S
C779   H814    1.104   .     S
C779   N828    1.453   .     S
C779   H815    1.112   .     S
C780   O835    1.307   .     A
C780   O833    1.294   .     A
C780   C782    1.445   .     S
C781   O836    1.307   .     A
C781   C783    1.445   .     S
C781   O834    1.294   .     A
C783   C858    1.364   .     S
C783   N902    1.430   .     S
C784   C1242   1.404   1_545 S
C785   C990    1.404   .     S
C786   C1012   1.404   .     S
Cu787  O836    1.975   .     S
Cu787  N823    2.044   .     S
Cu787  Cu788   2.719   .     S
Cu787  O833    1.973   .     S
Cu787  O832    1.947   .     S
Cu787  O829    1.953   .     S
Cu788  O834    1.973   .     S
Cu788  N824    2.044   .     S
Cu788  O831    1.947   .     S
Cu788  O835    1.975   .     S
Cu788  O830    1.953   .     S
H789   N825    1.031   .     S
H808   N827    1.026   .     S
H813   N828    1.026   .     S
H818   N826    1.031   .     S
H821   C846    1.110   .     S
N825   C858    1.430   .     S
C837   C840    1.441   .     S
C837   O907    1.297   .     A
C837   O905    1.301   .     A
C838   C840    1.413   .     A
C838   C851    1.521   .     S
C838   C1317   1.404   1_545 S
C839   C861    1.412   .     A
C839   C848    1.441   .     S
C839   C862    1.413   .     A
C840   C860    1.412   .     A
C841   C852    1.515   .     S
C841   N900    1.384   .     A
C842   N899    1.384   .     A
C842   C853    1.515   .     S
C842   C1528   1.432   .     S
C843   N899    1.376   .     A
C843   N903    1.427   .     S
C843   C1525   1.432   .     S
C844   N900    1.376   .     A
C844   N904    1.427   .     S
C845   H876    1.110   .     S
C845   H893    1.110   .     S
C845   N901    1.449   .     S
C845   H735    1.110   1_655 S
C846   H896    1.110   .     S
C846   N902    1.449   .     S
C846   H895    1.110   .     S
C847   H898    1.110   .     S
C847   H866    1.110   .     S
C847   H867    1.106   .     S
C847   C860    1.522   .     S
C848   O908    1.297   .     A
C848   O906    1.301   .     A
C849   H869    1.106   .     S
C849   H868    1.110   .     S
C849   H870    1.110   .     S
C849   C861    1.522   .     S
C850   C862    1.521   .     S
C850   H873    1.110   .     S
C850   H872    1.109   .     S
C850   H871    1.103   .     S
C851   H874    1.103   .     S
C851   H877    1.109   .     S
C851   H875    1.110   .     S
C852   H880    1.109   .     S
C852   H879    1.110   .     S
C852   H878    1.088   .     S
C853   H883    1.109   .     S
C853   H881    1.110   .     S
C853   H882    1.088   .     S
C854   H886    1.110   .     S
C854   H888    1.112   .     S
C854   H885    1.104   .     S
C854   N903    1.453   .     S
C855   H892    1.110   .     S
C855   H890    1.104   .     S
C855   N904    1.453   .     S
C855   H891    1.112   .     S
C856   O911    1.307   .     A
C856   O909    1.294   .     A
C856   C858    1.445   .     S
C857   O912    1.307   .     A
C857   C859    1.445   .     S
C857   O910    1.294   .     A
C859   C706    1.364   1_655 S
C859   N750    1.430   1_655 S
C860   C1318   1.404   1_545 S
C861   C1066   1.404   .     S
C862   C1088   1.404   .     S
Cu863  O912    1.975   .     S
Cu863  N899    2.044   .     S
Cu863  Cu864   2.719   .     S
Cu863  O909    1.973   .     S
Cu863  O908    1.947   .     S
Cu863  O905    1.953   .     S
Cu864  O910    1.973   .     S
Cu864  N900    2.044   .     S
Cu864  O907    1.947   .     S
Cu864  O911    1.975   .     S
Cu864  O906    1.953   .     S
H865   N901    1.031   .     S
H884   N903    1.026   .     S
H889   N904    1.026   .     S
H894   N902    1.031   .     S
H897   C694    1.110   1_655 S
N901   C706    1.430   1_655 S
C913   C916    1.441   .     S
C913   O983    1.297   .     A
C913   O981    1.301   .     A
C914   C916    1.413   .     A
C914   C927    1.521   .     S
C915   C937    1.412   .     A
C915   C924    1.441   .     S
C915   C938    1.413   .     A
C916   C936    1.412   .     A
C917   C928    1.515   .     S
C917   N976    1.384   .     A
C918   N975    1.384   .     A
C918   C929    1.515   .     S
C918   C1604   1.432   .     S
C919   N975    1.376   .     A
C919   N979    1.427   .     S
C919   C1601   1.432   .     S
C920   N976    1.376   .     A
C920   N980    1.427   .     S
C921   H952    1.110   .     S
C921   H969    1.110   .     S
C921   N977    1.449   .     S
C921   H1039   1.110   .     S
C922   H972    1.110   .     S
C922   N978    1.449   .     S
C922   H971    1.110   .     S
C922   H1125   1.110   1_455 S
C923   H974    1.110   .     S
C923   H942    1.110   .     S
C923   H943    1.106   .     S
C923   C936    1.522   .     S
C924   O984    1.297   .     A
C924   O982    1.301   .     A
C925   H945    1.106   .     S
C925   H944    1.110   .     S
C925   H946    1.110   .     S
C925   C937    1.522   .     S
C926   C938    1.521   .     S
C926   H949    1.110   .     S
C926   H948    1.109   .     S
C926   H947    1.103   .     S
C927   H950    1.103   .     S
C927   H953    1.109   .     S
C927   H951    1.110   .     S
C928   H956    1.109   .     S
C928   H955    1.110   .     S
C928   H954    1.088   .     S
C929   H959    1.109   .     S
C929   H957    1.110   .     S
C929   H958    1.088   .     S
C930   H962    1.110   .     S
C930   H964    1.112   .     S
C930   H961    1.104   .     S
C930   N979    1.453   .     S
C931   H968    1.110   .     S
C931   H966    1.104   .     S
C931   N980    1.453   .     S
C931   H967    1.112   .     S
C932   O987    1.307   .     A
C932   O985    1.294   .     A
C932   C934    1.445   .     S
C933   O988    1.307   .     A
C933   C935    1.445   .     S
C933   O986    1.294   .     A
C934   C1087   1.364   1_455 S
C934   N1129   1.430   1_455 S
C935   C1010   1.364   .     S
C935   N1054   1.430   .     S
C937   C1142   1.404   .     S
C938   C1164   1.404   .     S
Cu939  O988    1.975   .     S
Cu939  N975    2.044   .     S
Cu939  Cu940   2.719   .     S
Cu939  O985    1.973   .     S
Cu939  O984    1.947   .     S
Cu939  O981    1.953   .     S
Cu940  O986    1.973   .     S
Cu940  N976    2.044   .     S
Cu940  O983    1.947   .     S
Cu940  O987    1.975   .     S
Cu940  O982    1.953   .     S
H941   N977    1.031   .     S
H960   N979    1.026   .     S
H963   C1073   1.110   1_455 S
H965   N980    1.026   .     S
H970   N978    1.031   .     S
H973   C998    1.110   .     S
N977   C1010   1.430   .     S
N978   C1087   1.430   1_455 S
C989   C992    1.441   .     S
C989   O1059   1.297   .     A
C989   O1057   1.301   .     A
C990   C992    1.413   .     A
C990   C1003   1.521   .     S
C991   C1013   1.412   .     A
C991   C1000   1.441   .     S
C991   C1014   1.413   .     A
C992   C1012   1.412   .     A
C993   C1004   1.515   .     S
C993   N1052   1.384   .     A
C994   N1051   1.384   .     A
C994   C1005   1.515   .     S
C994   C1680   1.432   .     S
C995   N1051   1.376   .     A
C995   N1055   1.427   .     S
C995   C1677   1.432   .     S
C996   N1052   1.376   .     A
C996   N1056   1.427   .     S
C997   H1028   1.110   .     S
C997   H1045   1.110   .     S
C997   N1053   1.449   .     S
C997   H1115   1.110   .     S
C998   H1048   1.110   .     S
C998   N1054   1.449   .     S
C998   H1047   1.110   .     S
C999   H1050   1.110   .     S
C999   H1018   1.110   .     S
C999   H1019   1.106   .     S
C999   C1012   1.522   .     S
C1000  O1060   1.297   .     A
C1000  O1058   1.301   .     A
C1001  H1021   1.106   .     S
C1001  H1020   1.110   .     S
C1001  H1022   1.110   .     S
C1001  C1013   1.522   .     S
C1002  C1014   1.521   .     S
C1002  H1025   1.110   .     S
C1002  H1024   1.109   .     S
C1002  H1023   1.103   .     S
C1003  H1026   1.103   .     S
C1003  H1029   1.109   .     S
C1003  H1027   1.110   .     S
C1004  H1032   1.109   .     S
C1004  H1031   1.110   .     S
C1004  H1030   1.088   .     S
C1005  H1035   1.109   .     S
C1005  H1033   1.110   .     S
C1005  H1034   1.088   .     S
C1006  H1038   1.110   .     S
C1006  H1040   1.112   .     S
C1006  H1037   1.104   .     S
C1006  N1055   1.453   .     S
C1007  H1044   1.110   .     S
C1007  H1042   1.104   .     S
C1007  N1056   1.453   .     S
C1007  H1043   1.112   .     S
C1008  O1063   1.307   .     A
C1008  O1061   1.294   .     A
C1008  C1010   1.445   .     S
C1009  O1064   1.307   .     A
C1009  C1011   1.445   .     S
C1009  O1062   1.294   .     A
C1011  C1086   1.364   .     S
C1011  N1130   1.430   .     S
C1013  C1218   1.404   .     S
C1014  C1240   1.404   .     S
Cu1015 O1064   1.975   .     S
Cu1015 N1051   2.044   .     S
Cu1015 Cu1016  2.719   .     S
Cu1015 O1061   1.973   .     S
Cu1015 O1060   1.947   .     S
Cu1015 O1057   1.953   .     S
Cu1016 O1062   1.973   .     S
Cu1016 N1052   2.044   .     S
Cu1016 O1059   1.947   .     S
Cu1016 O1063   1.975   .     S
Cu1016 O1058   1.953   .     S
H1017  N1053   1.031   .     S
H1036  N1055   1.026   .     S
H1041  N1056   1.026   .     S
H1046  N1054   1.031   .     S
H1049  C1074   1.110   .     S
N1053  C1086   1.430   .     S
C1065  C1068   1.441   .     S
C1065  O1135   1.297   .     A
C1065  O1133   1.301   .     A
C1066  C1068   1.413   .     A
C1066  C1079   1.521   .     S
C1067  C1089   1.412   .     A
C1067  C1076   1.441   .     S
C1067  C1090   1.413   .     A
C1068  C1088   1.412   .     A
C1069  C1080   1.515   .     S
C1069  N1128   1.384   .     A
C1070  N1127   1.384   .     A
C1070  C1081   1.515   .     S
C1070  C1756   1.432   .     S
C1071  N1127   1.376   .     A
C1071  N1131   1.427   .     S
C1071  C1753   1.432   .     S
C1072  N1128   1.376   .     A
C1072  N1132   1.427   .     S
C1073  H1104   1.110   .     S
C1073  H1121   1.110   .     S
C1073  N1129   1.449   .     S
C1073  H963    1.110   1_655 S
C1074  H1124   1.110   .     S
C1074  N1130   1.449   .     S
C1074  H1123   1.110   .     S
C1075  H1126   1.110   .     S
C1075  H1094   1.110   .     S
C1075  H1095   1.106   .     S
C1075  C1088   1.522   .     S
C1076  O1136   1.297   .     A
C1076  O1134   1.301   .     A
C1077  H1097   1.106   .     S
C1077  H1096   1.110   .     S
C1077  H1098   1.110   .     S
C1077  C1089   1.522   .     S
C1078  C1090   1.521   .     S
C1078  H1101   1.110   .     S
C1078  H1100   1.109   .     S
C1078  H1099   1.103   .     S
C1079  H1102   1.103   .     S
C1079  H1105   1.109   .     S
C1079  H1103   1.110   .     S
C1080  H1108   1.109   .     S
C1080  H1107   1.110   .     S
C1080  H1106   1.088   .     S
C1081  H1111   1.109   .     S
C1081  H1109   1.110   .     S
C1081  H1110   1.088   .     S
C1082  H1114   1.110   .     S
C1082  H1116   1.112   .     S
C1082  H1113   1.104   .     S
C1082  N1131   1.453   .     S
C1083  H1120   1.110   .     S
C1083  H1118   1.104   .     S
C1083  N1132   1.453   .     S
C1083  H1119   1.112   .     S
C1084  O1139   1.307   .     A
C1084  O1137   1.294   .     A
C1084  C1086   1.445   .     S
C1085  O1140   1.307   .     A
C1085  C1087   1.445   .     S
C1085  O1138   1.294   .     A
C1087  C934    1.364   1_655 S
C1087  N978    1.430   1_655 S
C1089  C1294   1.404   .     S
C1090  C1316   1.404   .     S
Cu1091 O1140   1.975   .     S
Cu1091 N1127   2.044   .     S
Cu1091 Cu1092  2.719   .     S
Cu1091 O1137   1.973   .     S
Cu1091 O1136   1.947   .     S
Cu1091 O1133   1.953   .     S
Cu1092 O1138   1.973   .     S
Cu1092 N1128   2.044   .     S
Cu1092 O1135   1.947   .     S
Cu1092 O1139   1.975   .     S
Cu1092 O1134   1.953   .     S
H1093  N1129   1.031   .     S
H1112  N1131   1.026   .     S
H1117  N1132   1.026   .     S
H1122  N1130   1.031   .     S
H1125  C922    1.110   1_655 S
N1129  C934    1.430   1_655 S
C1141  C1144   1.441   .     S
C1141  O1211   1.297   .     A
C1141  O1209   1.301   .     A
C1142  C1144   1.413   .     A
C1142  C1155   1.521   .     S
C1143  C1165   1.412   .     A
C1143  C1152   1.441   .     S
C1143  C1166   1.413   .     A
C1144  C1164   1.412   .     A
C1145  C1156   1.515   .     S
C1145  N1204   1.384   .     A
C1146  N1203   1.384   .     A
C1146  C1157   1.515   .     S
C1146  C1832   1.432   .     S
C1147  N1203   1.376   .     A
C1147  N1207   1.427   .     S
C1147  C1829   1.432   .     S
C1148  N1204   1.376   .     A
C1148  N1208   1.427   .     S
C1149  H1180   1.110   .     S
C1149  H1197   1.110   .     S
C1149  N1205   1.449   .     S
C1149  H1267   1.110   .     S
C1150  H1200   1.110   .     S
C1150  N1206   1.449   .     S
C1150  H1199   1.110   .     S
C1150  H1353   1.110   1_455 S
C1151  H1202   1.110   .     S
C1151  H1170   1.110   .     S
C1151  H1171   1.106   .     S
C1151  C1164   1.522   .     S
C1152  O1212   1.297   .     A
C1152  O1210   1.301   .     A
C1153  H1173   1.106   .     S
C1153  H1172   1.110   .     S
C1153  H1174   1.110   .     S
C1153  C1165   1.522   .     S
C1154  C1166   1.521   .     S
C1154  H1177   1.110   .     S
C1154  H1176   1.109   .     S
C1154  H1175   1.103   .     S
C1155  H1178   1.103   .     S
C1155  H1181   1.109   .     S
C1155  H1179   1.110   .     S
C1156  H1184   1.109   .     S
C1156  H1183   1.110   .     S
C1156  H1182   1.088   .     S
C1157  H1187   1.109   .     S
C1157  H1185   1.110   .     S
C1157  H1186   1.088   .     S
C1158  H1190   1.110   .     S
C1158  H1192   1.112   .     S
C1158  H1189   1.104   .     S
C1158  N1207   1.453   .     S
C1159  H1196   1.110   .     S
C1159  H1194   1.104   .     S
C1159  N1208   1.453   .     S
C1159  H1195   1.112   .     S
C1160  O1215   1.307   .     A
C1160  O1213   1.294   .     A
C1160  C1162   1.445   .     S
C1161  O1216   1.307   .     A
C1161  C1163   1.445   .     S
C1161  O1214   1.294   .     A
C1162  C1315   1.364   1_455 S
C1162  N1357   1.430   1_455 S
C1163  C1238   1.364   .     S
C1163  N1282   1.430   .     S
C1165  C686    1.404   1_565 S
C1166  C708    1.404   1_565 S
Cu1167 O1216   1.975   .     S
Cu1167 N1203   2.044   .     S
Cu1167 Cu1168  2.719   .     S
Cu1167 O1213   1.973   .     S
Cu1167 O1212   1.947   .     S
Cu1167 O1209   1.953   .     S
Cu1168 O1214   1.973   .     S
Cu1168 N1204   2.044   .     S
Cu1168 O1211   1.947   .     S
Cu1168 O1215   1.975   .     S
Cu1168 O1210   1.953   .     S
H1169  N1205   1.031   .     S
H1188  N1207   1.026   .     S
H1191  C1301   1.110   1_455 S
H1193  N1208   1.026   .     S
H1198  N1206   1.031   .     S
H1201  C1226   1.110   .     S
N1205  C1238   1.430   .     S
N1206  C1315   1.430   1_455 S
C1217  C1220   1.441   .     S
C1217  O1287   1.297   .     A
C1217  O1285   1.301   .     A
C1218  C1220   1.413   .     A
C1218  C1231   1.521   .     S
C1219  C1241   1.412   .     A
C1219  C1228   1.441   .     S
C1219  C1242   1.413   .     A
C1220  C1240   1.412   .     A
C1221  C1232   1.515   .     S
C1221  N1280   1.384   .     A
C1222  N1279   1.384   .     A
C1222  C1233   1.515   .     S
C1222  C1908   1.432   .     S
C1223  N1279   1.376   .     A
C1223  N1283   1.427   .     S
C1223  C1905   1.432   .     S
C1224  N1280   1.376   .     A
C1224  N1284   1.427   .     S
C1225  H1256   1.110   .     S
C1225  H1273   1.110   .     S
C1225  N1281   1.449   .     S
C1225  H1343   1.110   .     S
C1226  H1276   1.110   .     S
C1226  N1282   1.449   .     S
C1226  H1275   1.110   .     S
C1227  H1278   1.110   .     S
C1227  H1246   1.110   .     S
C1227  H1247   1.106   .     S
C1227  C1240   1.522   .     S
C1228  O1288   1.297   .     A
C1228  O1286   1.301   .     A
C1229  H1249   1.106   .     S
C1229  H1248   1.110   .     S
C1229  H1250   1.110   .     S
C1229  C1241   1.522   .     S
C1230  C1242   1.521   .     S
C1230  H1253   1.110   .     S
C1230  H1252   1.109   .     S
C1230  H1251   1.103   .     S
C1231  H1254   1.103   .     S
C1231  H1257   1.109   .     S
C1231  H1255   1.110   .     S
C1232  H1260   1.109   .     S
C1232  H1259   1.110   .     S
C1232  H1258   1.088   .     S
C1233  H1263   1.109   .     S
C1233  H1261   1.110   .     S
C1233  H1262   1.088   .     S
C1234  H1266   1.110   .     S
C1234  H1268   1.112   .     S
C1234  H1265   1.104   .     S
C1234  N1283   1.453   .     S
C1235  H1272   1.110   .     S
C1235  H1270   1.104   .     S
C1235  N1284   1.453   .     S
C1235  H1271   1.112   .     S
C1236  O1291   1.307   .     A
C1236  O1289   1.294   .     A
C1236  C1238   1.445   .     S
C1237  O1292   1.307   .     A
C1237  C1239   1.445   .     S
C1237  O1290   1.294   .     A
C1239  C1314   1.364   .     S
C1239  N1358   1.430   .     S
C1241  C762    1.404   1_565 S
C1242  C784    1.404   1_565 S
Cu1243 O1292   1.975   .     S
Cu1243 N1279   2.044   .     S
Cu1243 Cu1244  2.719   .     S
Cu1243 O1289   1.973   .     S
Cu1243 O1288   1.947   .     S
Cu1243 O1285   1.953   .     S
Cu1244 O1290   1.973   .     S
Cu1244 N1280   2.044   .     S
Cu1244 O1287   1.947   .     S
Cu1244 O1291   1.975   .     S
Cu1244 O1286   1.953   .     S
H1245  N1281   1.031   .     S
H1264  N1283   1.026   .     S
H1269  N1284   1.026   .     S
H1274  N1282   1.031   .     S
H1277  C1302   1.110   .     S
N1281  C1314   1.430   .     S
C1293  C1296   1.441   .     S
C1293  O1363   1.297   .     A
C1293  O1361   1.301   .     A
C1294  C1296   1.413   .     A
C1294  C1307   1.521   .     S
C1295  C1317   1.412   .     A
C1295  C1304   1.441   .     S
C1295  C1318   1.413   .     A
C1296  C1316   1.412   .     A
C1297  C1308   1.515   .     S
C1297  N1356   1.384   .     A
C1298  N1355   1.384   .     A
C1298  C1309   1.515   .     S
C1298  C1984   1.432   .     S
C1299  N1355   1.376   .     A
C1299  N1359   1.427   .     S
C1299  C1981   1.432   .     S
C1300  N1356   1.376   .     A
C1300  N1360   1.427   .     S
C1301  H1332   1.110   .     S
C1301  H1349   1.110   .     S
C1301  N1357   1.449   .     S
C1301  H1191   1.110   1_655 S
C1302  H1352   1.110   .     S
C1302  N1358   1.449   .     S
C1302  H1351   1.110   .     S
C1303  H1354   1.110   .     S
C1303  H1322   1.110   .     S
C1303  H1323   1.106   .     S
C1303  C1316   1.522   .     S
C1304  O1364   1.297   .     A
C1304  O1362   1.301   .     A
C1305  H1325   1.106   .     S
C1305  H1324   1.110   .     S
C1305  H1326   1.110   .     S
C1305  C1317   1.522   .     S
C1306  C1318   1.521   .     S
C1306  H1329   1.110   .     S
C1306  H1328   1.109   .     S
C1306  H1327   1.103   .     S
C1307  H1330   1.103   .     S
C1307  H1333   1.109   .     S
C1307  H1331   1.110   .     S
C1308  H1336   1.109   .     S
C1308  H1335   1.110   .     S
C1308  H1334   1.088   .     S
C1309  H1339   1.109   .     S
C1309  H1337   1.110   .     S
C1309  H1338   1.088   .     S
C1310  H1342   1.110   .     S
C1310  H1344   1.112   .     S
C1310  H1341   1.104   .     S
C1310  N1359   1.453   .     S
C1311  H1348   1.110   .     S
C1311  H1346   1.104   .     S
C1311  N1360   1.453   .     S
C1311  H1347   1.112   .     S
C1312  O1367   1.307   .     A
C1312  O1365   1.294   .     A
C1312  C1314   1.445   .     S
C1313  O1368   1.307   .     A
C1313  C1315   1.445   .     S
C1313  O1366   1.294   .     A
C1315  C1162   1.364   1_655 S
C1315  N1206   1.430   1_655 S
C1317  C838    1.404   1_565 S
C1318  C860    1.404   1_565 S
Cu1319 O1368   1.975   .     S
Cu1319 N1355   2.044   .     S
Cu1319 Cu1320  2.719   .     S
Cu1319 O1365   1.973   .     S
Cu1319 O1364   1.947   .     S
Cu1319 O1361   1.953   .     S
Cu1320 O1366   1.973   .     S
Cu1320 N1356   2.044   .     S
Cu1320 O1363   1.947   .     S
Cu1320 O1367   1.975   .     S
Cu1320 O1362   1.953   .     S
H1321  N1357   1.031   .     S
H1340  N1359   1.026   .     S
H1345  N1360   1.026   .     S
H1350  N1358   1.031   .     S
H1353  C1150   1.110   1_655 S
N1357  C1162   1.430   1_655 S
C1369  C1372   1.441   .     S
C1369  O1439   1.297   .     A
C1369  O1437   1.301   .     A
C1370  C1372   1.413   .     A
C1370  C1383   1.521   .     S
C1370  C1849   1.404   1_545 S
C1371  C1393   1.412   .     A
C1371  C1380   1.441   .     S
C1371  C1394   1.413   .     A
C1372  C1392   1.412   .     A
C1373  C1384   1.515   .     S
C1373  N1432   1.384   .     A
C1374  N1431   1.384   .     A
C1374  C1385   1.515   .     S
C1374  C8      1.432   1_556 S
C1375  N1431   1.376   .     A
C1375  N1435   1.427   .     S
C1375  C5      1.432   1_556 S
C1376  N1432   1.376   .     A
C1376  N1436   1.427   .     S
C1377  H1408   1.110   .     S
C1377  H1425   1.110   .     S
C1377  N1433   1.449   .     S
C1377  H1495   1.110   .     S
C1378  H1428   1.110   .     S
C1378  N1434   1.449   .     S
C1378  H1427   1.110   .     S
C1378  H1581   1.110   1_455 S
C1379  H1430   1.110   .     S
C1379  H1398   1.110   .     S
C1379  H1399   1.106   .     S
C1379  C1392   1.522   .     S
C1380  O1440   1.297   .     A
C1380  O1438   1.301   .     A
C1381  H1401   1.106   .     S
C1381  H1400   1.110   .     S
C1381  H1402   1.110   .     S
C1381  C1393   1.522   .     S
C1382  C1394   1.521   .     S
C1382  H1405   1.110   .     S
C1382  H1404   1.109   .     S
C1382  H1403   1.103   .     S
C1383  H1406   1.103   .     S
C1383  H1409   1.109   .     S
C1383  H1407   1.110   .     S
C1384  H1412   1.109   .     S
C1384  H1411   1.110   .     S
C1384  H1410   1.088   .     S
C1385  H1415   1.109   .     S
C1385  H1413   1.110   .     S
C1385  H1414   1.088   .     S
C1386  H1418   1.110   .     S
C1386  H1420   1.112   .     S
C1386  H1417   1.104   .     S
C1386  N1435   1.453   .     S
C1387  H1424   1.110   .     S
C1387  H1422   1.104   .     S
C1387  N1436   1.453   .     S
C1387  H1423   1.112   .     S
C1388  O1443   1.307   .     A
C1388  O1441   1.294   .     A
C1388  C1390   1.445   .     S
C1389  O1444   1.307   .     A
C1389  C1391   1.445   .     S
C1389  O1442   1.294   .     A
C1390  C1543   1.364   1_455 S
C1390  N1585   1.430   1_455 S
C1391  C1466   1.364   .     S
C1391  N1510   1.430   .     S
C1392  C1850   1.404   1_545 S
C1393  C1598   1.404   .     S
C1394  C1620   1.404   .     S
Cu1395 O1444   1.975   .     S
Cu1395 N1431   2.044   .     S
Cu1395 Cu1396  2.719   .     S
Cu1395 O1441   1.973   .     S
Cu1395 O1440   1.947   .     S
Cu1395 O1437   1.953   .     S
Cu1396 O1442   1.973   .     S
Cu1396 N1432   2.044   .     S
Cu1396 O1439   1.947   .     S
Cu1396 O1443   1.975   .     S
Cu1396 O1438   1.953   .     S
H1397  N1433   1.031   .     S
H1416  N1435   1.026   .     S
H1419  C1529   1.110   1_455 S
H1421  N1436   1.026   .     S
H1426  N1434   1.031   .     S
H1429  C1454   1.110   .     S
N1433  C1466   1.430   .     S
N1434  C1543   1.430   1_455 S
C1445  C1448   1.441   .     S
C1445  O1515   1.297   .     A
C1445  O1513   1.301   .     A
C1446  C1448   1.413   .     A
C1446  C1459   1.521   .     S
C1446  C1925   1.404   1_545 S
C1447  C1469   1.412   .     A
C1447  C1456   1.441   .     S
C1447  C1470   1.413   .     A
C1448  C1468   1.412   .     A
C1449  C1460   1.515   .     S
C1449  N1508   1.384   .     A
C1450  N1507   1.384   .     A
C1450  C1461   1.515   .     S
C1450  C84     1.432   1_556 S
C1451  N1507   1.376   .     A
C1451  N1511   1.427   .     S
C1451  C81     1.432   1_556 S
C1452  N1508   1.376   .     A
C1452  N1512   1.427   .     S
C1453  H1484   1.110   .     S
C1453  H1501   1.110   .     S
C1453  N1509   1.449   .     S
C1453  H1571   1.110   .     S
C1454  H1504   1.110   .     S
C1454  N1510   1.449   .     S
C1454  H1503   1.110   .     S
C1455  H1506   1.110   .     S
C1455  H1474   1.110   .     S
C1455  H1475   1.106   .     S
C1455  C1468   1.522   .     S
C1456  O1516   1.297   .     A
C1456  O1514   1.301   .     A
C1457  H1477   1.106   .     S
C1457  H1476   1.110   .     S
C1457  H1478   1.110   .     S
C1457  C1469   1.522   .     S
C1458  C1470   1.521   .     S
C1458  H1481   1.110   .     S
C1458  H1480   1.109   .     S
C1458  H1479   1.103   .     S
C1459  H1482   1.103   .     S
C1459  H1485   1.109   .     S
C1459  H1483   1.110   .     S
C1460  H1488   1.109   .     S
C1460  H1487   1.110   .     S
C1460  H1486   1.088   .     S
C1461  H1491   1.109   .     S
C1461  H1489   1.110   .     S
C1461  H1490   1.088   .     S
C1462  H1494   1.110   .     S
C1462  H1496   1.112   .     S
C1462  H1493   1.104   .     S
C1462  N1511   1.453   .     S
C1463  H1500   1.110   .     S
C1463  H1498   1.104   .     S
C1463  N1512   1.453   .     S
C1463  H1499   1.112   .     S
C1464  O1519   1.307   .     A
C1464  O1517   1.294   .     A
C1464  C1466   1.445   .     S
C1465  O1520   1.307   .     A
C1465  C1467   1.445   .     S
C1465  O1518   1.294   .     A
C1467  C1542   1.364   .     S
C1467  N1586   1.430   .     S
C1468  C1926   1.404   1_545 S
C1469  C1674   1.404   .     S
C1470  C1696   1.404   .     S
Cu1471 O1520   1.975   .     S
Cu1471 N1507   2.044   .     S
Cu1471 Cu1472  2.719   .     S
Cu1471 O1517   1.973   .     S
Cu1471 O1516   1.947   .     S
Cu1471 O1513   1.953   .     S
Cu1472 O1518   1.973   .     S
Cu1472 N1508   2.044   .     S
Cu1472 O1515   1.947   .     S
Cu1472 O1519   1.975   .     S
Cu1472 O1514   1.953   .     S
H1473  N1509   1.031   .     S
H1492  N1511   1.026   .     S
H1497  N1512   1.026   .     S
H1502  N1510   1.031   .     S
H1505  C1530   1.110   .     S
N1509  C1542   1.430   .     S
C1521  C1524   1.441   .     S
C1521  O1591   1.297   .     A
C1521  O1589   1.301   .     A
C1522  C1524   1.413   .     A
C1522  C1535   1.521   .     S
C1522  C2001   1.404   1_545 S
C1523  C1545   1.412   .     A
C1523  C1532   1.441   .     S
C1523  C1546   1.413   .     A
C1524  C1544   1.412   .     A
C1525  C1536   1.515   .     S
C1525  N1584   1.384   .     A
C1526  N1583   1.384   .     A
C1526  C1537   1.515   .     S
C1526  C160    1.432   1_556 S
C1527  N1583   1.376   .     A
C1527  N1587   1.427   .     S
C1527  C157    1.432   1_556 S
C1528  N1584   1.376   .     A
C1528  N1588   1.427   .     S
C1529  H1560   1.110   .     S
C1529  H1577   1.110   .     S
C1529  N1585   1.449   .     S
C1529  H1419   1.110   1_655 S
C1530  H1580   1.110   .     S
C1530  N1586   1.449   .     S
C1530  H1579   1.110   .     S
C1531  H1582   1.110   .     S
C1531  H1550   1.110   .     S
C1531  H1551   1.106   .     S
C1531  C1544   1.522   .     S
C1532  O1592   1.297   .     A
C1532  O1590   1.301   .     A
C1533  H1553   1.106   .     S
C1533  H1552   1.110   .     S
C1533  H1554   1.110   .     S
C1533  C1545   1.522   .     S
C1534  C1546   1.521   .     S
C1534  H1557   1.110   .     S
C1534  H1556   1.109   .     S
C1534  H1555   1.103   .     S
C1535  H1558   1.103   .     S
C1535  H1561   1.109   .     S
C1535  H1559   1.110   .     S
C1536  H1564   1.109   .     S
C1536  H1563   1.110   .     S
C1536  H1562   1.088   .     S
C1537  H1567   1.109   .     S
C1537  H1565   1.110   .     S
C1537  H1566   1.088   .     S
C1538  H1570   1.110   .     S
C1538  H1572   1.112   .     S
C1538  H1569   1.104   .     S
C1538  N1587   1.453   .     S
C1539  H1576   1.110   .     S
C1539  H1574   1.104   .     S
C1539  N1588   1.453   .     S
C1539  H1575   1.112   .     S
C1540  O1595   1.307   .     A
C1540  O1593   1.294   .     A
C1540  C1542   1.445   .     S
C1541  O1596   1.307   .     A
C1541  C1543   1.445   .     S
C1541  O1594   1.294   .     A
C1543  C1390   1.364   1_655 S
C1543  N1434   1.430   1_655 S
C1544  C2002   1.404   1_545 S
C1545  C1750   1.404   .     S
C1546  C1772   1.404   .     S
Cu1547 O1596   1.975   .     S
Cu1547 N1583   2.044   .     S
Cu1547 Cu1548  2.719   .     S
Cu1547 O1593   1.973   .     S
Cu1547 O1592   1.947   .     S
Cu1547 O1589   1.953   .     S
Cu1548 O1594   1.973   .     S
Cu1548 N1584   2.044   .     S
Cu1548 O1591   1.947   .     S
Cu1548 O1595   1.975   .     S
Cu1548 O1590   1.953   .     S
H1549  N1585   1.031   .     S
H1568  N1587   1.026   .     S
H1573  N1588   1.026   .     S
H1578  N1586   1.031   .     S
H1581  C1378   1.110   1_655 S
N1585  C1390   1.430   1_655 S
C1597  C1600   1.441   .     S
C1597  O1667   1.297   .     A
C1597  O1665   1.301   .     A
C1598  C1600   1.413   .     A
C1598  C1611   1.521   .     S
C1599  C1621   1.412   .     A
C1599  C1608   1.441   .     S
C1599  C1622   1.413   .     A
C1600  C1620   1.412   .     A
C1601  C1612   1.515   .     S
C1601  N1660   1.384   .     A
C1602  N1659   1.384   .     A
C1602  C1613   1.515   .     S
C1602  C236    1.432   1_556 S
C1603  N1659   1.376   .     A
C1603  N1663   1.427   .     S
C1603  C233    1.432   1_556 S
C1604  N1660   1.376   .     A
C1604  N1664   1.427   .     S
C1605  H1636   1.110   .     S
C1605  H1653   1.110   .     S
C1605  N1661   1.449   .     S
C1605  H1723   1.110   .     S
C1606  H1656   1.110   .     S
C1606  N1662   1.449   .     S
C1606  H1655   1.110   .     S
C1606  H1809   1.110   1_455 S
C1607  H1658   1.110   .     S
C1607  H1626   1.110   .     S
C1607  H1627   1.106   .     S
C1607  C1620   1.522   .     S
C1608  O1668   1.297   .     A
C1608  O1666   1.301   .     A
C1609  H1629   1.106   .     S
C1609  H1628   1.110   .     S
C1609  H1630   1.110   .     S
C1609  C1621   1.522   .     S
C1610  C1622   1.521   .     S
C1610  H1633   1.110   .     S
C1610  H1632   1.109   .     S
C1610  H1631   1.103   .     S
C1611  H1634   1.103   .     S
C1611  H1637   1.109   .     S
C1611  H1635   1.110   .     S
C1612  H1640   1.109   .     S
C1612  H1639   1.110   .     S
C1612  H1638   1.088   .     S
C1613  H1643   1.109   .     S
C1613  H1641   1.110   .     S
C1613  H1642   1.088   .     S
C1614  H1646   1.110   .     S
C1614  H1648   1.112   .     S
C1614  H1645   1.104   .     S
C1614  N1663   1.453   .     S
C1615  H1652   1.110   .     S
C1615  H1650   1.104   .     S
C1615  N1664   1.453   .     S
C1615  H1651   1.112   .     S
C1616  O1671   1.307   .     A
C1616  O1669   1.294   .     A
C1616  C1618   1.445   .     S
C1617  O1672   1.307   .     A
C1617  C1619   1.445   .     S
C1617  O1670   1.294   .     A
C1618  C1771   1.364   1_455 S
C1618  N1813   1.430   1_455 S
C1619  C1694   1.364   .     S
C1619  N1738   1.430   .     S
C1621  C1826   1.404   .     S
C1622  C1848   1.404   .     S
Cu1623 O1672   1.975   .     S
Cu1623 N1659   2.044   .     S
Cu1623 Cu1624  2.719   .     S
Cu1623 O1669   1.973   .     S
Cu1623 O1668   1.947   .     S
Cu1623 O1665   1.953   .     S
Cu1624 O1670   1.973   .     S
Cu1624 N1660   2.044   .     S
Cu1624 O1667   1.947   .     S
Cu1624 O1671   1.975   .     S
Cu1624 O1666   1.953   .     S
H1625  N1661   1.031   .     S
H1644  N1663   1.026   .     S
H1647  C1757   1.110   1_455 S
H1649  N1664   1.026   .     S
H1654  N1662   1.031   .     S
H1657  C1682   1.110   .     S
N1661  C1694   1.430   .     S
N1662  C1771   1.430   1_455 S
C1673  C1676   1.441   .     S
C1673  O1743   1.297   .     A
C1673  O1741   1.301   .     A
C1674  C1676   1.413   .     A
C1674  C1687   1.521   .     S
C1675  C1697   1.412   .     A
C1675  C1684   1.441   .     S
C1675  C1698   1.413   .     A
C1676  C1696   1.412   .     A
C1677  C1688   1.515   .     S
C1677  N1736   1.384   .     A
C1678  N1735   1.384   .     A
C1678  C1689   1.515   .     S
C1678  C312    1.432   1_556 S
C1679  N1735   1.376   .     A
C1679  N1739   1.427   .     S
C1679  C309    1.432   1_556 S
C1680  N1736   1.376   .     A
C1680  N1740   1.427   .     S
C1681  H1712   1.110   .     S
C1681  H1729   1.110   .     S
C1681  N1737   1.449   .     S
C1681  H1799   1.110   .     S
C1682  H1732   1.110   .     S
C1682  N1738   1.449   .     S
C1682  H1731   1.110   .     S
C1683  H1734   1.110   .     S
C1683  H1702   1.110   .     S
C1683  H1703   1.106   .     S
C1683  C1696   1.522   .     S
C1684  O1744   1.297   .     A
C1684  O1742   1.301   .     A
C1685  H1705   1.106   .     S
C1685  H1704   1.110   .     S
C1685  H1706   1.110   .     S
C1685  C1697   1.522   .     S
C1686  C1698   1.521   .     S
C1686  H1709   1.110   .     S
C1686  H1708   1.109   .     S
C1686  H1707   1.103   .     S
C1687  H1710   1.103   .     S
C1687  H1713   1.109   .     S
C1687  H1711   1.110   .     S
C1688  H1716   1.109   .     S
C1688  H1715   1.110   .     S
C1688  H1714   1.088   .     S
C1689  H1719   1.109   .     S
C1689  H1717   1.110   .     S
C1689  H1718   1.088   .     S
C1690  H1722   1.110   .     S
C1690  H1724   1.112   .     S
C1690  H1721   1.104   .     S
C1690  N1739   1.453   .     S
C1691  H1728   1.110   .     S
C1691  H1726   1.104   .     S
C1691  N1740   1.453   .     S
C1691  H1727   1.112   .     S
C1692  O1747   1.307   .     A
C1692  O1745   1.294   .     A
C1692  C1694   1.445   .     S
C1693  O1748   1.307   .     A
C1693  C1695   1.445   .     S
C1693  O1746   1.294   .     A
C1695  C1770   1.364   .     S
C1695  N1814   1.430   .     S
C1697  C1902   1.404   .     S
C1698  C1924   1.404   .     S
Cu1699 O1748   1.975   .     S
Cu1699 N1735   2.044   .     S
Cu1699 Cu1700  2.719   .     S
Cu1699 O1745   1.973   .     S
Cu1699 O1744   1.947   .     S
Cu1699 O1741   1.953   .     S
Cu1700 O1746   1.973   .     S
Cu1700 N1736   2.044   .     S
Cu1700 O1743   1.947   .     S
Cu1700 O1747   1.975   .     S
Cu1700 O1742   1.953   .     S
H1701  N1737   1.031   .     S
H1720  N1739   1.026   .     S
H1725  N1740   1.026   .     S
H1730  N1738   1.031   .     S
H1733  C1758   1.110   .     S
N1737  C1770   1.430   .     S
C1749  C1752   1.441   .     S
C1749  O1819   1.297   .     A
C1749  O1817   1.301   .     A
C1750  C1752   1.413   .     A
C1750  C1763   1.521   .     S
C1751  C1773   1.412   .     A
C1751  C1760   1.441   .     S
C1751  C1774   1.413   .     A
C1752  C1772   1.412   .     A
C1753  C1764   1.515   .     S
C1753  N1812   1.384   .     A
C1754  N1811   1.384   .     A
C1754  C1765   1.515   .     S
C1754  C388    1.432   1_556 S
C1755  N1811   1.376   .     A
C1755  N1815   1.427   .     S
C1755  C385    1.432   1_556 S
C1756  N1812   1.376   .     A
C1756  N1816   1.427   .     S
C1757  H1788   1.110   .     S
C1757  H1805   1.110   .     S
C1757  N1813   1.449   .     S
C1757  H1647   1.110   1_655 S
C1758  H1808   1.110   .     S
C1758  N1814   1.449   .     S
C1758  H1807   1.110   .     S
C1759  H1810   1.110   .     S
C1759  H1778   1.110   .     S
C1759  H1779   1.106   .     S
C1759  C1772   1.522   .     S
C1760  O1820   1.297   .     A
C1760  O1818   1.301   .     A
C1761  H1781   1.106   .     S
C1761  H1780   1.110   .     S
C1761  H1782   1.110   .     S
C1761  C1773   1.522   .     S
C1762  C1774   1.521   .     S
C1762  H1785   1.110   .     S
C1762  H1784   1.109   .     S
C1762  H1783   1.103   .     S
C1763  H1786   1.103   .     S
C1763  H1789   1.109   .     S
C1763  H1787   1.110   .     S
C1764  H1792   1.109   .     S
C1764  H1791   1.110   .     S
C1764  H1790   1.088   .     S
C1765  H1795   1.109   .     S
C1765  H1793   1.110   .     S
C1765  H1794   1.088   .     S
C1766  H1798   1.110   .     S
C1766  H1800   1.112   .     S
C1766  H1797   1.104   .     S
C1766  N1815   1.453   .     S
C1767  H1804   1.110   .     S
C1767  H1802   1.104   .     S
C1767  N1816   1.453   .     S
C1767  H1803   1.112   .     S
C1768  O1823   1.307   .     A
C1768  O1821   1.294   .     A
C1768  C1770   1.445   .     S
C1769  O1824   1.307   .     A
C1769  C1771   1.445   .     S
C1769  O1822   1.294   .     A
C1771  C1618   1.364   1_655 S
C1771  N1662   1.430   1_655 S
C1773  C1978   1.404   .     S
C1774  C2000   1.404   .     S
Cu1775 O1824   1.975   .     S
Cu1775 N1811   2.044   .     S
Cu1775 Cu1776  2.719   .     S
Cu1775 O1821   1.973   .     S
Cu1775 O1820   1.947   .     S
Cu1775 O1817   1.953   .     S
Cu1776 O1822   1.973   .     S
Cu1776 N1812   2.044   .     S
Cu1776 O1819   1.947   .     S
Cu1776 O1823   1.975   .     S
Cu1776 O1818   1.953   .     S
H1777  N1813   1.031   .     S
H1796  N1815   1.026   .     S
H1801  N1816   1.026   .     S
H1806  N1814   1.031   .     S
H1809  C1606   1.110   1_655 S
N1813  C1618   1.430   1_655 S
C1825  C1828   1.441   .     S
C1825  O1895   1.297   .     A
C1825  O1893   1.301   .     A
C1826  C1828   1.413   .     A
C1826  C1839   1.521   .     S
C1827  C1849   1.412   .     A
C1827  C1836   1.441   .     S
C1827  C1850   1.413   .     A
C1828  C1848   1.412   .     A
C1829  C1840   1.515   .     S
C1829  N1888   1.384   .     A
C1830  N1887   1.384   .     A
C1830  C1841   1.515   .     S
C1830  C464    1.432   1_556 S
C1831  N1887   1.376   .     A
C1831  N1891   1.427   .     S
C1831  C461    1.432   1_556 S
C1832  N1888   1.376   .     A
C1832  N1892   1.427   .     S
C1833  H1864   1.110   .     S
C1833  H1881   1.110   .     S
C1833  N1889   1.449   .     S
C1833  H1951   1.110   .     S
C1834  H1884   1.110   .     S
C1834  N1890   1.449   .     S
C1834  H1883   1.110   .     S
C1834  H2037   1.110   1_455 S
C1835  H1886   1.110   .     S
C1835  H1854   1.110   .     S
C1835  H1855   1.106   .     S
C1835  C1848   1.522   .     S
C1836  O1896   1.297   .     A
C1836  O1894   1.301   .     A
C1837  H1857   1.106   .     S
C1837  H1856   1.110   .     S
C1837  H1858   1.110   .     S
C1837  C1849   1.522   .     S
C1838  C1850   1.521   .     S
C1838  H1861   1.110   .     S
C1838  H1860   1.109   .     S
C1838  H1859   1.103   .     S
C1839  H1862   1.103   .     S
C1839  H1865   1.109   .     S
C1839  H1863   1.110   .     S
C1840  H1868   1.109   .     S
C1840  H1867   1.110   .     S
C1840  H1866   1.088   .     S
C1841  H1871   1.109   .     S
C1841  H1869   1.110   .     S
C1841  H1870   1.088   .     S
C1842  H1874   1.110   .     S
C1842  H1876   1.112   .     S
C1842  H1873   1.104   .     S
C1842  N1891   1.453   .     S
C1843  H1880   1.110   .     S
C1843  H1878   1.104   .     S
C1843  N1892   1.453   .     S
C1843  H1879   1.112   .     S
C1844  O1899   1.307   .     A
C1844  O1897   1.294   .     A
C1844  C1846   1.445   .     S
C1845  O1900   1.307   .     A
C1845  C1847   1.445   .     S
C1845  O1898   1.294   .     A
C1846  C1999   1.364   1_455 S
C1846  N2041   1.430   1_455 S
C1847  C1922   1.364   .     S
C1847  N1966   1.430   .     S
C1849  C1370   1.404   1_565 S
C1850  C1392   1.404   1_565 S
Cu1851 O1900   1.975   .     S
Cu1851 N1887   2.044   .     S
Cu1851 Cu1852  2.719   .     S
Cu1851 O1897   1.973   .     S
Cu1851 O1896   1.947   .     S
Cu1851 O1893   1.953   .     S
Cu1852 O1898   1.973   .     S
Cu1852 N1888   2.044   .     S
Cu1852 O1895   1.947   .     S
Cu1852 O1899   1.975   .     S
Cu1852 O1894   1.953   .     S
H1853  N1889   1.031   .     S
H1872  N1891   1.026   .     S
H1875  C1985   1.110   1_455 S
H1877  N1892   1.026   .     S
H1882  N1890   1.031   .     S
H1885  C1910   1.110   .     S
N1889  C1922   1.430   .     S
N1890  C1999   1.430   1_455 S
C1901  C1904   1.441   .     S
C1901  O1971   1.297   .     A
C1901  O1969   1.301   .     A
C1902  C1904   1.413   .     A
C1902  C1915   1.521   .     S
C1903  C1925   1.412   .     A
C1903  C1912   1.441   .     S
C1903  C1926   1.413   .     A
C1904  C1924   1.412   .     A
C1905  C1916   1.515   .     S
C1905  N1964   1.384   .     A
C1906  N1963   1.384   .     A
C1906  C1917   1.515   .     S
C1906  C540    1.432   1_556 S
C1907  N1963   1.376   .     A
C1907  N1967   1.427   .     S
C1907  C537    1.432   1_556 S
C1908  N1964   1.376   .     A
C1908  N1968   1.427   .     S
C1909  H1940   1.110   .     S
C1909  H1957   1.110   .     S
C1909  N1965   1.449   .     S
C1909  H2027   1.110   .     S
C1910  H1960   1.110   .     S
C1910  N1966   1.449   .     S
C1910  H1959   1.110   .     S
C1911  H1962   1.110   .     S
C1911  H1930   1.110   .     S
C1911  H1931   1.106   .     S
C1911  C1924   1.522   .     S
C1912  O1972   1.297   .     A
C1912  O1970   1.301   .     A
C1913  H1933   1.106   .     S
C1913  H1932   1.110   .     S
C1913  H1934   1.110   .     S
C1913  C1925   1.522   .     S
C1914  C1926   1.521   .     S
C1914  H1937   1.110   .     S
C1914  H1936   1.109   .     S
C1914  H1935   1.103   .     S
C1915  H1938   1.103   .     S
C1915  H1941   1.109   .     S
C1915  H1939   1.110   .     S
C1916  H1944   1.109   .     S
C1916  H1943   1.110   .     S
C1916  H1942   1.088   .     S
C1917  H1947   1.109   .     S
C1917  H1945   1.110   .     S
C1917  H1946   1.088   .     S
C1918  H1950   1.110   .     S
C1918  H1952   1.112   .     S
C1918  H1949   1.104   .     S
C1918  N1967   1.453   .     S
C1919  H1956   1.110   .     S
C1919  H1954   1.104   .     S
C1919  N1968   1.453   .     S
C1919  H1955   1.112   .     S
C1920  O1975   1.307   .     A
C1920  O1973   1.294   .     A
C1920  C1922   1.445   .     S
C1921  O1976   1.307   .     A
C1921  C1923   1.445   .     S
C1921  O1974   1.294   .     A
C1923  C1998   1.364   .     S
C1923  N2042   1.430   .     S
C1925  C1446   1.404   1_565 S
C1926  C1468   1.404   1_565 S
Cu1927 O1976   1.975   .     S
Cu1927 N1963   2.044   .     S
Cu1927 Cu1928  2.719   .     S
Cu1927 O1973   1.973   .     S
Cu1927 O1972   1.947   .     S
Cu1927 O1969   1.953   .     S
Cu1928 O1974   1.973   .     S
Cu1928 N1964   2.044   .     S
Cu1928 O1971   1.947   .     S
Cu1928 O1975   1.975   .     S
Cu1928 O1970   1.953   .     S
H1929  N1965   1.031   .     S
H1948  N1967   1.026   .     S
H1953  N1968   1.026   .     S
H1958  N1966   1.031   .     S
H1961  C1986   1.110   .     S
N1965  C1998   1.430   .     S
C1977  C1980   1.441   .     S
C1977  O2047   1.297   .     A
C1977  O2045   1.301   .     A
C1978  C1980   1.413   .     A
C1978  C1991   1.521   .     S
C1979  C2001   1.412   .     A
C1979  C1988   1.441   .     S
C1979  C2002   1.413   .     A
C1980  C2000   1.412   .     A
C1981  C1992   1.515   .     S
C1981  N2040   1.384   .     A
C1982  N2039   1.384   .     A
C1982  C1993   1.515   .     S
C1982  C616    1.432   1_556 S
C1983  N2039   1.376   .     A
C1983  N2043   1.427   .     S
C1983  C613    1.432   1_556 S
C1984  N2040   1.376   .     A
C1984  N2044   1.427   .     S
C1985  H2016   1.110   .     S
C1985  H2033   1.110   .     S
C1985  N2041   1.449   .     S
C1985  H1875   1.110   1_655 S
C1986  H2036   1.110   .     S
C1986  N2042   1.449   .     S
C1986  H2035   1.110   .     S
C1987  H2038   1.110   .     S
C1987  H2006   1.110   .     S
C1987  H2007   1.106   .     S
C1987  C2000   1.522   .     S
C1988  O2048   1.297   .     A
C1988  O2046   1.301   .     A
C1989  H2009   1.106   .     S
C1989  H2008   1.110   .     S
C1989  H2010   1.110   .     S
C1989  C2001   1.522   .     S
C1990  C2002   1.521   .     S
C1990  H2013   1.110   .     S
C1990  H2012   1.109   .     S
C1990  H2011   1.103   .     S
C1991  H2014   1.103   .     S
C1991  H2017   1.109   .     S
C1991  H2015   1.110   .     S
C1992  H2020   1.109   .     S
C1992  H2019   1.110   .     S
C1992  H2018   1.088   .     S
C1993  H2023   1.109   .     S
C1993  H2021   1.110   .     S
C1993  H2022   1.088   .     S
C1994  H2026   1.110   .     S
C1994  H2028   1.112   .     S
C1994  H2025   1.104   .     S
C1994  N2043   1.453   .     S
C1995  H2032   1.110   .     S
C1995  H2030   1.104   .     S
C1995  N2044   1.453   .     S
C1995  H2031   1.112   .     S
C1996  O2051   1.307   .     A
C1996  O2049   1.294   .     A
C1996  C1998   1.445   .     S
C1997  O2052   1.307   .     A
C1997  C1999   1.445   .     S
C1997  O2050   1.294   .     A
C1999  C1846   1.364   1_655 S
C1999  N1890   1.430   1_655 S
C2001  C1522   1.404   1_565 S
C2002  C1544   1.404   1_565 S
Cu2003 O2052   1.975   .     S
Cu2003 N2039   2.044   .     S
Cu2003 Cu2004  2.719   .     S
Cu2003 O2049   1.973   .     S
Cu2003 O2048   1.947   .     S
Cu2003 O2045   1.953   .     S
Cu2004 O2050   1.973   .     S
Cu2004 N2040   2.044   .     S
Cu2004 O2047   1.947   .     S
Cu2004 O2051   1.975   .     S
Cu2004 O2046   1.953   .     S
H2005  N2041   1.031   .     S
H2024  N2043   1.026   .     S
H2029  N2044   1.026   .     S
H2034  N2042   1.031   .     S
H2037  C1834   1.110   1_655 S
N2041  C1846   1.430   1_655 S
