data_str_m2_o1_o18_pcu_sym.173
_audit_creation_date              2020-01-03
_audit_creation_method            'Materials Studio'
_symmetry_space_group_name_H-M    'P1'
_symmetry_Int_Tables_number       1
_symmetry_cell_setting            triclinic
loop_
_symmetry_equiv_pos_as_xyz
  x,y,z
_cell_length_a                    28.5400
_cell_length_b                    32.4237
_cell_length_c                    31.3498
_cell_angle_alpha                 89.8616
_cell_angle_beta                  73.7061
_cell_angle_gamma                 90.2841
loop_
_atom_site_label
_atom_site_type_symbol
_atom_site_fract_x
_atom_site_fract_y
_atom_site_fract_z
_atom_site_U_iso_or_equiv
_atom_site_adp_type
_atom_site_occupancy
C1     C     0.00012   0.08741   0.24908   0.00000  Uiso   1.00
C2     C     0.33322   0.24592   0.25092   0.00000  Uiso   1.00
C3     C     0.19286   0.18349   0.04521   0.00000  Uiso   1.00
C4     C     0.14047   0.14985   0.45479   0.00000  Uiso   1.00
C5     C     0.24202   0.18787   0.02265   0.00000  Uiso   1.00
C6     C     0.09131   0.14546   0.47734   0.00000  Uiso   1.00
C7     C     0.30612   0.02048   0.22538   0.00000  Uiso   1.00
C8     C     0.02722   0.31286   0.27462   0.00000  Uiso   1.00
C9     C     0.30621   0.31111   0.22697   0.00000  Uiso   1.00
C10    C     0.02712   0.02223   0.27303   0.00000  Uiso   1.00
C11    C     0.00006   0.29052   0.25120   0.00000  Uiso   1.00
C12    C     0.33328   0.04281   0.24880   0.00000  Uiso   1.00
C13    C     0.18220   0.14292   0.27959   0.00000  Uiso   1.00
C14    C     0.15113   0.19041   0.22041   0.00000  Uiso   1.00
C15    C     0.13258   0.14295   0.27960   0.00000  Uiso   1.00
C16    C     0.20075   0.19038   0.22040   0.00000  Uiso   1.00
C17    C     0.30565   0.16940   0.33576   0.00000  Uiso   1.00
C18    C     0.02768   0.16393   0.16424   0.00000  Uiso   1.00
C19    C     0.28937   0.17482   0.38425   0.00000  Uiso   1.00
C20    C     0.04396   0.15851   0.11575   0.00000  Uiso   1.00
C21    C     0.30779   0.18425   0.45434   0.00000  Uiso   1.00
C22    C     0.02554   0.14908   0.04566   0.00000  Uiso   1.00
C23    C     0.32355   0.17769   0.40868   0.00000  Uiso   1.00
C24    C     0.00979   0.15565   0.09132   0.00000  Uiso   1.00
C25    C     0.23922   0.17892   0.40650   0.00000  Uiso   1.00
C26    C     0.09411   0.15442   0.09350   0.00000  Uiso   1.00
C27    C     0.22339   0.17448   0.45300   0.00000  Uiso   1.00
C28    C     0.10994   0.15885   0.04700   0.00000  Uiso   1.00
C29    C     0.25797   0.18166   0.47691   0.00000  Uiso   1.00
C30    C     0.07536   0.15167   0.02309   0.00000  Uiso   1.00
C31    C     0.17423   0.16492   0.47652   0.00000  Uiso   1.00
C32    C     0.15910   0.16841   0.02348   0.00000  Uiso   1.00
Cu33   Cu    0.04689   0.16667   0.25000   0.00000  Uiso   1.00
Cu34   Cu    0.28645   0.16666   0.25000   0.00000  Uiso   1.00
H35    H     0.26740   0.19707   0.04094   0.00000  Uiso   1.00
H36    H     0.06593   0.13627   0.45906   0.00000  Uiso   1.00
H37    H     0.00125   0.19052   0.47200   0.00000  Uiso   1.00
H38    H     0.33209   0.14282   0.02800   0.00000  Uiso   1.00
H39    H     0.18178   0.19210   0.07983   0.00000  Uiso   1.00
H40    H     0.15155   0.14123   0.42017   0.00000  Uiso   1.00
H41    H     0.28582   0.29390   0.20844   0.00000  Uiso   1.00
H42    H     0.04752   0.03943   0.29156   0.00000  Uiso   1.00
H43    H     0.19348   0.12385   0.30325   0.00000  Uiso   1.00
H44    H     0.13985   0.20948   0.19675   0.00000  Uiso   1.00
H45    H     0.10645   0.12392   0.30326   0.00000  Uiso   1.00
H46    H     0.22688   0.20942   0.19674   0.00000  Uiso   1.00
N47    N     0.11736   0.16668   0.24999   0.00000  Uiso   1.00
N48    N     0.21597   0.16666   0.25001   0.00000  Uiso   1.00
O49    O     0.03958   0.10655   0.25000   0.00000  Uiso   1.00
O50    O     0.29375   0.22678   0.25000   0.00000  Uiso   1.00
O51    O     0.29372   0.10654   0.25001   0.00000  Uiso   1.00
O52    O     0.03961   0.22679   0.24999   0.00000  Uiso   1.00
O53    O     0.01852   0.16668   0.31491   0.00000  Uiso   1.00
O54    O     0.31481   0.16666   0.18509   0.00000  Uiso   1.00
O55    O     0.27267   0.16667   0.31492   0.00000  Uiso   1.00
O56    O     0.06067   0.16667   0.18508   0.00000  Uiso   1.00
Cl57   Cl    0.13326   0.12940   0.12067   0.00000  Uiso   1.00
Cl58   Cl    0.20007   0.20393   0.37933   0.00000  Uiso   1.00
H59    H     0.30430   0.15624   0.10775   0.00000  Uiso   1.00
H60    H     0.02904   0.17709   0.39225   0.00000  Uiso   1.00
Cl61   Cl    0.27375   0.04430   0.19172   0.00000  Uiso   1.00
Cl62   Cl    0.05958   0.28903   0.30828   0.00000  Uiso   1.00
C63    C     0.33345   0.08741   0.24908   0.00000  Uiso   1.00
C64    C     0.66655   0.24592   0.25092   0.00000  Uiso   1.00
C65    C     0.52619   0.18349   0.04521   0.00000  Uiso   1.00
C66    C     0.47381   0.14985   0.45479   0.00000  Uiso   1.00
C67    C     0.57535   0.18787   0.02265   0.00000  Uiso   1.00
C68    C     0.42465   0.14546   0.47734   0.00000  Uiso   1.00
C69    C     0.63945   0.02048   0.22538   0.00000  Uiso   1.00
C70    C     0.36055   0.31286   0.27462   0.00000  Uiso   1.00
C71    C     0.63955   0.31111   0.22697   0.00000  Uiso   1.00
C72    C     0.36045   0.02223   0.27303   0.00000  Uiso   1.00
C73    C     0.33339   0.29052   0.25120   0.00000  Uiso   1.00
C74    C     0.66661   0.04281   0.24880   0.00000  Uiso   1.00
C75    C     0.51553   0.14292   0.27959   0.00000  Uiso   1.00
C76    C     0.48446   0.19041   0.22041   0.00000  Uiso   1.00
C77    C     0.46591   0.14295   0.27960   0.00000  Uiso   1.00
C78    C     0.53409   0.19038   0.22040   0.00000  Uiso   1.00
C79    C     0.63898   0.16940   0.33576   0.00000  Uiso   1.00
C80    C     0.36102   0.16393   0.16424   0.00000  Uiso   1.00
C81    C     0.62270   0.17482   0.38425   0.00000  Uiso   1.00
C82    C     0.37730   0.15851   0.11575   0.00000  Uiso   1.00
C83    C     0.64112   0.18425   0.45434   0.00000  Uiso   1.00
C84    C     0.35887   0.14908   0.04566   0.00000  Uiso   1.00
C85    C     0.65688   0.17769   0.40868   0.00000  Uiso   1.00
C86    C     0.34312   0.15565   0.09132   0.00000  Uiso   1.00
C87    C     0.57255   0.17892   0.40650   0.00000  Uiso   1.00
C88    C     0.42745   0.15442   0.09350   0.00000  Uiso   1.00
C89    C     0.55672   0.17448   0.45300   0.00000  Uiso   1.00
C90    C     0.44328   0.15885   0.04700   0.00000  Uiso   1.00
C91    C     0.59130   0.18166   0.47691   0.00000  Uiso   1.00
C92    C     0.40870   0.15167   0.02309   0.00000  Uiso   1.00
C93    C     0.50756   0.16492   0.47652   0.00000  Uiso   1.00
C94    C     0.49244   0.16841   0.02348   0.00000  Uiso   1.00
Cu95   Cu    0.38022   0.16667   0.25000   0.00000  Uiso   1.00
Cu96   Cu    0.61978   0.16666   0.25000   0.00000  Uiso   1.00
H97    H     0.60074   0.19707   0.04094   0.00000  Uiso   1.00
H98    H     0.39926   0.13627   0.45906   0.00000  Uiso   1.00
H99    H     0.33458   0.19052   0.47200   0.00000  Uiso   1.00
H100   H     0.66542   0.14282   0.02800   0.00000  Uiso   1.00
H101   H     0.51511   0.19210   0.07983   0.00000  Uiso   1.00
H102   H     0.48489   0.14123   0.42017   0.00000  Uiso   1.00
H103   H     0.61915   0.29390   0.20844   0.00000  Uiso   1.00
H104   H     0.38085   0.03943   0.29156   0.00000  Uiso   1.00
H105   H     0.52682   0.12385   0.30325   0.00000  Uiso   1.00
H106   H     0.47318   0.20948   0.19675   0.00000  Uiso   1.00
H107   H     0.43979   0.12392   0.30326   0.00000  Uiso   1.00
H108   H     0.56021   0.20942   0.19674   0.00000  Uiso   1.00
N109   N     0.45069   0.16668   0.24999   0.00000  Uiso   1.00
N110   N     0.54931   0.16666   0.25001   0.00000  Uiso   1.00
O111   O     0.37291   0.10655   0.25000   0.00000  Uiso   1.00
O112   O     0.62709   0.22678   0.25000   0.00000  Uiso   1.00
O113   O     0.62706   0.10654   0.25001   0.00000  Uiso   1.00
O114   O     0.37294   0.22679   0.24999   0.00000  Uiso   1.00
O115   O     0.35186   0.16668   0.31491   0.00000  Uiso   1.00
O116   O     0.64814   0.16666   0.18509   0.00000  Uiso   1.00
O117   O     0.60600   0.16667   0.31492   0.00000  Uiso   1.00
O118   O     0.39400   0.16667   0.18508   0.00000  Uiso   1.00
Cl119  Cl    0.46660   0.12940   0.12067   0.00000  Uiso   1.00
Cl120  Cl    0.53340   0.20393   0.37933   0.00000  Uiso   1.00
H121   H     0.63763   0.15624   0.10775   0.00000  Uiso   1.00
H122   H     0.36237   0.17709   0.39225   0.00000  Uiso   1.00
Cl123  Cl    0.60709   0.04430   0.19172   0.00000  Uiso   1.00
Cl124  Cl    0.39291   0.28903   0.30828   0.00000  Uiso   1.00
C125   C     0.66678   0.08741   0.24908   0.00000  Uiso   1.00
C126   C     0.99988   0.24592   0.25092   0.00000  Uiso   1.00
C127   C     0.85953   0.18349   0.04521   0.00000  Uiso   1.00
C128   C     0.80714   0.14985   0.45479   0.00000  Uiso   1.00
C129   C     0.90869   0.18787   0.02265   0.00000  Uiso   1.00
C130   C     0.75798   0.14546   0.47734   0.00000  Uiso   1.00
C131   C     0.97278   0.02048   0.22538   0.00000  Uiso   1.00
C132   C     0.69388   0.31286   0.27462   0.00000  Uiso   1.00
C133   C     0.97288   0.31111   0.22697   0.00000  Uiso   1.00
C134   C     0.69379   0.02223   0.27303   0.00000  Uiso   1.00
C135   C     0.66672   0.29052   0.25120   0.00000  Uiso   1.00
C136   C     0.99994   0.04281   0.24880   0.00000  Uiso   1.00
C137   C     0.84887   0.14292   0.27959   0.00000  Uiso   1.00
C138   C     0.81780   0.19041   0.22041   0.00000  Uiso   1.00
C139   C     0.79925   0.14295   0.27960   0.00000  Uiso   1.00
C140   C     0.86742   0.19038   0.22040   0.00000  Uiso   1.00
C141   C     0.97232   0.16940   0.33576   0.00000  Uiso   1.00
C142   C     0.69435   0.16393   0.16424   0.00000  Uiso   1.00
C143   C     0.95604   0.17482   0.38425   0.00000  Uiso   1.00
C144   C     0.71063   0.15851   0.11575   0.00000  Uiso   1.00
C145   C     0.97446   0.18425   0.45434   0.00000  Uiso   1.00
C146   C     0.69221   0.14908   0.04566   0.00000  Uiso   1.00
C147   C     0.99021   0.17769   0.40868   0.00000  Uiso   1.00
C148   C     0.67645   0.15565   0.09132   0.00000  Uiso   1.00
C149   C     0.90589   0.17892   0.40650   0.00000  Uiso   1.00
C150   C     0.76078   0.15442   0.09350   0.00000  Uiso   1.00
C151   C     0.89006   0.17448   0.45300   0.00000  Uiso   1.00
C152   C     0.77661   0.15885   0.04700   0.00000  Uiso   1.00
C153   C     0.92464   0.18166   0.47691   0.00000  Uiso   1.00
C154   C     0.74203   0.15167   0.02309   0.00000  Uiso   1.00
C155   C     0.84090   0.16492   0.47652   0.00000  Uiso   1.00
C156   C     0.82577   0.16841   0.02348   0.00000  Uiso   1.00
Cu157  Cu    0.71355   0.16667   0.25000   0.00000  Uiso   1.00
Cu158  Cu    0.95311   0.16666   0.25000   0.00000  Uiso   1.00
H159   H     0.93407   0.19707   0.04094   0.00000  Uiso   1.00
H160   H     0.73260   0.13627   0.45906   0.00000  Uiso   1.00
H161   H     0.66791   0.19052   0.47200   0.00000  Uiso   1.00
H162   H     0.99875   0.14282   0.02800   0.00000  Uiso   1.00
H163   H     0.84845   0.19210   0.07983   0.00000  Uiso   1.00
H164   H     0.81822   0.14123   0.42017   0.00000  Uiso   1.00
H165   H     0.95248   0.29390   0.20844   0.00000  Uiso   1.00
H166   H     0.71418   0.03943   0.29156   0.00000  Uiso   1.00
H167   H     0.86015   0.12385   0.30325   0.00000  Uiso   1.00
H168   H     0.80651   0.20948   0.19675   0.00000  Uiso   1.00
H169   H     0.77312   0.12392   0.30326   0.00000  Uiso   1.00
H170   H     0.89355   0.20942   0.19674   0.00000  Uiso   1.00
N171   N     0.78403   0.16668   0.24999   0.00000  Uiso   1.00
N172   N     0.88264   0.16666   0.25001   0.00000  Uiso   1.00
O173   O     0.70625   0.10655   0.25000   0.00000  Uiso   1.00
O174   O     0.96042   0.22678   0.25000   0.00000  Uiso   1.00
O175   O     0.96039   0.10654   0.25001   0.00000  Uiso   1.00
O176   O     0.70628   0.22679   0.24999   0.00000  Uiso   1.00
O177   O     0.68519   0.16668   0.31491   0.00000  Uiso   1.00
O178   O     0.98148   0.16666   0.18509   0.00000  Uiso   1.00
O179   O     0.93933   0.16667   0.31492   0.00000  Uiso   1.00
O180   O     0.72733   0.16667   0.18508   0.00000  Uiso   1.00
Cl181  Cl    0.79993   0.12940   0.12067   0.00000  Uiso   1.00
Cl182  Cl    0.86674   0.20393   0.37933   0.00000  Uiso   1.00
H183   H     0.97096   0.15624   0.10775   0.00000  Uiso   1.00
H184   H     0.69570   0.17709   0.39225   0.00000  Uiso   1.00
Cl185  Cl    0.94042   0.04430   0.19172   0.00000  Uiso   1.00
Cl186  Cl    0.72624   0.28903   0.30828   0.00000  Uiso   1.00
C187   C     0.00012   0.42075   0.24908   0.00000  Uiso   1.00
C188   C     0.33322   0.57925   0.25092   0.00000  Uiso   1.00
C189   C     0.19286   0.51682   0.04521   0.00000  Uiso   1.00
C190   C     0.14047   0.48318   0.45479   0.00000  Uiso   1.00
C191   C     0.24202   0.52121   0.02265   0.00000  Uiso   1.00
C192   C     0.09131   0.47879   0.47734   0.00000  Uiso   1.00
C193   C     0.30612   0.35381   0.22538   0.00000  Uiso   1.00
C194   C     0.02722   0.64619   0.27462   0.00000  Uiso   1.00
C195   C     0.30621   0.64444   0.22697   0.00000  Uiso   1.00
C196   C     0.02712   0.35556   0.27303   0.00000  Uiso   1.00
C197   C     0.00006   0.62385   0.25120   0.00000  Uiso   1.00
C198   C     0.33328   0.37615   0.24880   0.00000  Uiso   1.00
C199   C     0.18220   0.47626   0.27959   0.00000  Uiso   1.00
C200   C     0.15113   0.52374   0.22041   0.00000  Uiso   1.00
C201   C     0.13258   0.47629   0.27960   0.00000  Uiso   1.00
C202   C     0.20075   0.52371   0.22040   0.00000  Uiso   1.00
C203   C     0.30565   0.50273   0.33576   0.00000  Uiso   1.00
C204   C     0.02768   0.49727   0.16424   0.00000  Uiso   1.00
C205   C     0.28937   0.50816   0.38425   0.00000  Uiso   1.00
C206   C     0.04396   0.49184   0.11575   0.00000  Uiso   1.00
C207   C     0.30779   0.51758   0.45434   0.00000  Uiso   1.00
C208   C     0.02554   0.48242   0.04566   0.00000  Uiso   1.00
C209   C     0.32355   0.51102   0.40868   0.00000  Uiso   1.00
C210   C     0.00979   0.48898   0.09132   0.00000  Uiso   1.00
C211   C     0.23922   0.51225   0.40650   0.00000  Uiso   1.00
C212   C     0.09411   0.48775   0.09350   0.00000  Uiso   1.00
C213   C     0.22339   0.50782   0.45300   0.00000  Uiso   1.00
C214   C     0.10994   0.49218   0.04700   0.00000  Uiso   1.00
C215   C     0.25797   0.51499   0.47691   0.00000  Uiso   1.00
C216   C     0.07536   0.48501   0.02309   0.00000  Uiso   1.00
C217   C     0.17423   0.49826   0.47652   0.00000  Uiso   1.00
C218   C     0.15910   0.50174   0.02348   0.00000  Uiso   1.00
Cu219  Cu    0.04689   0.50001   0.25000   0.00000  Uiso   1.00
Cu220  Cu    0.28645   0.49999   0.25000   0.00000  Uiso   1.00
H221   H     0.26740   0.53040   0.04094   0.00000  Uiso   1.00
H222   H     0.06593   0.46960   0.45906   0.00000  Uiso   1.00
H223   H     0.00125   0.52385   0.47200   0.00000  Uiso   1.00
H224   H     0.33209   0.47615   0.02800   0.00000  Uiso   1.00
H225   H     0.18178   0.52543   0.07983   0.00000  Uiso   1.00
H226   H     0.15155   0.47457   0.42017   0.00000  Uiso   1.00
H227   H     0.28582   0.62724   0.20844   0.00000  Uiso   1.00
H228   H     0.04752   0.37276   0.29156   0.00000  Uiso   1.00
H229   H     0.19348   0.45719   0.30325   0.00000  Uiso   1.00
H230   H     0.13985   0.54281   0.19675   0.00000  Uiso   1.00
H231   H     0.10645   0.45725   0.30326   0.00000  Uiso   1.00
H232   H     0.22688   0.54275   0.19674   0.00000  Uiso   1.00
N233   N     0.11736   0.50001   0.24999   0.00000  Uiso   1.00
N234   N     0.21597   0.49999   0.25001   0.00000  Uiso   1.00
O235   O     0.03958   0.43989   0.25000   0.00000  Uiso   1.00
O236   O     0.29375   0.56011   0.25000   0.00000  Uiso   1.00
O237   O     0.29372   0.43988   0.25001   0.00000  Uiso   1.00
O238   O     0.03961   0.56012   0.24999   0.00000  Uiso   1.00
O239   O     0.01852   0.50001   0.31491   0.00000  Uiso   1.00
O240   O     0.31481   0.49999   0.18509   0.00000  Uiso   1.00
O241   O     0.27267   0.50000   0.31492   0.00000  Uiso   1.00
O242   O     0.06067   0.50000   0.18508   0.00000  Uiso   1.00
Cl243  Cl    0.13326   0.46273   0.12067   0.00000  Uiso   1.00
Cl244  Cl    0.20007   0.53727   0.37933   0.00000  Uiso   1.00
H245   H     0.30430   0.48957   0.10775   0.00000  Uiso   1.00
H246   H     0.02904   0.51043   0.39225   0.00000  Uiso   1.00
Cl247  Cl    0.27375   0.37763   0.19172   0.00000  Uiso   1.00
Cl248  Cl    0.05958   0.62237   0.30828   0.00000  Uiso   1.00
C249   C     0.33345   0.42075   0.24908   0.00000  Uiso   1.00
C250   C     0.66655   0.57925   0.25092   0.00000  Uiso   1.00
C251   C     0.52619   0.51682   0.04521   0.00000  Uiso   1.00
C252   C     0.47381   0.48318   0.45479   0.00000  Uiso   1.00
C253   C     0.57535   0.52121   0.02265   0.00000  Uiso   1.00
C254   C     0.42465   0.47879   0.47734   0.00000  Uiso   1.00
C255   C     0.63945   0.35381   0.22538   0.00000  Uiso   1.00
C256   C     0.36055   0.64619   0.27462   0.00000  Uiso   1.00
C257   C     0.63955   0.64444   0.22697   0.00000  Uiso   1.00
C258   C     0.36045   0.35556   0.27303   0.00000  Uiso   1.00
C259   C     0.33339   0.62385   0.25120   0.00000  Uiso   1.00
C260   C     0.66661   0.37615   0.24880   0.00000  Uiso   1.00
C261   C     0.51553   0.47626   0.27959   0.00000  Uiso   1.00
C262   C     0.48446   0.52374   0.22041   0.00000  Uiso   1.00
C263   C     0.46591   0.47629   0.27960   0.00000  Uiso   1.00
C264   C     0.53409   0.52371   0.22040   0.00000  Uiso   1.00
C265   C     0.63898   0.50273   0.33576   0.00000  Uiso   1.00
C266   C     0.36102   0.49727   0.16424   0.00000  Uiso   1.00
C267   C     0.62270   0.50816   0.38425   0.00000  Uiso   1.00
C268   C     0.37730   0.49184   0.11575   0.00000  Uiso   1.00
C269   C     0.64112   0.51758   0.45434   0.00000  Uiso   1.00
C270   C     0.35887   0.48242   0.04566   0.00000  Uiso   1.00
C271   C     0.65688   0.51102   0.40868   0.00000  Uiso   1.00
C272   C     0.34312   0.48898   0.09132   0.00000  Uiso   1.00
C273   C     0.57255   0.51225   0.40650   0.00000  Uiso   1.00
C274   C     0.42745   0.48775   0.09350   0.00000  Uiso   1.00
C275   C     0.55672   0.50782   0.45300   0.00000  Uiso   1.00
C276   C     0.44328   0.49218   0.04700   0.00000  Uiso   1.00
C277   C     0.59130   0.51499   0.47691   0.00000  Uiso   1.00
C278   C     0.40870   0.48501   0.02309   0.00000  Uiso   1.00
C279   C     0.50756   0.49826   0.47652   0.00000  Uiso   1.00
C280   C     0.49244   0.50174   0.02348   0.00000  Uiso   1.00
Cu281  Cu    0.38022   0.50001   0.25000   0.00000  Uiso   1.00
Cu282  Cu    0.61978   0.49999   0.25000   0.00000  Uiso   1.00
H283   H     0.60074   0.53040   0.04094   0.00000  Uiso   1.00
H284   H     0.39926   0.46960   0.45906   0.00000  Uiso   1.00
H285   H     0.33458   0.52385   0.47200   0.00000  Uiso   1.00
H286   H     0.66542   0.47615   0.02800   0.00000  Uiso   1.00
H287   H     0.51511   0.52543   0.07983   0.00000  Uiso   1.00
H288   H     0.48489   0.47457   0.42017   0.00000  Uiso   1.00
H289   H     0.61915   0.62724   0.20844   0.00000  Uiso   1.00
H290   H     0.38085   0.37276   0.29156   0.00000  Uiso   1.00
H291   H     0.52682   0.45719   0.30325   0.00000  Uiso   1.00
H292   H     0.47318   0.54281   0.19675   0.00000  Uiso   1.00
H293   H     0.43979   0.45725   0.30326   0.00000  Uiso   1.00
H294   H     0.56021   0.54275   0.19674   0.00000  Uiso   1.00
N295   N     0.45069   0.50001   0.24999   0.00000  Uiso   1.00
N296   N     0.54931   0.49999   0.25001   0.00000  Uiso   1.00
O297   O     0.37291   0.43989   0.25000   0.00000  Uiso   1.00
O298   O     0.62709   0.56011   0.25000   0.00000  Uiso   1.00
O299   O     0.62706   0.43988   0.25001   0.00000  Uiso   1.00
O300   O     0.37294   0.56012   0.24999   0.00000  Uiso   1.00
O301   O     0.35186   0.50001   0.31491   0.00000  Uiso   1.00
O302   O     0.64814   0.49999   0.18509   0.00000  Uiso   1.00
O303   O     0.60600   0.50000   0.31492   0.00000  Uiso   1.00
O304   O     0.39400   0.50000   0.18508   0.00000  Uiso   1.00
Cl305  Cl    0.46660   0.46273   0.12067   0.00000  Uiso   1.00
Cl306  Cl    0.53340   0.53727   0.37933   0.00000  Uiso   1.00
H307   H     0.63763   0.48957   0.10775   0.00000  Uiso   1.00
H308   H     0.36237   0.51043   0.39225   0.00000  Uiso   1.00
Cl309  Cl    0.60709   0.37763   0.19172   0.00000  Uiso   1.00
Cl310  Cl    0.39291   0.62237   0.30828   0.00000  Uiso   1.00
C311   C     0.66678   0.42075   0.24908   0.00000  Uiso   1.00
C312   C     0.99988   0.57925   0.25092   0.00000  Uiso   1.00
C313   C     0.85953   0.51682   0.04521   0.00000  Uiso   1.00
C314   C     0.80714   0.48318   0.45479   0.00000  Uiso   1.00
C315   C     0.90869   0.52121   0.02265   0.00000  Uiso   1.00
C316   C     0.75798   0.47879   0.47734   0.00000  Uiso   1.00
C317   C     0.97278   0.35381   0.22538   0.00000  Uiso   1.00
C318   C     0.69388   0.64619   0.27462   0.00000  Uiso   1.00
C319   C     0.97288   0.64444   0.22697   0.00000  Uiso   1.00
C320   C     0.69379   0.35556   0.27303   0.00000  Uiso   1.00
C321   C     0.66672   0.62385   0.25120   0.00000  Uiso   1.00
C322   C     0.99994   0.37615   0.24880   0.00000  Uiso   1.00
C323   C     0.84887   0.47626   0.27959   0.00000  Uiso   1.00
C324   C     0.81780   0.52374   0.22041   0.00000  Uiso   1.00
C325   C     0.79925   0.47629   0.27960   0.00000  Uiso   1.00
C326   C     0.86742   0.52371   0.22040   0.00000  Uiso   1.00
C327   C     0.97232   0.50273   0.33576   0.00000  Uiso   1.00
C328   C     0.69435   0.49727   0.16424   0.00000  Uiso   1.00
C329   C     0.95604   0.50816   0.38425   0.00000  Uiso   1.00
C330   C     0.71063   0.49184   0.11575   0.00000  Uiso   1.00
C331   C     0.97446   0.51758   0.45434   0.00000  Uiso   1.00
C332   C     0.69221   0.48242   0.04566   0.00000  Uiso   1.00
C333   C     0.99021   0.51102   0.40868   0.00000  Uiso   1.00
C334   C     0.67645   0.48898   0.09132   0.00000  Uiso   1.00
C335   C     0.90589   0.51225   0.40650   0.00000  Uiso   1.00
C336   C     0.76078   0.48775   0.09350   0.00000  Uiso   1.00
C337   C     0.89006   0.50782   0.45300   0.00000  Uiso   1.00
C338   C     0.77661   0.49218   0.04700   0.00000  Uiso   1.00
C339   C     0.92464   0.51499   0.47691   0.00000  Uiso   1.00
C340   C     0.74203   0.48501   0.02309   0.00000  Uiso   1.00
C341   C     0.84090   0.49826   0.47652   0.00000  Uiso   1.00
C342   C     0.82577   0.50174   0.02348   0.00000  Uiso   1.00
Cu343  Cu    0.71355   0.50001   0.25000   0.00000  Uiso   1.00
Cu344  Cu    0.95311   0.49999   0.25000   0.00000  Uiso   1.00
H345   H     0.93407   0.53040   0.04094   0.00000  Uiso   1.00
H346   H     0.73260   0.46960   0.45906   0.00000  Uiso   1.00
H347   H     0.66791   0.52385   0.47200   0.00000  Uiso   1.00
H348   H     0.99875   0.47615   0.02800   0.00000  Uiso   1.00
H349   H     0.84845   0.52543   0.07983   0.00000  Uiso   1.00
H350   H     0.81822   0.47457   0.42017   0.00000  Uiso   1.00
H351   H     0.95248   0.62724   0.20844   0.00000  Uiso   1.00
H352   H     0.71418   0.37276   0.29156   0.00000  Uiso   1.00
H353   H     0.86015   0.45719   0.30325   0.00000  Uiso   1.00
H354   H     0.80651   0.54281   0.19675   0.00000  Uiso   1.00
H355   H     0.77312   0.45725   0.30326   0.00000  Uiso   1.00
H356   H     0.89355   0.54275   0.19674   0.00000  Uiso   1.00
N357   N     0.78403   0.50001   0.24999   0.00000  Uiso   1.00
N358   N     0.88264   0.49999   0.25001   0.00000  Uiso   1.00
O359   O     0.70625   0.43989   0.25000   0.00000  Uiso   1.00
O360   O     0.96042   0.56011   0.25000   0.00000  Uiso   1.00
O361   O     0.96039   0.43988   0.25001   0.00000  Uiso   1.00
O362   O     0.70628   0.56012   0.24999   0.00000  Uiso   1.00
O363   O     0.68519   0.50001   0.31491   0.00000  Uiso   1.00
O364   O     0.98148   0.49999   0.18509   0.00000  Uiso   1.00
O365   O     0.93933   0.50000   0.31492   0.00000  Uiso   1.00
O366   O     0.72733   0.50000   0.18508   0.00000  Uiso   1.00
Cl367  Cl    0.79993   0.46273   0.12067   0.00000  Uiso   1.00
Cl368  Cl    0.86674   0.53727   0.37933   0.00000  Uiso   1.00
H369   H     0.97096   0.48957   0.10775   0.00000  Uiso   1.00
H370   H     0.69570   0.51043   0.39225   0.00000  Uiso   1.00
Cl371  Cl    0.94042   0.37763   0.19172   0.00000  Uiso   1.00
Cl372  Cl    0.72624   0.62237   0.30828   0.00000  Uiso   1.00
C373   C     0.00012   0.75408   0.24908   0.00000  Uiso   1.00
C374   C     0.33322   0.91259   0.25092   0.00000  Uiso   1.00
C375   C     0.19286   0.85016   0.04521   0.00000  Uiso   1.00
C376   C     0.14047   0.81651   0.45479   0.00000  Uiso   1.00
C377   C     0.24202   0.85454   0.02265   0.00000  Uiso   1.00
C378   C     0.09131   0.81213   0.47734   0.00000  Uiso   1.00
C379   C     0.30612   0.68714   0.22538   0.00000  Uiso   1.00
C380   C     0.02722   0.97952   0.27462   0.00000  Uiso   1.00
C381   C     0.30621   0.97777   0.22697   0.00000  Uiso   1.00
C382   C     0.02712   0.68889   0.27303   0.00000  Uiso   1.00
C383   C     0.00006   0.95719   0.25120   0.00000  Uiso   1.00
C384   C     0.33328   0.70948   0.24880   0.00000  Uiso   1.00
C385   C     0.18220   0.80959   0.27959   0.00000  Uiso   1.00
C386   C     0.15113   0.85708   0.22041   0.00000  Uiso   1.00
C387   C     0.13258   0.80962   0.27960   0.00000  Uiso   1.00
C388   C     0.20075   0.85705   0.22040   0.00000  Uiso   1.00
C389   C     0.30565   0.83607   0.33576   0.00000  Uiso   1.00
C390   C     0.02768   0.83060   0.16424   0.00000  Uiso   1.00
C391   C     0.28937   0.84149   0.38425   0.00000  Uiso   1.00
C392   C     0.04396   0.82518   0.11575   0.00000  Uiso   1.00
C393   C     0.30779   0.85092   0.45434   0.00000  Uiso   1.00
C394   C     0.02554   0.81575   0.04566   0.00000  Uiso   1.00
C395   C     0.32355   0.84435   0.40868   0.00000  Uiso   1.00
C396   C     0.00979   0.82231   0.09132   0.00000  Uiso   1.00
C397   C     0.23922   0.84558   0.40650   0.00000  Uiso   1.00
C398   C     0.09411   0.82108   0.09350   0.00000  Uiso   1.00
C399   C     0.22339   0.84115   0.45300   0.00000  Uiso   1.00
C400   C     0.10994   0.82552   0.04700   0.00000  Uiso   1.00
C401   C     0.25797   0.84833   0.47691   0.00000  Uiso   1.00
C402   C     0.07536   0.81834   0.02309   0.00000  Uiso   1.00
C403   C     0.17423   0.83159   0.47652   0.00000  Uiso   1.00
C404   C     0.15910   0.83508   0.02348   0.00000  Uiso   1.00
Cu405  Cu    0.04689   0.83334   0.25000   0.00000  Uiso   1.00
Cu406  Cu    0.28645   0.83333   0.25000   0.00000  Uiso   1.00
H407   H     0.26740   0.86373   0.04094   0.00000  Uiso   1.00
H408   H     0.06593   0.80294   0.45906   0.00000  Uiso   1.00
H409   H     0.00125   0.85718   0.47200   0.00000  Uiso   1.00
H410   H     0.33209   0.80948   0.02800   0.00000  Uiso   1.00
H411   H     0.18178   0.85877   0.07983   0.00000  Uiso   1.00
H412   H     0.15155   0.80790   0.42017   0.00000  Uiso   1.00
H413   H     0.28582   0.96057   0.20844   0.00000  Uiso   1.00
H414   H     0.04752   0.70610   0.29156   0.00000  Uiso   1.00
H415   H     0.19348   0.79052   0.30325   0.00000  Uiso   1.00
H416   H     0.13985   0.87615   0.19675   0.00000  Uiso   1.00
H417   H     0.10645   0.79058   0.30326   0.00000  Uiso   1.00
H418   H     0.22688   0.87608   0.19674   0.00000  Uiso   1.00
N419   N     0.11736   0.83334   0.24999   0.00000  Uiso   1.00
N420   N     0.21597   0.83332   0.25001   0.00000  Uiso   1.00
O421   O     0.03958   0.77322   0.25000   0.00000  Uiso   1.00
O422   O     0.29375   0.89345   0.25000   0.00000  Uiso   1.00
O423   O     0.29372   0.77321   0.25001   0.00000  Uiso   1.00
O424   O     0.03961   0.89346   0.24999   0.00000  Uiso   1.00
O425   O     0.01852   0.83334   0.31491   0.00000  Uiso   1.00
O426   O     0.31481   0.83332   0.18509   0.00000  Uiso   1.00
O427   O     0.27267   0.83333   0.31492   0.00000  Uiso   1.00
O428   O     0.06067   0.83333   0.18508   0.00000  Uiso   1.00
Cl429  Cl    0.13326   0.79607   0.12067   0.00000  Uiso   1.00
Cl430  Cl    0.20007   0.87060   0.37933   0.00000  Uiso   1.00
H431   H     0.30430   0.82291   0.10775   0.00000  Uiso   1.00
H432   H     0.02904   0.84376   0.39225   0.00000  Uiso   1.00
Cl433  Cl    0.27375   0.71097   0.19172   0.00000  Uiso   1.00
Cl434  Cl    0.05958   0.95570   0.30828   0.00000  Uiso   1.00
C435   C     0.33345   0.75408   0.24908   0.00000  Uiso   1.00
C436   C     0.66655   0.91259   0.25092   0.00000  Uiso   1.00
C437   C     0.52619   0.85016   0.04521   0.00000  Uiso   1.00
C438   C     0.47381   0.81651   0.45479   0.00000  Uiso   1.00
C439   C     0.57535   0.85454   0.02265   0.00000  Uiso   1.00
C440   C     0.42465   0.81213   0.47734   0.00000  Uiso   1.00
C441   C     0.63945   0.68714   0.22538   0.00000  Uiso   1.00
C442   C     0.36055   0.97952   0.27462   0.00000  Uiso   1.00
C443   C     0.63955   0.97777   0.22697   0.00000  Uiso   1.00
C444   C     0.36045   0.68889   0.27303   0.00000  Uiso   1.00
C445   C     0.33339   0.95719   0.25120   0.00000  Uiso   1.00
C446   C     0.66661   0.70948   0.24880   0.00000  Uiso   1.00
C447   C     0.51553   0.80959   0.27959   0.00000  Uiso   1.00
C448   C     0.48446   0.85708   0.22041   0.00000  Uiso   1.00
C449   C     0.46591   0.80962   0.27960   0.00000  Uiso   1.00
C450   C     0.53409   0.85705   0.22040   0.00000  Uiso   1.00
C451   C     0.63898   0.83607   0.33576   0.00000  Uiso   1.00
C452   C     0.36102   0.83060   0.16424   0.00000  Uiso   1.00
C453   C     0.62270   0.84149   0.38425   0.00000  Uiso   1.00
C454   C     0.37730   0.82518   0.11575   0.00000  Uiso   1.00
C455   C     0.64112   0.85092   0.45434   0.00000  Uiso   1.00
C456   C     0.35887   0.81575   0.04566   0.00000  Uiso   1.00
C457   C     0.65688   0.84435   0.40868   0.00000  Uiso   1.00
C458   C     0.34312   0.82231   0.09132   0.00000  Uiso   1.00
C459   C     0.57255   0.84558   0.40650   0.00000  Uiso   1.00
C460   C     0.42745   0.82108   0.09350   0.00000  Uiso   1.00
C461   C     0.55672   0.84115   0.45300   0.00000  Uiso   1.00
C462   C     0.44328   0.82552   0.04700   0.00000  Uiso   1.00
C463   C     0.59130   0.84833   0.47691   0.00000  Uiso   1.00
C464   C     0.40870   0.81834   0.02309   0.00000  Uiso   1.00
C465   C     0.50756   0.83159   0.47652   0.00000  Uiso   1.00
C466   C     0.49244   0.83508   0.02348   0.00000  Uiso   1.00
Cu467  Cu    0.38022   0.83334   0.25000   0.00000  Uiso   1.00
Cu468  Cu    0.61978   0.83333   0.25000   0.00000  Uiso   1.00
H469   H     0.60074   0.86373   0.04094   0.00000  Uiso   1.00
H470   H     0.39926   0.80294   0.45906   0.00000  Uiso   1.00
H471   H     0.33458   0.85718   0.47200   0.00000  Uiso   1.00
H472   H     0.66542   0.80948   0.02800   0.00000  Uiso   1.00
H473   H     0.51511   0.85877   0.07983   0.00000  Uiso   1.00
H474   H     0.48489   0.80790   0.42017   0.00000  Uiso   1.00
H475   H     0.61915   0.96057   0.20844   0.00000  Uiso   1.00
H476   H     0.38085   0.70610   0.29156   0.00000  Uiso   1.00
H477   H     0.52682   0.79052   0.30325   0.00000  Uiso   1.00
H478   H     0.47318   0.87615   0.19675   0.00000  Uiso   1.00
H479   H     0.43979   0.79058   0.30326   0.00000  Uiso   1.00
H480   H     0.56021   0.87608   0.19674   0.00000  Uiso   1.00
N481   N     0.45069   0.83334   0.24999   0.00000  Uiso   1.00
N482   N     0.54931   0.83332   0.25001   0.00000  Uiso   1.00
O483   O     0.37291   0.77322   0.25000   0.00000  Uiso   1.00
O484   O     0.62709   0.89345   0.25000   0.00000  Uiso   1.00
O485   O     0.62706   0.77321   0.25001   0.00000  Uiso   1.00
O486   O     0.37294   0.89346   0.24999   0.00000  Uiso   1.00
O487   O     0.35186   0.83334   0.31491   0.00000  Uiso   1.00
O488   O     0.64814   0.83332   0.18509   0.00000  Uiso   1.00
O489   O     0.60600   0.83333   0.31492   0.00000  Uiso   1.00
O490   O     0.39400   0.83333   0.18508   0.00000  Uiso   1.00
Cl491  Cl    0.46660   0.79607   0.12067   0.00000  Uiso   1.00
Cl492  Cl    0.53340   0.87060   0.37933   0.00000  Uiso   1.00
H493   H     0.63763   0.82291   0.10775   0.00000  Uiso   1.00
H494   H     0.36237   0.84376   0.39225   0.00000  Uiso   1.00
Cl495  Cl    0.60709   0.71097   0.19172   0.00000  Uiso   1.00
Cl496  Cl    0.39291   0.95570   0.30828   0.00000  Uiso   1.00
C497   C     0.66678   0.75408   0.24908   0.00000  Uiso   1.00
C498   C     0.99988   0.91259   0.25092   0.00000  Uiso   1.00
C499   C     0.85953   0.85016   0.04521   0.00000  Uiso   1.00
C500   C     0.80714   0.81651   0.45479   0.00000  Uiso   1.00
C501   C     0.90869   0.85454   0.02265   0.00000  Uiso   1.00
C502   C     0.75798   0.81213   0.47734   0.00000  Uiso   1.00
C503   C     0.97278   0.68714   0.22538   0.00000  Uiso   1.00
C504   C     0.69388   0.97952   0.27462   0.00000  Uiso   1.00
C505   C     0.97288   0.97777   0.22697   0.00000  Uiso   1.00
C506   C     0.69379   0.68889   0.27303   0.00000  Uiso   1.00
C507   C     0.66672   0.95719   0.25120   0.00000  Uiso   1.00
C508   C     0.99994   0.70948   0.24880   0.00000  Uiso   1.00
C509   C     0.84887   0.80959   0.27959   0.00000  Uiso   1.00
C510   C     0.81780   0.85708   0.22041   0.00000  Uiso   1.00
C511   C     0.79925   0.80962   0.27960   0.00000  Uiso   1.00
C512   C     0.86742   0.85705   0.22040   0.00000  Uiso   1.00
C513   C     0.97232   0.83607   0.33576   0.00000  Uiso   1.00
C514   C     0.69435   0.83060   0.16424   0.00000  Uiso   1.00
C515   C     0.95604   0.84149   0.38425   0.00000  Uiso   1.00
C516   C     0.71063   0.82518   0.11575   0.00000  Uiso   1.00
C517   C     0.97446   0.85092   0.45434   0.00000  Uiso   1.00
C518   C     0.69221   0.81575   0.04566   0.00000  Uiso   1.00
C519   C     0.99021   0.84435   0.40868   0.00000  Uiso   1.00
C520   C     0.67645   0.82231   0.09132   0.00000  Uiso   1.00
C521   C     0.90589   0.84558   0.40650   0.00000  Uiso   1.00
C522   C     0.76078   0.82108   0.09350   0.00000  Uiso   1.00
C523   C     0.89006   0.84115   0.45300   0.00000  Uiso   1.00
C524   C     0.77661   0.82552   0.04700   0.00000  Uiso   1.00
C525   C     0.92464   0.84833   0.47691   0.00000  Uiso   1.00
C526   C     0.74203   0.81834   0.02309   0.00000  Uiso   1.00
C527   C     0.84090   0.83159   0.47652   0.00000  Uiso   1.00
C528   C     0.82577   0.83508   0.02348   0.00000  Uiso   1.00
Cu529  Cu    0.71355   0.83334   0.25000   0.00000  Uiso   1.00
Cu530  Cu    0.95311   0.83333   0.25000   0.00000  Uiso   1.00
H531   H     0.93407   0.86373   0.04094   0.00000  Uiso   1.00
H532   H     0.73260   0.80294   0.45906   0.00000  Uiso   1.00
H533   H     0.66791   0.85718   0.47200   0.00000  Uiso   1.00
H534   H     0.99875   0.80948   0.02800   0.00000  Uiso   1.00
H535   H     0.84845   0.85877   0.07983   0.00000  Uiso   1.00
H536   H     0.81822   0.80790   0.42017   0.00000  Uiso   1.00
H537   H     0.95248   0.96057   0.20844   0.00000  Uiso   1.00
H538   H     0.71418   0.70610   0.29156   0.00000  Uiso   1.00
H539   H     0.86015   0.79052   0.30325   0.00000  Uiso   1.00
H540   H     0.80651   0.87615   0.19675   0.00000  Uiso   1.00
H541   H     0.77312   0.79058   0.30326   0.00000  Uiso   1.00
H542   H     0.89355   0.87608   0.19674   0.00000  Uiso   1.00
N543   N     0.78403   0.83334   0.24999   0.00000  Uiso   1.00
N544   N     0.88264   0.83332   0.25001   0.00000  Uiso   1.00
O545   O     0.70625   0.77322   0.25000   0.00000  Uiso   1.00
O546   O     0.96042   0.89345   0.25000   0.00000  Uiso   1.00
O547   O     0.96039   0.77321   0.25001   0.00000  Uiso   1.00
O548   O     0.70628   0.89346   0.24999   0.00000  Uiso   1.00
O549   O     0.68519   0.83334   0.31491   0.00000  Uiso   1.00
O550   O     0.98148   0.83332   0.18509   0.00000  Uiso   1.00
O551   O     0.93933   0.83333   0.31492   0.00000  Uiso   1.00
O552   O     0.72733   0.83333   0.18508   0.00000  Uiso   1.00
Cl553  Cl    0.79993   0.79607   0.12067   0.00000  Uiso   1.00
Cl554  Cl    0.86674   0.87060   0.37933   0.00000  Uiso   1.00
H555   H     0.97096   0.82291   0.10775   0.00000  Uiso   1.00
H556   H     0.69570   0.84376   0.39225   0.00000  Uiso   1.00
Cl557  Cl    0.94042   0.71097   0.19172   0.00000  Uiso   1.00
Cl558  Cl    0.72624   0.95570   0.30828   0.00000  Uiso   1.00
C559   C     0.00012   0.08741   0.74908   0.00000  Uiso   1.00
C560   C     0.33322   0.24592   0.75092   0.00000  Uiso   1.00
C561   C     0.19286   0.18349   0.54521   0.00000  Uiso   1.00
C562   C     0.14047   0.14985   0.95479   0.00000  Uiso   1.00
C563   C     0.24202   0.18787   0.52265   0.00000  Uiso   1.00
C564   C     0.09131   0.14546   0.97734   0.00000  Uiso   1.00
C565   C     0.30612   0.02048   0.72538   0.00000  Uiso   1.00
C566   C     0.02722   0.31286   0.77462   0.00000  Uiso   1.00
C567   C     0.30621   0.31111   0.72697   0.00000  Uiso   1.00
C568   C     0.02712   0.02223   0.77303   0.00000  Uiso   1.00
C569   C     0.00006   0.29052   0.75120   0.00000  Uiso   1.00
C570   C     0.33328   0.04281   0.74880   0.00000  Uiso   1.00
C571   C     0.18220   0.14292   0.77959   0.00000  Uiso   1.00
C572   C     0.15113   0.19041   0.72041   0.00000  Uiso   1.00
C573   C     0.13258   0.14295   0.77960   0.00000  Uiso   1.00
C574   C     0.20075   0.19038   0.72040   0.00000  Uiso   1.00
C575   C     0.30565   0.16940   0.83576   0.00000  Uiso   1.00
C576   C     0.02768   0.16393   0.66424   0.00000  Uiso   1.00
C577   C     0.28937   0.17482   0.88425   0.00000  Uiso   1.00
C578   C     0.04396   0.15851   0.61575   0.00000  Uiso   1.00
C579   C     0.30779   0.18425   0.95434   0.00000  Uiso   1.00
C580   C     0.02554   0.14908   0.54566   0.00000  Uiso   1.00
C581   C     0.32355   0.17769   0.90868   0.00000  Uiso   1.00
C582   C     0.00979   0.15565   0.59132   0.00000  Uiso   1.00
C583   C     0.23922   0.17892   0.90650   0.00000  Uiso   1.00
C584   C     0.09411   0.15442   0.59350   0.00000  Uiso   1.00
C585   C     0.22339   0.17448   0.95300   0.00000  Uiso   1.00
C586   C     0.10994   0.15885   0.54700   0.00000  Uiso   1.00
C587   C     0.25797   0.18166   0.97691   0.00000  Uiso   1.00
C588   C     0.07536   0.15167   0.52309   0.00000  Uiso   1.00
C589   C     0.17423   0.16492   0.97652   0.00000  Uiso   1.00
C590   C     0.15910   0.16841   0.52348   0.00000  Uiso   1.00
Cu591  Cu    0.04689   0.16667   0.75000   0.00000  Uiso   1.00
Cu592  Cu    0.28645   0.16666   0.75000   0.00000  Uiso   1.00
H593   H     0.26740   0.19707   0.54094   0.00000  Uiso   1.00
H594   H     0.06593   0.13627   0.95906   0.00000  Uiso   1.00
H595   H     0.00125   0.19052   0.97200   0.00000  Uiso   1.00
H596   H     0.33209   0.14282   0.52800   0.00000  Uiso   1.00
H597   H     0.18178   0.19210   0.57983   0.00000  Uiso   1.00
H598   H     0.15155   0.14123   0.92017   0.00000  Uiso   1.00
H599   H     0.28582   0.29390   0.70844   0.00000  Uiso   1.00
H600   H     0.04752   0.03943   0.79156   0.00000  Uiso   1.00
H601   H     0.19348   0.12385   0.80325   0.00000  Uiso   1.00
H602   H     0.13985   0.20948   0.69675   0.00000  Uiso   1.00
H603   H     0.10645   0.12392   0.80326   0.00000  Uiso   1.00
H604   H     0.22688   0.20942   0.69674   0.00000  Uiso   1.00
N605   N     0.11736   0.16668   0.74999   0.00000  Uiso   1.00
N606   N     0.21597   0.16666   0.75001   0.00000  Uiso   1.00
O607   O     0.03958   0.10655   0.75000   0.00000  Uiso   1.00
O608   O     0.29375   0.22678   0.75000   0.00000  Uiso   1.00
O609   O     0.29372   0.10654   0.75001   0.00000  Uiso   1.00
O610   O     0.03961   0.22679   0.74999   0.00000  Uiso   1.00
O611   O     0.01852   0.16668   0.81491   0.00000  Uiso   1.00
O612   O     0.31481   0.16666   0.68509   0.00000  Uiso   1.00
O613   O     0.27267   0.16667   0.81492   0.00000  Uiso   1.00
O614   O     0.06067   0.16667   0.68508   0.00000  Uiso   1.00
Cl615  Cl    0.13326   0.12940   0.62067   0.00000  Uiso   1.00
Cl616  Cl    0.20007   0.20393   0.87933   0.00000  Uiso   1.00
H617   H     0.30430   0.15624   0.60775   0.00000  Uiso   1.00
H618   H     0.02904   0.17709   0.89225   0.00000  Uiso   1.00
Cl619  Cl    0.27375   0.04430   0.69172   0.00000  Uiso   1.00
Cl620  Cl    0.05958   0.28903   0.80828   0.00000  Uiso   1.00
C621   C     0.33345   0.08741   0.74908   0.00000  Uiso   1.00
C622   C     0.66655   0.24592   0.75092   0.00000  Uiso   1.00
C623   C     0.52619   0.18349   0.54521   0.00000  Uiso   1.00
C624   C     0.47381   0.14985   0.95479   0.00000  Uiso   1.00
C625   C     0.57535   0.18787   0.52265   0.00000  Uiso   1.00
C626   C     0.42465   0.14546   0.97734   0.00000  Uiso   1.00
C627   C     0.63945   0.02048   0.72538   0.00000  Uiso   1.00
C628   C     0.36055   0.31286   0.77462   0.00000  Uiso   1.00
C629   C     0.63955   0.31111   0.72697   0.00000  Uiso   1.00
C630   C     0.36045   0.02223   0.77303   0.00000  Uiso   1.00
C631   C     0.33339   0.29052   0.75120   0.00000  Uiso   1.00
C632   C     0.66661   0.04281   0.74880   0.00000  Uiso   1.00
C633   C     0.51553   0.14292   0.77959   0.00000  Uiso   1.00
C634   C     0.48446   0.19041   0.72041   0.00000  Uiso   1.00
C635   C     0.46591   0.14295   0.77960   0.00000  Uiso   1.00
C636   C     0.53409   0.19038   0.72040   0.00000  Uiso   1.00
C637   C     0.63898   0.16940   0.83576   0.00000  Uiso   1.00
C638   C     0.36102   0.16393   0.66424   0.00000  Uiso   1.00
C639   C     0.62270   0.17482   0.88425   0.00000  Uiso   1.00
C640   C     0.37730   0.15851   0.61575   0.00000  Uiso   1.00
C641   C     0.64112   0.18425   0.95434   0.00000  Uiso   1.00
C642   C     0.35887   0.14908   0.54566   0.00000  Uiso   1.00
C643   C     0.65688   0.17769   0.90868   0.00000  Uiso   1.00
C644   C     0.34312   0.15565   0.59132   0.00000  Uiso   1.00
C645   C     0.57255   0.17892   0.90650   0.00000  Uiso   1.00
C646   C     0.42745   0.15442   0.59350   0.00000  Uiso   1.00
C647   C     0.55672   0.17448   0.95300   0.00000  Uiso   1.00
C648   C     0.44328   0.15885   0.54700   0.00000  Uiso   1.00
C649   C     0.59130   0.18166   0.97691   0.00000  Uiso   1.00
C650   C     0.40870   0.15167   0.52309   0.00000  Uiso   1.00
C651   C     0.50756   0.16492   0.97652   0.00000  Uiso   1.00
C652   C     0.49244   0.16841   0.52348   0.00000  Uiso   1.00
Cu653  Cu    0.38022   0.16667   0.75000   0.00000  Uiso   1.00
Cu654  Cu    0.61978   0.16666   0.75000   0.00000  Uiso   1.00
H655   H     0.60074   0.19707   0.54094   0.00000  Uiso   1.00
H656   H     0.39926   0.13627   0.95906   0.00000  Uiso   1.00
H657   H     0.33458   0.19052   0.97200   0.00000  Uiso   1.00
H658   H     0.66542   0.14282   0.52800   0.00000  Uiso   1.00
H659   H     0.51511   0.19210   0.57983   0.00000  Uiso   1.00
H660   H     0.48489   0.14123   0.92017   0.00000  Uiso   1.00
H661   H     0.61915   0.29390   0.70844   0.00000  Uiso   1.00
H662   H     0.38085   0.03943   0.79156   0.00000  Uiso   1.00
H663   H     0.52682   0.12385   0.80325   0.00000  Uiso   1.00
H664   H     0.47318   0.20948   0.69675   0.00000  Uiso   1.00
H665   H     0.43979   0.12392   0.80326   0.00000  Uiso   1.00
H666   H     0.56021   0.20942   0.69674   0.00000  Uiso   1.00
N667   N     0.45069   0.16668   0.74999   0.00000  Uiso   1.00
N668   N     0.54931   0.16666   0.75001   0.00000  Uiso   1.00
O669   O     0.37291   0.10655   0.75000   0.00000  Uiso   1.00
O670   O     0.62709   0.22678   0.75000   0.00000  Uiso   1.00
O671   O     0.62706   0.10654   0.75001   0.00000  Uiso   1.00
O672   O     0.37294   0.22679   0.74999   0.00000  Uiso   1.00
O673   O     0.35186   0.16668   0.81491   0.00000  Uiso   1.00
O674   O     0.64814   0.16666   0.68509   0.00000  Uiso   1.00
O675   O     0.60600   0.16667   0.81492   0.00000  Uiso   1.00
O676   O     0.39400   0.16667   0.68508   0.00000  Uiso   1.00
Cl677  Cl    0.46660   0.12940   0.62067   0.00000  Uiso   1.00
Cl678  Cl    0.53340   0.20393   0.87933   0.00000  Uiso   1.00
H679   H     0.63763   0.15624   0.60775   0.00000  Uiso   1.00
H680   H     0.36237   0.17709   0.89225   0.00000  Uiso   1.00
Cl681  Cl    0.60709   0.04430   0.69172   0.00000  Uiso   1.00
Cl682  Cl    0.39291   0.28903   0.80828   0.00000  Uiso   1.00
C683   C     0.66678   0.08741   0.74908   0.00000  Uiso   1.00
C684   C     0.99988   0.24592   0.75092   0.00000  Uiso   1.00
C685   C     0.85953   0.18349   0.54521   0.00000  Uiso   1.00
C686   C     0.80714   0.14985   0.95479   0.00000  Uiso   1.00
C687   C     0.90869   0.18787   0.52265   0.00000  Uiso   1.00
C688   C     0.75798   0.14546   0.97734   0.00000  Uiso   1.00
C689   C     0.97278   0.02048   0.72538   0.00000  Uiso   1.00
C690   C     0.69388   0.31286   0.77462   0.00000  Uiso   1.00
C691   C     0.97288   0.31111   0.72697   0.00000  Uiso   1.00
C692   C     0.69379   0.02223   0.77303   0.00000  Uiso   1.00
C693   C     0.66672   0.29052   0.75120   0.00000  Uiso   1.00
C694   C     0.99994   0.04281   0.74880   0.00000  Uiso   1.00
C695   C     0.84887   0.14292   0.77959   0.00000  Uiso   1.00
C696   C     0.81780   0.19041   0.72041   0.00000  Uiso   1.00
C697   C     0.79925   0.14295   0.77960   0.00000  Uiso   1.00
C698   C     0.86742   0.19038   0.72040   0.00000  Uiso   1.00
C699   C     0.97232   0.16940   0.83576   0.00000  Uiso   1.00
C700   C     0.69435   0.16393   0.66424   0.00000  Uiso   1.00
C701   C     0.95604   0.17482   0.88425   0.00000  Uiso   1.00
C702   C     0.71063   0.15851   0.61575   0.00000  Uiso   1.00
C703   C     0.97446   0.18425   0.95434   0.00000  Uiso   1.00
C704   C     0.69221   0.14908   0.54566   0.00000  Uiso   1.00
C705   C     0.99021   0.17769   0.90868   0.00000  Uiso   1.00
C706   C     0.67645   0.15565   0.59132   0.00000  Uiso   1.00
C707   C     0.90589   0.17892   0.90650   0.00000  Uiso   1.00
C708   C     0.76078   0.15442   0.59350   0.00000  Uiso   1.00
C709   C     0.89006   0.17448   0.95300   0.00000  Uiso   1.00
C710   C     0.77661   0.15885   0.54700   0.00000  Uiso   1.00
C711   C     0.92464   0.18166   0.97691   0.00000  Uiso   1.00
C712   C     0.74203   0.15167   0.52309   0.00000  Uiso   1.00
C713   C     0.84090   0.16492   0.97652   0.00000  Uiso   1.00
C714   C     0.82577   0.16841   0.52348   0.00000  Uiso   1.00
Cu715  Cu    0.71355   0.16667   0.75000   0.00000  Uiso   1.00
Cu716  Cu    0.95311   0.16666   0.75000   0.00000  Uiso   1.00
H717   H     0.93407   0.19707   0.54094   0.00000  Uiso   1.00
H718   H     0.73260   0.13627   0.95906   0.00000  Uiso   1.00
H719   H     0.66791   0.19052   0.97200   0.00000  Uiso   1.00
H720   H     0.99875   0.14282   0.52800   0.00000  Uiso   1.00
H721   H     0.84845   0.19210   0.57983   0.00000  Uiso   1.00
H722   H     0.81822   0.14123   0.92017   0.00000  Uiso   1.00
H723   H     0.95248   0.29390   0.70844   0.00000  Uiso   1.00
H724   H     0.71418   0.03943   0.79156   0.00000  Uiso   1.00
H725   H     0.86015   0.12385   0.80325   0.00000  Uiso   1.00
H726   H     0.80651   0.20948   0.69675   0.00000  Uiso   1.00
H727   H     0.77312   0.12392   0.80326   0.00000  Uiso   1.00
H728   H     0.89355   0.20942   0.69674   0.00000  Uiso   1.00
N729   N     0.78403   0.16668   0.74999   0.00000  Uiso   1.00
N730   N     0.88264   0.16666   0.75001   0.00000  Uiso   1.00
O731   O     0.70625   0.10655   0.75000   0.00000  Uiso   1.00
O732   O     0.96042   0.22678   0.75000   0.00000  Uiso   1.00
O733   O     0.96039   0.10654   0.75001   0.00000  Uiso   1.00
O734   O     0.70628   0.22679   0.74999   0.00000  Uiso   1.00
O735   O     0.68519   0.16668   0.81491   0.00000  Uiso   1.00
O736   O     0.98148   0.16666   0.68509   0.00000  Uiso   1.00
O737   O     0.93933   0.16667   0.81492   0.00000  Uiso   1.00
O738   O     0.72733   0.16667   0.68508   0.00000  Uiso   1.00
Cl739  Cl    0.79993   0.12940   0.62067   0.00000  Uiso   1.00
Cl740  Cl    0.86674   0.20393   0.87933   0.00000  Uiso   1.00
H741   H     0.97096   0.15624   0.60775   0.00000  Uiso   1.00
H742   H     0.69570   0.17709   0.89225   0.00000  Uiso   1.00
Cl743  Cl    0.94042   0.04430   0.69172   0.00000  Uiso   1.00
Cl744  Cl    0.72624   0.28903   0.80828   0.00000  Uiso   1.00
C745   C     0.00012   0.42075   0.74908   0.00000  Uiso   1.00
C746   C     0.33322   0.57925   0.75092   0.00000  Uiso   1.00
C747   C     0.19286   0.51682   0.54521   0.00000  Uiso   1.00
C748   C     0.14047   0.48318   0.95479   0.00000  Uiso   1.00
C749   C     0.24202   0.52121   0.52265   0.00000  Uiso   1.00
C750   C     0.09131   0.47879   0.97734   0.00000  Uiso   1.00
C751   C     0.30612   0.35381   0.72538   0.00000  Uiso   1.00
C752   C     0.02722   0.64619   0.77462   0.00000  Uiso   1.00
C753   C     0.30621   0.64444   0.72697   0.00000  Uiso   1.00
C754   C     0.02712   0.35556   0.77303   0.00000  Uiso   1.00
C755   C     0.00006   0.62385   0.75120   0.00000  Uiso   1.00
C756   C     0.33328   0.37615   0.74880   0.00000  Uiso   1.00
C757   C     0.18220   0.47626   0.77959   0.00000  Uiso   1.00
C758   C     0.15113   0.52374   0.72041   0.00000  Uiso   1.00
C759   C     0.13258   0.47629   0.77960   0.00000  Uiso   1.00
C760   C     0.20075   0.52371   0.72040   0.00000  Uiso   1.00
C761   C     0.30565   0.50273   0.83576   0.00000  Uiso   1.00
C762   C     0.02768   0.49727   0.66424   0.00000  Uiso   1.00
C763   C     0.28937   0.50816   0.88425   0.00000  Uiso   1.00
C764   C     0.04396   0.49184   0.61575   0.00000  Uiso   1.00
C765   C     0.30779   0.51758   0.95434   0.00000  Uiso   1.00
C766   C     0.02554   0.48242   0.54566   0.00000  Uiso   1.00
C767   C     0.32355   0.51102   0.90868   0.00000  Uiso   1.00
C768   C     0.00979   0.48898   0.59132   0.00000  Uiso   1.00
C769   C     0.23922   0.51225   0.90650   0.00000  Uiso   1.00
C770   C     0.09411   0.48775   0.59350   0.00000  Uiso   1.00
C771   C     0.22339   0.50782   0.95300   0.00000  Uiso   1.00
C772   C     0.10994   0.49218   0.54700   0.00000  Uiso   1.00
C773   C     0.25797   0.51499   0.97691   0.00000  Uiso   1.00
C774   C     0.07536   0.48501   0.52309   0.00000  Uiso   1.00
C775   C     0.17423   0.49826   0.97652   0.00000  Uiso   1.00
C776   C     0.15910   0.50174   0.52348   0.00000  Uiso   1.00
Cu777  Cu    0.04689   0.50001   0.75000   0.00000  Uiso   1.00
Cu778  Cu    0.28645   0.49999   0.75000   0.00000  Uiso   1.00
H779   H     0.26740   0.53040   0.54094   0.00000  Uiso   1.00
H780   H     0.06593   0.46960   0.95906   0.00000  Uiso   1.00
H781   H     0.00125   0.52385   0.97200   0.00000  Uiso   1.00
H782   H     0.33209   0.47615   0.52800   0.00000  Uiso   1.00
H783   H     0.18178   0.52543   0.57983   0.00000  Uiso   1.00
H784   H     0.15155   0.47457   0.92017   0.00000  Uiso   1.00
H785   H     0.28582   0.62724   0.70844   0.00000  Uiso   1.00
H786   H     0.04752   0.37276   0.79156   0.00000  Uiso   1.00
H787   H     0.19348   0.45719   0.80325   0.00000  Uiso   1.00
H788   H     0.13985   0.54281   0.69675   0.00000  Uiso   1.00
H789   H     0.10645   0.45725   0.80326   0.00000  Uiso   1.00
H790   H     0.22688   0.54275   0.69674   0.00000  Uiso   1.00
N791   N     0.11736   0.50001   0.74999   0.00000  Uiso   1.00
N792   N     0.21597   0.49999   0.75001   0.00000  Uiso   1.00
O793   O     0.03958   0.43989   0.75000   0.00000  Uiso   1.00
O794   O     0.29375   0.56011   0.75000   0.00000  Uiso   1.00
O795   O     0.29372   0.43988   0.75001   0.00000  Uiso   1.00
O796   O     0.03961   0.56012   0.74999   0.00000  Uiso   1.00
O797   O     0.01852   0.50001   0.81491   0.00000  Uiso   1.00
O798   O     0.31481   0.49999   0.68509   0.00000  Uiso   1.00
O799   O     0.27267   0.50000   0.81492   0.00000  Uiso   1.00
O800   O     0.06067   0.50000   0.68508   0.00000  Uiso   1.00
Cl801  Cl    0.13326   0.46273   0.62067   0.00000  Uiso   1.00
Cl802  Cl    0.20007   0.53727   0.87933   0.00000  Uiso   1.00
H803   H     0.30430   0.48957   0.60775   0.00000  Uiso   1.00
H804   H     0.02904   0.51043   0.89225   0.00000  Uiso   1.00
Cl805  Cl    0.27375   0.37763   0.69172   0.00000  Uiso   1.00
Cl806  Cl    0.05958   0.62237   0.80828   0.00000  Uiso   1.00
C807   C     0.33345   0.42075   0.74908   0.00000  Uiso   1.00
C808   C     0.66655   0.57925   0.75092   0.00000  Uiso   1.00
C809   C     0.52619   0.51682   0.54521   0.00000  Uiso   1.00
C810   C     0.47381   0.48318   0.95479   0.00000  Uiso   1.00
C811   C     0.57535   0.52121   0.52265   0.00000  Uiso   1.00
C812   C     0.42465   0.47879   0.97734   0.00000  Uiso   1.00
C813   C     0.63945   0.35381   0.72538   0.00000  Uiso   1.00
C814   C     0.36055   0.64619   0.77462   0.00000  Uiso   1.00
C815   C     0.63955   0.64444   0.72697   0.00000  Uiso   1.00
C816   C     0.36045   0.35556   0.77303   0.00000  Uiso   1.00
C817   C     0.33339   0.62385   0.75120   0.00000  Uiso   1.00
C818   C     0.66661   0.37615   0.74880   0.00000  Uiso   1.00
C819   C     0.51553   0.47626   0.77959   0.00000  Uiso   1.00
C820   C     0.48446   0.52374   0.72041   0.00000  Uiso   1.00
C821   C     0.46591   0.47629   0.77960   0.00000  Uiso   1.00
C822   C     0.53409   0.52371   0.72040   0.00000  Uiso   1.00
C823   C     0.63898   0.50273   0.83576   0.00000  Uiso   1.00
C824   C     0.36102   0.49727   0.66424   0.00000  Uiso   1.00
C825   C     0.62270   0.50816   0.88425   0.00000  Uiso   1.00
C826   C     0.37730   0.49184   0.61575   0.00000  Uiso   1.00
C827   C     0.64112   0.51758   0.95434   0.00000  Uiso   1.00
C828   C     0.35887   0.48242   0.54566   0.00000  Uiso   1.00
C829   C     0.65688   0.51102   0.90868   0.00000  Uiso   1.00
C830   C     0.34312   0.48898   0.59132   0.00000  Uiso   1.00
C831   C     0.57255   0.51225   0.90650   0.00000  Uiso   1.00
C832   C     0.42745   0.48775   0.59350   0.00000  Uiso   1.00
C833   C     0.55672   0.50782   0.95300   0.00000  Uiso   1.00
C834   C     0.44328   0.49218   0.54700   0.00000  Uiso   1.00
C835   C     0.59130   0.51499   0.97691   0.00000  Uiso   1.00
C836   C     0.40870   0.48501   0.52309   0.00000  Uiso   1.00
C837   C     0.50756   0.49826   0.97652   0.00000  Uiso   1.00
C838   C     0.49244   0.50174   0.52348   0.00000  Uiso   1.00
Cu839  Cu    0.38022   0.50001   0.75000   0.00000  Uiso   1.00
Cu840  Cu    0.61978   0.49999   0.75000   0.00000  Uiso   1.00
H841   H     0.60074   0.53040   0.54094   0.00000  Uiso   1.00
H842   H     0.39926   0.46960   0.95906   0.00000  Uiso   1.00
H843   H     0.33458   0.52385   0.97200   0.00000  Uiso   1.00
H844   H     0.66542   0.47615   0.52800   0.00000  Uiso   1.00
H845   H     0.51511   0.52543   0.57983   0.00000  Uiso   1.00
H846   H     0.48489   0.47457   0.92017   0.00000  Uiso   1.00
H847   H     0.61915   0.62724   0.70844   0.00000  Uiso   1.00
H848   H     0.38085   0.37276   0.79156   0.00000  Uiso   1.00
H849   H     0.52682   0.45719   0.80325   0.00000  Uiso   1.00
H850   H     0.47318   0.54281   0.69675   0.00000  Uiso   1.00
H851   H     0.43979   0.45725   0.80326   0.00000  Uiso   1.00
H852   H     0.56021   0.54275   0.69674   0.00000  Uiso   1.00
N853   N     0.45069   0.50001   0.74999   0.00000  Uiso   1.00
N854   N     0.54931   0.49999   0.75001   0.00000  Uiso   1.00
O855   O     0.37291   0.43989   0.75000   0.00000  Uiso   1.00
O856   O     0.62709   0.56011   0.75000   0.00000  Uiso   1.00
O857   O     0.62706   0.43988   0.75001   0.00000  Uiso   1.00
O858   O     0.37294   0.56012   0.74999   0.00000  Uiso   1.00
O859   O     0.35186   0.50001   0.81491   0.00000  Uiso   1.00
O860   O     0.64814   0.49999   0.68509   0.00000  Uiso   1.00
O861   O     0.60600   0.50000   0.81492   0.00000  Uiso   1.00
O862   O     0.39400   0.50000   0.68508   0.00000  Uiso   1.00
Cl863  Cl    0.46660   0.46273   0.62067   0.00000  Uiso   1.00
Cl864  Cl    0.53340   0.53727   0.87933   0.00000  Uiso   1.00
H865   H     0.63763   0.48957   0.60775   0.00000  Uiso   1.00
H866   H     0.36237   0.51043   0.89225   0.00000  Uiso   1.00
Cl867  Cl    0.60709   0.37763   0.69172   0.00000  Uiso   1.00
Cl868  Cl    0.39291   0.62237   0.80828   0.00000  Uiso   1.00
C869   C     0.66678   0.42075   0.74908   0.00000  Uiso   1.00
C870   C     0.99988   0.57925   0.75092   0.00000  Uiso   1.00
C871   C     0.85953   0.51682   0.54521   0.00000  Uiso   1.00
C872   C     0.80714   0.48318   0.95479   0.00000  Uiso   1.00
C873   C     0.90869   0.52121   0.52265   0.00000  Uiso   1.00
C874   C     0.75798   0.47879   0.97734   0.00000  Uiso   1.00
C875   C     0.97278   0.35381   0.72538   0.00000  Uiso   1.00
C876   C     0.69388   0.64619   0.77462   0.00000  Uiso   1.00
C877   C     0.97288   0.64444   0.72697   0.00000  Uiso   1.00
C878   C     0.69379   0.35556   0.77303   0.00000  Uiso   1.00
C879   C     0.66672   0.62385   0.75120   0.00000  Uiso   1.00
C880   C     0.99994   0.37615   0.74880   0.00000  Uiso   1.00
C881   C     0.84887   0.47626   0.77959   0.00000  Uiso   1.00
C882   C     0.81780   0.52374   0.72041   0.00000  Uiso   1.00
C883   C     0.79925   0.47629   0.77960   0.00000  Uiso   1.00
C884   C     0.86742   0.52371   0.72040   0.00000  Uiso   1.00
C885   C     0.97232   0.50273   0.83576   0.00000  Uiso   1.00
C886   C     0.69435   0.49727   0.66424   0.00000  Uiso   1.00
C887   C     0.95604   0.50816   0.88425   0.00000  Uiso   1.00
C888   C     0.71063   0.49184   0.61575   0.00000  Uiso   1.00
C889   C     0.97446   0.51758   0.95434   0.00000  Uiso   1.00
C890   C     0.69221   0.48242   0.54566   0.00000  Uiso   1.00
C891   C     0.99021   0.51102   0.90868   0.00000  Uiso   1.00
C892   C     0.67645   0.48898   0.59132   0.00000  Uiso   1.00
C893   C     0.90589   0.51225   0.90650   0.00000  Uiso   1.00
C894   C     0.76078   0.48775   0.59350   0.00000  Uiso   1.00
C895   C     0.89006   0.50782   0.95300   0.00000  Uiso   1.00
C896   C     0.77661   0.49218   0.54700   0.00000  Uiso   1.00
C897   C     0.92464   0.51499   0.97691   0.00000  Uiso   1.00
C898   C     0.74203   0.48501   0.52309   0.00000  Uiso   1.00
C899   C     0.84090   0.49826   0.97652   0.00000  Uiso   1.00
C900   C     0.82577   0.50174   0.52348   0.00000  Uiso   1.00
Cu901  Cu    0.71355   0.50001   0.75000   0.00000  Uiso   1.00
Cu902  Cu    0.95311   0.49999   0.75000   0.00000  Uiso   1.00
H903   H     0.93407   0.53040   0.54094   0.00000  Uiso   1.00
H904   H     0.73260   0.46960   0.95906   0.00000  Uiso   1.00
H905   H     0.66791   0.52385   0.97200   0.00000  Uiso   1.00
H906   H     0.99875   0.47615   0.52800   0.00000  Uiso   1.00
H907   H     0.84845   0.52543   0.57983   0.00000  Uiso   1.00
H908   H     0.81822   0.47457   0.92017   0.00000  Uiso   1.00
H909   H     0.95248   0.62724   0.70844   0.00000  Uiso   1.00
H910   H     0.71418   0.37276   0.79156   0.00000  Uiso   1.00
H911   H     0.86015   0.45719   0.80325   0.00000  Uiso   1.00
H912   H     0.80651   0.54281   0.69675   0.00000  Uiso   1.00
H913   H     0.77312   0.45725   0.80326   0.00000  Uiso   1.00
H914   H     0.89355   0.54275   0.69674   0.00000  Uiso   1.00
N915   N     0.78403   0.50001   0.74999   0.00000  Uiso   1.00
N916   N     0.88264   0.49999   0.75001   0.00000  Uiso   1.00
O917   O     0.70625   0.43989   0.75000   0.00000  Uiso   1.00
O918   O     0.96042   0.56011   0.75000   0.00000  Uiso   1.00
O919   O     0.96039   0.43988   0.75001   0.00000  Uiso   1.00
O920   O     0.70628   0.56012   0.74999   0.00000  Uiso   1.00
O921   O     0.68519   0.50001   0.81491   0.00000  Uiso   1.00
O922   O     0.98148   0.49999   0.68509   0.00000  Uiso   1.00
O923   O     0.93933   0.50000   0.81492   0.00000  Uiso   1.00
O924   O     0.72733   0.50000   0.68508   0.00000  Uiso   1.00
Cl925  Cl    0.79993   0.46273   0.62067   0.00000  Uiso   1.00
Cl926  Cl    0.86674   0.53727   0.87933   0.00000  Uiso   1.00
H927   H     0.97096   0.48957   0.60775   0.00000  Uiso   1.00
H928   H     0.69570   0.51043   0.89225   0.00000  Uiso   1.00
Cl929  Cl    0.94042   0.37763   0.69172   0.00000  Uiso   1.00
Cl930  Cl    0.72624   0.62237   0.80828   0.00000  Uiso   1.00
C931   C     0.00012   0.75408   0.74908   0.00000  Uiso   1.00
C932   C     0.33322   0.91259   0.75092   0.00000  Uiso   1.00
C933   C     0.19286   0.85016   0.54521   0.00000  Uiso   1.00
C934   C     0.14047   0.81651   0.95479   0.00000  Uiso   1.00
C935   C     0.24202   0.85454   0.52265   0.00000  Uiso   1.00
C936   C     0.09131   0.81213   0.97734   0.00000  Uiso   1.00
C937   C     0.30612   0.68714   0.72538   0.00000  Uiso   1.00
C938   C     0.02722   0.97952   0.77462   0.00000  Uiso   1.00
C939   C     0.30621   0.97777   0.72697   0.00000  Uiso   1.00
C940   C     0.02712   0.68889   0.77303   0.00000  Uiso   1.00
C941   C     0.00006   0.95719   0.75120   0.00000  Uiso   1.00
C942   C     0.33328   0.70948   0.74880   0.00000  Uiso   1.00
C943   C     0.18220   0.80959   0.77959   0.00000  Uiso   1.00
C944   C     0.15113   0.85708   0.72041   0.00000  Uiso   1.00
C945   C     0.13258   0.80962   0.77960   0.00000  Uiso   1.00
C946   C     0.20075   0.85705   0.72040   0.00000  Uiso   1.00
C947   C     0.30565   0.83607   0.83576   0.00000  Uiso   1.00
C948   C     0.02768   0.83060   0.66424   0.00000  Uiso   1.00
C949   C     0.28937   0.84149   0.88425   0.00000  Uiso   1.00
C950   C     0.04396   0.82518   0.61575   0.00000  Uiso   1.00
C951   C     0.30779   0.85092   0.95434   0.00000  Uiso   1.00
C952   C     0.02554   0.81575   0.54566   0.00000  Uiso   1.00
C953   C     0.32355   0.84435   0.90868   0.00000  Uiso   1.00
C954   C     0.00979   0.82231   0.59132   0.00000  Uiso   1.00
C955   C     0.23922   0.84558   0.90650   0.00000  Uiso   1.00
C956   C     0.09411   0.82108   0.59350   0.00000  Uiso   1.00
C957   C     0.22339   0.84115   0.95300   0.00000  Uiso   1.00
C958   C     0.10994   0.82552   0.54700   0.00000  Uiso   1.00
C959   C     0.25797   0.84833   0.97691   0.00000  Uiso   1.00
C960   C     0.07536   0.81834   0.52309   0.00000  Uiso   1.00
C961   C     0.17423   0.83159   0.97652   0.00000  Uiso   1.00
C962   C     0.15910   0.83508   0.52348   0.00000  Uiso   1.00
Cu963  Cu    0.04689   0.83334   0.75000   0.00000  Uiso   1.00
Cu964  Cu    0.28645   0.83333   0.75000   0.00000  Uiso   1.00
H965   H     0.26740   0.86373   0.54094   0.00000  Uiso   1.00
H966   H     0.06593   0.80294   0.95906   0.00000  Uiso   1.00
H967   H     0.00125   0.85718   0.97200   0.00000  Uiso   1.00
H968   H     0.33209   0.80948   0.52800   0.00000  Uiso   1.00
H969   H     0.18178   0.85877   0.57983   0.00000  Uiso   1.00
H970   H     0.15155   0.80790   0.92017   0.00000  Uiso   1.00
H971   H     0.28582   0.96057   0.70844   0.00000  Uiso   1.00
H972   H     0.04752   0.70610   0.79156   0.00000  Uiso   1.00
H973   H     0.19348   0.79052   0.80325   0.00000  Uiso   1.00
H974   H     0.13985   0.87615   0.69675   0.00000  Uiso   1.00
H975   H     0.10645   0.79058   0.80326   0.00000  Uiso   1.00
H976   H     0.22688   0.87608   0.69674   0.00000  Uiso   1.00
N977   N     0.11736   0.83334   0.74999   0.00000  Uiso   1.00
N978   N     0.21597   0.83332   0.75001   0.00000  Uiso   1.00
O979   O     0.03958   0.77322   0.75000   0.00000  Uiso   1.00
O980   O     0.29375   0.89345   0.75000   0.00000  Uiso   1.00
O981   O     0.29372   0.77321   0.75001   0.00000  Uiso   1.00
O982   O     0.03961   0.89346   0.74999   0.00000  Uiso   1.00
O983   O     0.01852   0.83334   0.81491   0.00000  Uiso   1.00
O984   O     0.31481   0.83332   0.68509   0.00000  Uiso   1.00
O985   O     0.27267   0.83333   0.81492   0.00000  Uiso   1.00
O986   O     0.06067   0.83333   0.68508   0.00000  Uiso   1.00
Cl987  Cl    0.13326   0.79607   0.62067   0.00000  Uiso   1.00
Cl988  Cl    0.20007   0.87060   0.87933   0.00000  Uiso   1.00
H989   H     0.30430   0.82291   0.60775   0.00000  Uiso   1.00
H990   H     0.02904   0.84376   0.89225   0.00000  Uiso   1.00
Cl991  Cl    0.27375   0.71097   0.69172   0.00000  Uiso   1.00
Cl992  Cl    0.05958   0.95570   0.80828   0.00000  Uiso   1.00
C993   C     0.33345   0.75408   0.74908   0.00000  Uiso   1.00
C994   C     0.66655   0.91259   0.75092   0.00000  Uiso   1.00
C995   C     0.52619   0.85016   0.54521   0.00000  Uiso   1.00
C996   C     0.47381   0.81651   0.95479   0.00000  Uiso   1.00
C997   C     0.57535   0.85454   0.52265   0.00000  Uiso   1.00
C998   C     0.42465   0.81213   0.97734   0.00000  Uiso   1.00
C999   C     0.63945   0.68714   0.72538   0.00000  Uiso   1.00
C1000  C     0.36055   0.97952   0.77462   0.00000  Uiso   1.00
C1001  C     0.63955   0.97777   0.72697   0.00000  Uiso   1.00
C1002  C     0.36045   0.68889   0.77303   0.00000  Uiso   1.00
C1003  C     0.33339   0.95719   0.75120   0.00000  Uiso   1.00
C1004  C     0.66661   0.70948   0.74880   0.00000  Uiso   1.00
C1005  C     0.51553   0.80959   0.77959   0.00000  Uiso   1.00
C1006  C     0.48446   0.85708   0.72041   0.00000  Uiso   1.00
C1007  C     0.46591   0.80962   0.77960   0.00000  Uiso   1.00
C1008  C     0.53409   0.85705   0.72040   0.00000  Uiso   1.00
C1009  C     0.63898   0.83607   0.83576   0.00000  Uiso   1.00
C1010  C     0.36102   0.83060   0.66424   0.00000  Uiso   1.00
C1011  C     0.62270   0.84149   0.88425   0.00000  Uiso   1.00
C1012  C     0.37730   0.82518   0.61575   0.00000  Uiso   1.00
C1013  C     0.64112   0.85092   0.95434   0.00000  Uiso   1.00
C1014  C     0.35887   0.81575   0.54566   0.00000  Uiso   1.00
C1015  C     0.65688   0.84435   0.90868   0.00000  Uiso   1.00
C1016  C     0.34312   0.82231   0.59132   0.00000  Uiso   1.00
C1017  C     0.57255   0.84558   0.90650   0.00000  Uiso   1.00
C1018  C     0.42745   0.82108   0.59350   0.00000  Uiso   1.00
C1019  C     0.55672   0.84115   0.95300   0.00000  Uiso   1.00
C1020  C     0.44328   0.82552   0.54700   0.00000  Uiso   1.00
C1021  C     0.59130   0.84833   0.97691   0.00000  Uiso   1.00
C1022  C     0.40870   0.81834   0.52309   0.00000  Uiso   1.00
C1023  C     0.50756   0.83159   0.97652   0.00000  Uiso   1.00
C1024  C     0.49244   0.83508   0.52348   0.00000  Uiso   1.00
Cu1025 Cu    0.38022   0.83334   0.75000   0.00000  Uiso   1.00
Cu1026 Cu    0.61978   0.83333   0.75000   0.00000  Uiso   1.00
H1027  H     0.60074   0.86373   0.54094   0.00000  Uiso   1.00
H1028  H     0.39926   0.80294   0.95906   0.00000  Uiso   1.00
H1029  H     0.33458   0.85718   0.97200   0.00000  Uiso   1.00
H1030  H     0.66542   0.80948   0.52800   0.00000  Uiso   1.00
H1031  H     0.51511   0.85877   0.57983   0.00000  Uiso   1.00
H1032  H     0.48489   0.80790   0.92017   0.00000  Uiso   1.00
H1033  H     0.61915   0.96057   0.70844   0.00000  Uiso   1.00
H1034  H     0.38085   0.70610   0.79156   0.00000  Uiso   1.00
H1035  H     0.52682   0.79052   0.80325   0.00000  Uiso   1.00
H1036  H     0.47318   0.87615   0.69675   0.00000  Uiso   1.00
H1037  H     0.43979   0.79058   0.80326   0.00000  Uiso   1.00
H1038  H     0.56021   0.87608   0.69674   0.00000  Uiso   1.00
N1039  N     0.45069   0.83334   0.74999   0.00000  Uiso   1.00
N1040  N     0.54931   0.83332   0.75001   0.00000  Uiso   1.00
O1041  O     0.37291   0.77322   0.75000   0.00000  Uiso   1.00
O1042  O     0.62709   0.89345   0.75000   0.00000  Uiso   1.00
O1043  O     0.62706   0.77321   0.75001   0.00000  Uiso   1.00
O1044  O     0.37294   0.89346   0.74999   0.00000  Uiso   1.00
O1045  O     0.35186   0.83334   0.81491   0.00000  Uiso   1.00
O1046  O     0.64814   0.83332   0.68509   0.00000  Uiso   1.00
O1047  O     0.60600   0.83333   0.81492   0.00000  Uiso   1.00
O1048  O     0.39400   0.83333   0.68508   0.00000  Uiso   1.00
Cl1049 Cl    0.46660   0.79607   0.62067   0.00000  Uiso   1.00
Cl1050 Cl    0.53340   0.87060   0.87933   0.00000  Uiso   1.00
H1051  H     0.63763   0.82291   0.60775   0.00000  Uiso   1.00
H1052  H     0.36237   0.84376   0.89225   0.00000  Uiso   1.00
Cl1053 Cl    0.60709   0.71097   0.69172   0.00000  Uiso   1.00
Cl1054 Cl    0.39291   0.95570   0.80828   0.00000  Uiso   1.00
C1055  C     0.66678   0.75408   0.74908   0.00000  Uiso   1.00
C1056  C     0.99988   0.91259   0.75092   0.00000  Uiso   1.00
C1057  C     0.85953   0.85016   0.54521   0.00000  Uiso   1.00
C1058  C     0.80714   0.81651   0.95479   0.00000  Uiso   1.00
C1059  C     0.90869   0.85454   0.52265   0.00000  Uiso   1.00
C1060  C     0.75798   0.81213   0.97734   0.00000  Uiso   1.00
C1061  C     0.97278   0.68714   0.72538   0.00000  Uiso   1.00
C1062  C     0.69388   0.97952   0.77462   0.00000  Uiso   1.00
C1063  C     0.97288   0.97777   0.72697   0.00000  Uiso   1.00
C1064  C     0.69379   0.68889   0.77303   0.00000  Uiso   1.00
C1065  C     0.66672   0.95719   0.75120   0.00000  Uiso   1.00
C1066  C     0.99994   0.70948   0.74880   0.00000  Uiso   1.00
C1067  C     0.84887   0.80959   0.77959   0.00000  Uiso   1.00
C1068  C     0.81780   0.85708   0.72041   0.00000  Uiso   1.00
C1069  C     0.79925   0.80962   0.77960   0.00000  Uiso   1.00
C1070  C     0.86742   0.85705   0.72040   0.00000  Uiso   1.00
C1071  C     0.97232   0.83607   0.83576   0.00000  Uiso   1.00
C1072  C     0.69435   0.83060   0.66424   0.00000  Uiso   1.00
C1073  C     0.95604   0.84149   0.88425   0.00000  Uiso   1.00
C1074  C     0.71063   0.82518   0.61575   0.00000  Uiso   1.00
C1075  C     0.97446   0.85092   0.95434   0.00000  Uiso   1.00
C1076  C     0.69221   0.81575   0.54566   0.00000  Uiso   1.00
C1077  C     0.99021   0.84435   0.90868   0.00000  Uiso   1.00
C1078  C     0.67645   0.82231   0.59132   0.00000  Uiso   1.00
C1079  C     0.90589   0.84558   0.90650   0.00000  Uiso   1.00
C1080  C     0.76078   0.82108   0.59350   0.00000  Uiso   1.00
C1081  C     0.89006   0.84115   0.95300   0.00000  Uiso   1.00
C1082  C     0.77661   0.82552   0.54700   0.00000  Uiso   1.00
C1083  C     0.92464   0.84833   0.97691   0.00000  Uiso   1.00
C1084  C     0.74203   0.81834   0.52309   0.00000  Uiso   1.00
C1085  C     0.84090   0.83159   0.97652   0.00000  Uiso   1.00
C1086  C     0.82577   0.83508   0.52348   0.00000  Uiso   1.00
Cu1087 Cu    0.71355   0.83334   0.75000   0.00000  Uiso   1.00
Cu1088 Cu    0.95311   0.83333   0.75000   0.00000  Uiso   1.00
H1089  H     0.93407   0.86373   0.54094   0.00000  Uiso   1.00
H1090  H     0.73260   0.80294   0.95906   0.00000  Uiso   1.00
H1091  H     0.66791   0.85718   0.97200   0.00000  Uiso   1.00
H1092  H     0.99875   0.80948   0.52800   0.00000  Uiso   1.00
H1093  H     0.84845   0.85877   0.57983   0.00000  Uiso   1.00
H1094  H     0.81822   0.80790   0.92017   0.00000  Uiso   1.00
H1095  H     0.95248   0.96057   0.70844   0.00000  Uiso   1.00
H1096  H     0.71418   0.70610   0.79156   0.00000  Uiso   1.00
H1097  H     0.86015   0.79052   0.80325   0.00000  Uiso   1.00
H1098  H     0.80651   0.87615   0.69675   0.00000  Uiso   1.00
H1099  H     0.77312   0.79058   0.80326   0.00000  Uiso   1.00
H1100  H     0.89355   0.87608   0.69674   0.00000  Uiso   1.00
N1101  N     0.78403   0.83334   0.74999   0.00000  Uiso   1.00
N1102  N     0.88264   0.83332   0.75001   0.00000  Uiso   1.00
O1103  O     0.70625   0.77322   0.75000   0.00000  Uiso   1.00
O1104  O     0.96042   0.89345   0.75000   0.00000  Uiso   1.00
O1105  O     0.96039   0.77321   0.75001   0.00000  Uiso   1.00
O1106  O     0.70628   0.89346   0.74999   0.00000  Uiso   1.00
O1107  O     0.68519   0.83334   0.81491   0.00000  Uiso   1.00
O1108  O     0.98148   0.83332   0.68509   0.00000  Uiso   1.00
O1109  O     0.93933   0.83333   0.81492   0.00000  Uiso   1.00
O1110  O     0.72733   0.83333   0.68508   0.00000  Uiso   1.00
Cl1111 Cl    0.79993   0.79607   0.62067   0.00000  Uiso   1.00
Cl1112 Cl    0.86674   0.87060   0.87933   0.00000  Uiso   1.00
H1113  H     0.97096   0.82291   0.60775   0.00000  Uiso   1.00
H1114  H     0.69570   0.84376   0.89225   0.00000  Uiso   1.00
Cl1115 Cl    0.94042   0.71097   0.69172   0.00000  Uiso   1.00
Cl1116 Cl    0.72624   0.95570   0.80828   0.00000  Uiso   1.00
loop_
_geom_bond_atom_site_label_1
_geom_bond_atom_site_label_2
_geom_bond_distance
_geom_bond_site_symmetry_2
_ccdc_geom_bond_type
C1     O49     1.291   .     A
C1     C136    1.446   1_455 S
C1     O175    1.288   1_455 S
C2     O50     1.291   .     A
C2     C73     1.446   .     S
C2     O114    1.288   .     S
C3     H39     1.080   .     S
C3     C32     1.413   .     A
C3     C5      1.389   .     A
C4     C31     1.413   .     A
C4     C6      1.389   .     A
C4     H40     1.080   .     S
C5     H35     1.084   .     S
C5     C587    1.393   1_554 S
C6     H36     1.084   .     S
C6     C588    1.393   .     S
C7     C12     1.407   .     A
C7     Cl61    1.764   .     S
C7     C381    1.385   1_545 S
C8     C11     1.407   .     A
C8     Cl62    1.764   .     S
C8     C196    1.385   .     S
C9     H41     1.084   .     S
C9     C193    1.385   .     S
C9     C73     1.399   .     S
C10    H42     1.084   .     S
C10    C380    1.385   1_545 S
C10    C136    1.399   1_455 S
C11    C133    1.399   1_455 S
C11    C126    1.446   1_455 S
C12    C63     1.446   .     S
C12    C72     1.399   .     S
C13    N48     1.367   .     A
C13    C15     1.416   .     A
C13    H43     1.082   .     S
C14    N47     1.367   .     A
C14    C16     1.416   .     A
C14    H44     1.082   .     S
C15    N47     1.367   .     A
C15    H45     1.082   .     S
C16    N48     1.367   .     A
C16    H46     1.082   .     S
C17    O55     1.291   .     A
C17    C19     1.471   .     S
C17    O115    1.301   .     S
C18    O56     1.291   .     A
C18    C20     1.471   .     S
C18    O178    1.301   1_455 S
C19    C23     1.402   .     A
C19    C25     1.412   .     A
C20    C26     1.412   .     A
C20    C24     1.402   .     A
C21    C23     1.392   .     A
C21    C29     1.401   .     A
C21    H99     1.081   .     S
C22    C24     1.392   .     A
C22    C30     1.401   .     A
C22    H162    1.081   1_455 S
C23    H122    1.083   .     S
C24    H183    1.083   1_455 S
C25    Cl58    1.781   .     S
C25    C27     1.407   .     A
C26    C28     1.407   .     A
C26    Cl57    1.781   .     S
C27    C29     1.415   .     A
C27    C31     1.422   .     A
C28    C30     1.415   .     A
C28    C32     1.422   .     A
C29    C563    1.393   .     S
C30    C564    1.393   1_554 S
C31    C590    1.418   .     S
C32    C589    1.418   1_554 S
Cu33   O56     1.962   .     S
Cu33   O52     1.961   .     S
Cu33   O53     1.968   .     S
Cu33   N47     2.011   .     S
Cu33   O49     1.959   .     S
Cu33   Cu158   2.676   1_455 S
Cu34   O55     1.962   .     S
Cu34   O51     1.961   .     S
Cu34   O54     1.968   .     S
Cu34   O50     1.959   .     S
Cu34   N48     2.011   .     S
Cu34   Cu95    2.676   .     S
H37    C145    1.081   1_455 S
H38    C84     1.081   .     S
O51    C63     1.288   .     S
O52    C126    1.288   1_455 S
O53    C141    1.301   1_455 S
O54    C80     1.301   .     S
H59    C86     1.083   .     S
H60    C147    1.083   1_455 S
C63    O111    1.291   .     A
C64    O112    1.291   .     A
C64    C135    1.446   .     S
C64    O176    1.288   .     S
C65    H101    1.080   .     S
C65    C94     1.413   .     A
C65    C67     1.389   .     A
C66    C93     1.413   .     A
C66    C68     1.389   .     A
C66    H102    1.080   .     S
C67    H97     1.084   .     S
C67    C649    1.393   1_554 S
C68    H98     1.084   .     S
C68    C650    1.393   .     S
C69    C74     1.407   .     A
C69    Cl123   1.764   .     S
C69    C443    1.385   1_545 S
C70    C73     1.407   .     A
C70    Cl124   1.764   .     S
C70    C258    1.385   .     S
C71    H103    1.084   .     S
C71    C255    1.385   .     S
C71    C135    1.399   .     S
C72    H104    1.084   .     S
C72    C442    1.385   1_545 S
C74    C125    1.446   .     S
C74    C134    1.399   .     S
C75    N110    1.367   .     A
C75    C77     1.416   .     A
C75    H105    1.082   .     S
C76    N109    1.367   .     A
C76    C78     1.416   .     A
C76    H106    1.082   .     S
C77    N109    1.367   .     A
C77    H107    1.082   .     S
C78    N110    1.367   .     A
C78    H108    1.082   .     S
C79    O117    1.291   .     A
C79    C81     1.471   .     S
C79    O177    1.301   .     S
C80    O118    1.291   .     A
C80    C82     1.471   .     S
C81    C85     1.402   .     A
C81    C87     1.412   .     A
C82    C88     1.412   .     A
C82    C86     1.402   .     A
C83    C85     1.392   .     A
C83    C91     1.401   .     A
C83    H161    1.081   .     S
C84    C86     1.392   .     A
C84    C92     1.401   .     A
C85    H184    1.083   .     S
C87    Cl120   1.781   .     S
C87    C89     1.407   .     A
C88    C90     1.407   .     A
C88    Cl119   1.781   .     S
C89    C91     1.415   .     A
C89    C93     1.422   .     A
C90    C92     1.415   .     A
C90    C94     1.422   .     A
C91    C625    1.393   .     S
C92    C626    1.393   1_554 S
C93    C652    1.418   .     S
C94    C651    1.418   1_554 S
Cu95   O118    1.962   .     S
Cu95   O114    1.961   .     S
Cu95   O115    1.968   .     S
Cu95   N109    2.011   .     S
Cu95   O111    1.959   .     S
Cu96   O117    1.962   .     S
Cu96   O113    1.961   .     S
Cu96   O116    1.968   .     S
Cu96   O112    1.959   .     S
Cu96   N110    2.011   .     S
Cu96   Cu157   2.676   .     S
H100   C146    1.081   .     S
O113   C125    1.288   .     S
O116   C142    1.301   .     S
H121   C148    1.083   .     S
C125   O173    1.291   .     A
C126   O174    1.291   .     A
C126   C11     1.446   1_655 S
C126   O52     1.288   1_655 S
C127   H163    1.080   .     S
C127   C156    1.413   .     A
C127   C129    1.389   .     A
C128   C155    1.413   .     A
C128   C130    1.389   .     A
C128   H164    1.080   .     S
C129   H159    1.084   .     S
C129   C711    1.393   1_554 S
C130   H160    1.084   .     S
C130   C712    1.393   .     S
C131   C136    1.407   .     A
C131   Cl185   1.764   .     S
C131   C505    1.385   1_545 S
C132   C135    1.407   .     A
C132   Cl186   1.764   .     S
C132   C320    1.385   .     S
C133   H165    1.084   .     S
C133   C317    1.385   .     S
C133   C11     1.399   1_655 S
C134   H166    1.084   .     S
C134   C504    1.385   1_545 S
C136   C1      1.446   1_655 S
C136   C10     1.399   1_655 S
C137   N172    1.367   .     A
C137   C139    1.416   .     A
C137   H167    1.082   .     S
C138   N171    1.367   .     A
C138   C140    1.416   .     A
C138   H168    1.082   .     S
C139   N171    1.367   .     A
C139   H169    1.082   .     S
C140   N172    1.367   .     A
C140   H170    1.082   .     S
C141   O179    1.291   .     A
C141   C143    1.471   .     S
C141   O53     1.301   1_655 S
C142   O180    1.291   .     A
C142   C144    1.471   .     S
C143   C147    1.402   .     A
C143   C149    1.412   .     A
C144   C150    1.412   .     A
C144   C148    1.402   .     A
C145   C147    1.392   .     A
C145   C153    1.401   .     A
C145   H37     1.081   1_655 S
C146   C148    1.392   .     A
C146   C154    1.401   .     A
C147   H60     1.083   1_655 S
C149   Cl182   1.781   .     S
C149   C151    1.407   .     A
C150   C152    1.407   .     A
C150   Cl181   1.781   .     S
C151   C153    1.415   .     A
C151   C155    1.422   .     A
C152   C154    1.415   .     A
C152   C156    1.422   .     A
C153   C687    1.393   .     S
C154   C688    1.393   1_554 S
C155   C714    1.418   .     S
C156   C713    1.418   1_554 S
Cu157  O180    1.962   .     S
Cu157  O176    1.961   .     S
Cu157  O177    1.968   .     S
Cu157  N171    2.011   .     S
Cu157  O173    1.959   .     S
Cu158  O179    1.962   .     S
Cu158  O175    1.961   .     S
Cu158  O178    1.968   .     S
Cu158  O174    1.959   .     S
Cu158  N172    2.011   .     S
Cu158  Cu33    2.676   1_655 S
H162   C22     1.081   1_655 S
O175   C1      1.288   1_655 S
O178   C18     1.301   1_655 S
H183   C24     1.083   1_655 S
C187   O235    1.291   .     A
C187   C322    1.446   1_455 S
C187   O361    1.288   1_455 S
C188   O236    1.291   .     A
C188   C259    1.446   .     S
C188   O300    1.288   .     S
C189   H225    1.080   .     S
C189   C218    1.413   .     A
C189   C191    1.389   .     A
C190   C217    1.413   .     A
C190   C192    1.389   .     A
C190   H226    1.080   .     S
C191   H221    1.084   .     S
C191   C773    1.393   1_554 S
C192   H222    1.084   .     S
C192   C774    1.393   .     S
C193   C198    1.407   .     A
C193   Cl247   1.764   .     S
C194   C197    1.407   .     A
C194   Cl248   1.764   .     S
C194   C382    1.385   .     S
C195   H227    1.084   .     S
C195   C379    1.385   .     S
C195   C259    1.399   .     S
C196   H228    1.084   .     S
C196   C322    1.399   1_455 S
C197   C319    1.399   1_455 S
C197   C312    1.446   1_455 S
C198   C249    1.446   .     S
C198   C258    1.399   .     S
C199   N234    1.367   .     A
C199   C201    1.416   .     A
C199   H229    1.082   .     S
C200   N233    1.367   .     A
C200   C202    1.416   .     A
C200   H230    1.082   .     S
C201   N233    1.367   .     A
C201   H231    1.082   .     S
C202   N234    1.367   .     A
C202   H232    1.082   .     S
C203   O241    1.291   .     A
C203   C205    1.471   .     S
C203   O301    1.301   .     S
C204   O242    1.291   .     A
C204   C206    1.471   .     S
C204   O364    1.301   1_455 S
C205   C209    1.402   .     A
C205   C211    1.412   .     A
C206   C212    1.412   .     A
C206   C210    1.402   .     A
C207   C209    1.392   .     A
C207   C215    1.401   .     A
C207   H285    1.081   .     S
C208   C210    1.392   .     A
C208   C216    1.401   .     A
C208   H348    1.081   1_455 S
C209   H308    1.083   .     S
C210   H369    1.083   1_455 S
C211   Cl244   1.781   .     S
C211   C213    1.407   .     A
C212   C214    1.407   .     A
C212   Cl243   1.781   .     S
C213   C215    1.415   .     A
C213   C217    1.422   .     A
C214   C216    1.415   .     A
C214   C218    1.422   .     A
C215   C749    1.393   .     S
C216   C750    1.393   1_554 S
C217   C776    1.418   .     S
C218   C775    1.418   1_554 S
Cu219  O242    1.962   .     S
Cu219  O238    1.961   .     S
Cu219  O239    1.968   .     S
Cu219  N233    2.011   .     S
Cu219  O235    1.959   .     S
Cu219  Cu344   2.676   1_455 S
Cu220  O241    1.962   .     S
Cu220  O237    1.961   .     S
Cu220  O240    1.968   .     S
Cu220  O236    1.959   .     S
Cu220  N234    2.011   .     S
Cu220  Cu281   2.676   .     S
H223   C331    1.081   1_455 S
H224   C270    1.081   .     S
O237   C249    1.288   .     S
O238   C312    1.288   1_455 S
O239   C327    1.301   1_455 S
O240   C266    1.301   .     S
H245   C272    1.083   .     S
H246   C333    1.083   1_455 S
C249   O297    1.291   .     A
C250   O298    1.291   .     A
C250   C321    1.446   .     S
C250   O362    1.288   .     S
C251   H287    1.080   .     S
C251   C280    1.413   .     A
C251   C253    1.389   .     A
C252   C279    1.413   .     A
C252   C254    1.389   .     A
C252   H288    1.080   .     S
C253   H283    1.084   .     S
C253   C835    1.393   1_554 S
C254   H284    1.084   .     S
C254   C836    1.393   .     S
C255   C260    1.407   .     A
C255   Cl309   1.764   .     S
C256   C259    1.407   .     A
C256   Cl310   1.764   .     S
C256   C444    1.385   .     S
C257   H289    1.084   .     S
C257   C441    1.385   .     S
C257   C321    1.399   .     S
C258   H290    1.084   .     S
C260   C311    1.446   .     S
C260   C320    1.399   .     S
C261   N296    1.367   .     A
C261   C263    1.416   .     A
C261   H291    1.082   .     S
C262   N295    1.367   .     A
C262   C264    1.416   .     A
C262   H292    1.082   .     S
C263   N295    1.367   .     A
C263   H293    1.082   .     S
C264   N296    1.367   .     A
C264   H294    1.082   .     S
C265   O303    1.291   .     A
C265   C267    1.471   .     S
C265   O363    1.301   .     S
C266   O304    1.291   .     A
C266   C268    1.471   .     S
C267   C271    1.402   .     A
C267   C273    1.412   .     A
C268   C274    1.412   .     A
C268   C272    1.402   .     A
C269   C271    1.392   .     A
C269   C277    1.401   .     A
C269   H347    1.081   .     S
C270   C272    1.392   .     A
C270   C278    1.401   .     A
C271   H370    1.083   .     S
C273   Cl306   1.781   .     S
C273   C275    1.407   .     A
C274   C276    1.407   .     A
C274   Cl305   1.781   .     S
C275   C277    1.415   .     A
C275   C279    1.422   .     A
C276   C278    1.415   .     A
C276   C280    1.422   .     A
C277   C811    1.393   .     S
C278   C812    1.393   1_554 S
C279   C838    1.418   .     S
C280   C837    1.418   1_554 S
Cu281  O304    1.962   .     S
Cu281  O300    1.961   .     S
Cu281  O301    1.968   .     S
Cu281  N295    2.011   .     S
Cu281  O297    1.959   .     S
Cu282  O303    1.962   .     S
Cu282  O299    1.961   .     S
Cu282  O302    1.968   .     S
Cu282  O298    1.959   .     S
Cu282  N296    2.011   .     S
Cu282  Cu343   2.676   .     S
H286   C332    1.081   .     S
O299   C311    1.288   .     S
O302   C328    1.301   .     S
H307   C334    1.083   .     S
C311   O359    1.291   .     A
C312   O360    1.291   .     A
C312   C197    1.446   1_655 S
C312   O238    1.288   1_655 S
C313   H349    1.080   .     S
C313   C342    1.413   .     A
C313   C315    1.389   .     A
C314   C341    1.413   .     A
C314   C316    1.389   .     A
C314   H350    1.080   .     S
C315   H345    1.084   .     S
C315   C897    1.393   1_554 S
C316   H346    1.084   .     S
C316   C898    1.393   .     S
C317   C322    1.407   .     A
C317   Cl371   1.764   .     S
C318   C321    1.407   .     A
C318   Cl372   1.764   .     S
C318   C506    1.385   .     S
C319   H351    1.084   .     S
C319   C503    1.385   .     S
C319   C197    1.399   1_655 S
C320   H352    1.084   .     S
C322   C187    1.446   1_655 S
C322   C196    1.399   1_655 S
C323   N358    1.367   .     A
C323   C325    1.416   .     A
C323   H353    1.082   .     S
C324   N357    1.367   .     A
C324   C326    1.416   .     A
C324   H354    1.082   .     S
C325   N357    1.367   .     A
C325   H355    1.082   .     S
C326   N358    1.367   .     A
C326   H356    1.082   .     S
C327   O365    1.291   .     A
C327   C329    1.471   .     S
C327   O239    1.301   1_655 S
C328   O366    1.291   .     A
C328   C330    1.471   .     S
C329   C333    1.402   .     A
C329   C335    1.412   .     A
C330   C336    1.412   .     A
C330   C334    1.402   .     A
C331   C333    1.392   .     A
C331   C339    1.401   .     A
C331   H223    1.081   1_655 S
C332   C334    1.392   .     A
C332   C340    1.401   .     A
C333   H246    1.083   1_655 S
C335   Cl368   1.781   .     S
C335   C337    1.407   .     A
C336   C338    1.407   .     A
C336   Cl367   1.781   .     S
C337   C339    1.415   .     A
C337   C341    1.422   .     A
C338   C340    1.415   .     A
C338   C342    1.422   .     A
C339   C873    1.393   .     S
C340   C874    1.393   1_554 S
C341   C900    1.418   .     S
C342   C899    1.418   1_554 S
Cu343  O366    1.962   .     S
Cu343  O362    1.961   .     S
Cu343  O363    1.968   .     S
Cu343  N357    2.011   .     S
Cu343  O359    1.959   .     S
Cu344  O365    1.962   .     S
Cu344  O361    1.961   .     S
Cu344  O364    1.968   .     S
Cu344  O360    1.959   .     S
Cu344  N358    2.011   .     S
Cu344  Cu219   2.676   1_655 S
H348   C208    1.081   1_655 S
O361   C187    1.288   1_655 S
O364   C204    1.301   1_655 S
H369   C210    1.083   1_655 S
C373   O421    1.291   .     A
C373   C508    1.446   1_455 S
C373   O547    1.288   1_455 S
C374   O422    1.291   .     A
C374   C445    1.446   .     S
C374   O486    1.288   .     S
C375   H411    1.080   .     S
C375   C404    1.413   .     A
C375   C377    1.389   .     A
C376   C403    1.413   .     A
C376   C378    1.389   .     A
C376   H412    1.080   .     S
C377   H407    1.084   .     S
C377   C959    1.393   1_554 S
C378   H408    1.084   .     S
C378   C960    1.393   .     S
C379   C384    1.407   .     A
C379   Cl433   1.764   .     S
C380   C383    1.407   .     A
C380   Cl434   1.764   .     S
C380   C10     1.385   1_565 S
C381   H413    1.084   .     S
C381   C7      1.385   1_565 S
C381   C445    1.399   .     S
C382   H414    1.084   .     S
C382   C508    1.399   1_455 S
C383   C505    1.399   1_455 S
C383   C498    1.446   1_455 S
C384   C435    1.446   .     S
C384   C444    1.399   .     S
C385   N420    1.367   .     A
C385   C387    1.416   .     A
C385   H415    1.082   .     S
C386   N419    1.367   .     A
C386   C388    1.416   .     A
C386   H416    1.082   .     S
C387   N419    1.367   .     A
C387   H417    1.082   .     S
C388   N420    1.367   .     A
C388   H418    1.082   .     S
C389   O427    1.291   .     A
C389   C391    1.471   .     S
C389   O487    1.301   .     S
C390   O428    1.291   .     A
C390   C392    1.471   .     S
C390   O550    1.301   1_455 S
C391   C395    1.402   .     A
C391   C397    1.412   .     A
C392   C398    1.412   .     A
C392   C396    1.402   .     A
C393   C395    1.392   .     A
C393   C401    1.401   .     A
C393   H471    1.081   .     S
C394   C396    1.392   .     A
C394   C402    1.401   .     A
C394   H534    1.081   1_455 S
C395   H494    1.083   .     S
C396   H555    1.083   1_455 S
C397   Cl430   1.781   .     S
C397   C399    1.407   .     A
C398   C400    1.407   .     A
C398   Cl429   1.781   .     S
C399   C401    1.415   .     A
C399   C403    1.422   .     A
C400   C402    1.415   .     A
C400   C404    1.422   .     A
C401   C935    1.393   .     S
C402   C936    1.393   1_554 S
C403   C962    1.418   .     S
C404   C961    1.418   1_554 S
Cu405  O428    1.962   .     S
Cu405  O424    1.961   .     S
Cu405  O425    1.968   .     S
Cu405  N419    2.011   .     S
Cu405  O421    1.959   .     S
Cu405  Cu530   2.676   1_455 S
Cu406  O427    1.962   .     S
Cu406  O423    1.961   .     S
Cu406  O426    1.968   .     S
Cu406  O422    1.959   .     S
Cu406  N420    2.011   .     S
Cu406  Cu467   2.676   .     S
H409   C517    1.081   1_455 S
H410   C456    1.081   .     S
O423   C435    1.288   .     S
O424   C498    1.288   1_455 S
O425   C513    1.301   1_455 S
O426   C452    1.301   .     S
H431   C458    1.083   .     S
H432   C519    1.083   1_455 S
C435   O483    1.291   .     A
C436   O484    1.291   .     A
C436   C507    1.446   .     S
C436   O548    1.288   .     S
C437   H473    1.080   .     S
C437   C466    1.413   .     A
C437   C439    1.389   .     A
C438   C465    1.413   .     A
C438   C440    1.389   .     A
C438   H474    1.080   .     S
C439   H469    1.084   .     S
C439   C1021   1.393   1_554 S
C440   H470    1.084   .     S
C440   C1022   1.393   .     S
C441   C446    1.407   .     A
C441   Cl495   1.764   .     S
C442   C445    1.407   .     A
C442   Cl496   1.764   .     S
C442   C72     1.385   1_565 S
C443   H475    1.084   .     S
C443   C69     1.385   1_565 S
C443   C507    1.399   .     S
C444   H476    1.084   .     S
C446   C497    1.446   .     S
C446   C506    1.399   .     S
C447   N482    1.367   .     A
C447   C449    1.416   .     A
C447   H477    1.082   .     S
C448   N481    1.367   .     A
C448   C450    1.416   .     A
C448   H478    1.082   .     S
C449   N481    1.367   .     A
C449   H479    1.082   .     S
C450   N482    1.367   .     A
C450   H480    1.082   .     S
C451   O489    1.291   .     A
C451   C453    1.471   .     S
C451   O549    1.301   .     S
C452   O490    1.291   .     A
C452   C454    1.471   .     S
C453   C457    1.402   .     A
C453   C459    1.412   .     A
C454   C460    1.412   .     A
C454   C458    1.402   .     A
C455   C457    1.392   .     A
C455   C463    1.401   .     A
C455   H533    1.081   .     S
C456   C458    1.392   .     A
C456   C464    1.401   .     A
C457   H556    1.083   .     S
C459   Cl492   1.781   .     S
C459   C461    1.407   .     A
C460   C462    1.407   .     A
C460   Cl491   1.781   .     S
C461   C463    1.415   .     A
C461   C465    1.422   .     A
C462   C464    1.415   .     A
C462   C466    1.422   .     A
C463   C997    1.393   .     S
C464   C998    1.393   1_554 S
C465   C1024   1.418   .     S
C466   C1023   1.418   1_554 S
Cu467  O490    1.962   .     S
Cu467  O486    1.961   .     S
Cu467  O487    1.968   .     S
Cu467  N481    2.011   .     S
Cu467  O483    1.959   .     S
Cu468  O489    1.962   .     S
Cu468  O485    1.961   .     S
Cu468  O488    1.968   .     S
Cu468  O484    1.959   .     S
Cu468  N482    2.011   .     S
Cu468  Cu529   2.676   .     S
H472   C518    1.081   .     S
O485   C497    1.288   .     S
O488   C514    1.301   .     S
H493   C520    1.083   .     S
C497   O545    1.291   .     A
C498   O546    1.291   .     A
C498   C383    1.446   1_655 S
C498   O424    1.288   1_655 S
C499   H535    1.080   .     S
C499   C528    1.413   .     A
C499   C501    1.389   .     A
C500   C527    1.413   .     A
C500   C502    1.389   .     A
C500   H536    1.080   .     S
C501   H531    1.084   .     S
C501   C1083   1.393   1_554 S
C502   H532    1.084   .     S
C502   C1084   1.393   .     S
C503   C508    1.407   .     A
C503   Cl557   1.764   .     S
C504   C507    1.407   .     A
C504   Cl558   1.764   .     S
C504   C134    1.385   1_565 S
C505   H537    1.084   .     S
C505   C131    1.385   1_565 S
C505   C383    1.399   1_655 S
C506   H538    1.084   .     S
C508   C373    1.446   1_655 S
C508   C382    1.399   1_655 S
C509   N544    1.367   .     A
C509   C511    1.416   .     A
C509   H539    1.082   .     S
C510   N543    1.367   .     A
C510   C512    1.416   .     A
C510   H540    1.082   .     S
C511   N543    1.367   .     A
C511   H541    1.082   .     S
C512   N544    1.367   .     A
C512   H542    1.082   .     S
C513   O551    1.291   .     A
C513   C515    1.471   .     S
C513   O425    1.301   1_655 S
C514   O552    1.291   .     A
C514   C516    1.471   .     S
C515   C519    1.402   .     A
C515   C521    1.412   .     A
C516   C522    1.412   .     A
C516   C520    1.402   .     A
C517   C519    1.392   .     A
C517   C525    1.401   .     A
C517   H409    1.081   1_655 S
C518   C520    1.392   .     A
C518   C526    1.401   .     A
C519   H432    1.083   1_655 S
C521   Cl554   1.781   .     S
C521   C523    1.407   .     A
C522   C524    1.407   .     A
C522   Cl553   1.781   .     S
C523   C525    1.415   .     A
C523   C527    1.422   .     A
C524   C526    1.415   .     A
C524   C528    1.422   .     A
C525   C1059   1.393   .     S
C526   C1060   1.393   1_554 S
C527   C1086   1.418   .     S
C528   C1085   1.418   1_554 S
Cu529  O552    1.962   .     S
Cu529  O548    1.961   .     S
Cu529  O549    1.968   .     S
Cu529  N543    2.011   .     S
Cu529  O545    1.959   .     S
Cu530  O551    1.962   .     S
Cu530  O547    1.961   .     S
Cu530  O550    1.968   .     S
Cu530  O546    1.959   .     S
Cu530  N544    2.011   .     S
Cu530  Cu405   2.676   1_655 S
H534   C394    1.081   1_655 S
O547   C373    1.288   1_655 S
O550   C390    1.301   1_655 S
H555   C396    1.083   1_655 S
C559   O607    1.291   .     A
C559   C694    1.446   1_455 S
C559   O733    1.288   1_455 S
C560   O608    1.291   .     A
C560   C631    1.446   .     S
C560   O672    1.288   .     S
C561   H597    1.080   .     S
C561   C590    1.413   .     A
C561   C563    1.389   .     A
C562   C589    1.413   .     A
C562   C564    1.389   .     A
C562   H598    1.080   .     S
C563   H593    1.084   .     S
C564   H594    1.084   .     S
C564   C30     1.393   1_556 S
C565   C570    1.407   .     A
C565   Cl619   1.764   .     S
C565   C939    1.385   1_545 S
C566   C569    1.407   .     A
C566   Cl620   1.764   .     S
C566   C754    1.385   .     S
C567   H599    1.084   .     S
C567   C751    1.385   .     S
C567   C631    1.399   .     S
C568   H600    1.084   .     S
C568   C938    1.385   1_545 S
C568   C694    1.399   1_455 S
C569   C691    1.399   1_455 S
C569   C684    1.446   1_455 S
C570   C621    1.446   .     S
C570   C630    1.399   .     S
C571   N606    1.367   .     A
C571   C573    1.416   .     A
C571   H601    1.082   .     S
C572   N605    1.367   .     A
C572   C574    1.416   .     A
C572   H602    1.082   .     S
C573   N605    1.367   .     A
C573   H603    1.082   .     S
C574   N606    1.367   .     A
C574   H604    1.082   .     S
C575   O613    1.291   .     A
C575   C577    1.471   .     S
C575   O673    1.301   .     S
C576   O614    1.291   .     A
C576   C578    1.471   .     S
C576   O736    1.301   1_455 S
C577   C581    1.402   .     A
C577   C583    1.412   .     A
C578   C584    1.412   .     A
C578   C582    1.402   .     A
C579   C581    1.392   .     A
C579   C587    1.401   .     A
C579   H657    1.081   .     S
C580   C582    1.392   .     A
C580   C588    1.401   .     A
C580   H720    1.081   1_455 S
C581   H680    1.083   .     S
C582   H741    1.083   1_455 S
C583   Cl616   1.781   .     S
C583   C585    1.407   .     A
C584   C586    1.407   .     A
C584   Cl615   1.781   .     S
C585   C587    1.415   .     A
C585   C589    1.422   .     A
C586   C588    1.415   .     A
C586   C590    1.422   .     A
C587   C5      1.393   1_556 S
C589   C32     1.418   1_556 S
Cu591  O614    1.962   .     S
Cu591  O610    1.961   .     S
Cu591  O611    1.968   .     S
Cu591  N605    2.011   .     S
Cu591  O607    1.959   .     S
Cu591  Cu716   2.676   1_455 S
Cu592  O613    1.962   .     S
Cu592  O609    1.961   .     S
Cu592  O612    1.968   .     S
Cu592  O608    1.959   .     S
Cu592  N606    2.011   .     S
Cu592  Cu653   2.676   .     S
H595   C703    1.081   1_455 S
H596   C642    1.081   .     S
O609   C621    1.288   .     S
O610   C684    1.288   1_455 S
O611   C699    1.301   1_455 S
O612   C638    1.301   .     S
H617   C644    1.083   .     S
H618   C705    1.083   1_455 S
C621   O669    1.291   .     A
C622   O670    1.291   .     A
C622   C693    1.446   .     S
C622   O734    1.288   .     S
C623   H659    1.080   .     S
C623   C652    1.413   .     A
C623   C625    1.389   .     A
C624   C651    1.413   .     A
C624   C626    1.389   .     A
C624   H660    1.080   .     S
C625   H655    1.084   .     S
C626   H656    1.084   .     S
C626   C92     1.393   1_556 S
C627   C632    1.407   .     A
C627   Cl681   1.764   .     S
C627   C1001   1.385   1_545 S
C628   C631    1.407   .     A
C628   Cl682   1.764   .     S
C628   C816    1.385   .     S
C629   H661    1.084   .     S
C629   C813    1.385   .     S
C629   C693    1.399   .     S
C630   H662    1.084   .     S
C630   C1000   1.385   1_545 S
C632   C683    1.446   .     S
C632   C692    1.399   .     S
C633   N668    1.367   .     A
C633   C635    1.416   .     A
C633   H663    1.082   .     S
C634   N667    1.367   .     A
C634   C636    1.416   .     A
C634   H664    1.082   .     S
C635   N667    1.367   .     A
C635   H665    1.082   .     S
C636   N668    1.367   .     A
C636   H666    1.082   .     S
C637   O675    1.291   .     A
C637   C639    1.471   .     S
C637   O735    1.301   .     S
C638   O676    1.291   .     A
C638   C640    1.471   .     S
C639   C643    1.402   .     A
C639   C645    1.412   .     A
C640   C646    1.412   .     A
C640   C644    1.402   .     A
C641   C643    1.392   .     A
C641   C649    1.401   .     A
C641   H719    1.081   .     S
C642   C644    1.392   .     A
C642   C650    1.401   .     A
C643   H742    1.083   .     S
C645   Cl678   1.781   .     S
C645   C647    1.407   .     A
C646   C648    1.407   .     A
C646   Cl677   1.781   .     S
C647   C649    1.415   .     A
C647   C651    1.422   .     A
C648   C650    1.415   .     A
C648   C652    1.422   .     A
C649   C67     1.393   1_556 S
C651   C94     1.418   1_556 S
Cu653  O676    1.962   .     S
Cu653  O672    1.961   .     S
Cu653  O673    1.968   .     S
Cu653  N667    2.011   .     S
Cu653  O669    1.959   .     S
Cu654  O675    1.962   .     S
Cu654  O671    1.961   .     S
Cu654  O674    1.968   .     S
Cu654  O670    1.959   .     S
Cu654  N668    2.011   .     S
Cu654  Cu715   2.676   .     S
H658   C704    1.081   .     S
O671   C683    1.288   .     S
O674   C700    1.301   .     S
H679   C706    1.083   .     S
C683   O731    1.291   .     A
C684   O732    1.291   .     A
C684   C569    1.446   1_655 S
C684   O610    1.288   1_655 S
C685   H721    1.080   .     S
C685   C714    1.413   .     A
C685   C687    1.389   .     A
C686   C713    1.413   .     A
C686   C688    1.389   .     A
C686   H722    1.080   .     S
C687   H717    1.084   .     S
C688   H718    1.084   .     S
C688   C154    1.393   1_556 S
C689   C694    1.407   .     A
C689   Cl743   1.764   .     S
C689   C1063   1.385   1_545 S
C690   C693    1.407   .     A
C690   Cl744   1.764   .     S
C690   C878    1.385   .     S
C691   H723    1.084   .     S
C691   C875    1.385   .     S
C691   C569    1.399   1_655 S
C692   H724    1.084   .     S
C692   C1062   1.385   1_545 S
C694   C559    1.446   1_655 S
C694   C568    1.399   1_655 S
C695   N730    1.367   .     A
C695   C697    1.416   .     A
C695   H725    1.082   .     S
C696   N729    1.367   .     A
C696   C698    1.416   .     A
C696   H726    1.082   .     S
C697   N729    1.367   .     A
C697   H727    1.082   .     S
C698   N730    1.367   .     A
C698   H728    1.082   .     S
C699   O737    1.291   .     A
C699   C701    1.471   .     S
C699   O611    1.301   1_655 S
C700   O738    1.291   .     A
C700   C702    1.471   .     S
C701   C705    1.402   .     A
C701   C707    1.412   .     A
C702   C708    1.412   .     A
C702   C706    1.402   .     A
C703   C705    1.392   .     A
C703   C711    1.401   .     A
C703   H595    1.081   1_655 S
C704   C706    1.392   .     A
C704   C712    1.401   .     A
C705   H618    1.083   1_655 S
C707   Cl740   1.781   .     S
C707   C709    1.407   .     A
C708   C710    1.407   .     A
C708   Cl739   1.781   .     S
C709   C711    1.415   .     A
C709   C713    1.422   .     A
C710   C712    1.415   .     A
C710   C714    1.422   .     A
C711   C129    1.393   1_556 S
C713   C156    1.418   1_556 S
Cu715  O738    1.962   .     S
Cu715  O734    1.961   .     S
Cu715  O735    1.968   .     S
Cu715  N729    2.011   .     S
Cu715  O731    1.959   .     S
Cu716  O737    1.962   .     S
Cu716  O733    1.961   .     S
Cu716  O736    1.968   .     S
Cu716  O732    1.959   .     S
Cu716  N730    2.011   .     S
Cu716  Cu591   2.676   1_655 S
H720   C580    1.081   1_655 S
O733   C559    1.288   1_655 S
O736   C576    1.301   1_655 S
H741   C582    1.083   1_655 S
C745   O793    1.291   .     A
C745   C880    1.446   1_455 S
C745   O919    1.288   1_455 S
C746   O794    1.291   .     A
C746   C817    1.446   .     S
C746   O858    1.288   .     S
C747   H783    1.080   .     S
C747   C776    1.413   .     A
C747   C749    1.389   .     A
C748   C775    1.413   .     A
C748   C750    1.389   .     A
C748   H784    1.080   .     S
C749   H779    1.084   .     S
C750   H780    1.084   .     S
C750   C216    1.393   1_556 S
C751   C756    1.407   .     A
C751   Cl805   1.764   .     S
C752   C755    1.407   .     A
C752   Cl806   1.764   .     S
C752   C940    1.385   .     S
C753   H785    1.084   .     S
C753   C937    1.385   .     S
C753   C817    1.399   .     S
C754   H786    1.084   .     S
C754   C880    1.399   1_455 S
C755   C877    1.399   1_455 S
C755   C870    1.446   1_455 S
C756   C807    1.446   .     S
C756   C816    1.399   .     S
C757   N792    1.367   .     A
C757   C759    1.416   .     A
C757   H787    1.082   .     S
C758   N791    1.367   .     A
C758   C760    1.416   .     A
C758   H788    1.082   .     S
C759   N791    1.367   .     A
C759   H789    1.082   .     S
C760   N792    1.367   .     A
C760   H790    1.082   .     S
C761   O799    1.291   .     A
C761   C763    1.471   .     S
C761   O859    1.301   .     S
C762   O800    1.291   .     A
C762   C764    1.471   .     S
C762   O922    1.301   1_455 S
C763   C767    1.402   .     A
C763   C769    1.412   .     A
C764   C770    1.412   .     A
C764   C768    1.402   .     A
C765   C767    1.392   .     A
C765   C773    1.401   .     A
C765   H843    1.081   .     S
C766   C768    1.392   .     A
C766   C774    1.401   .     A
C766   H906    1.081   1_455 S
C767   H866    1.083   .     S
C768   H927    1.083   1_455 S
C769   Cl802   1.781   .     S
C769   C771    1.407   .     A
C770   C772    1.407   .     A
C770   Cl801   1.781   .     S
C771   C773    1.415   .     A
C771   C775    1.422   .     A
C772   C774    1.415   .     A
C772   C776    1.422   .     A
C773   C191    1.393   1_556 S
C775   C218    1.418   1_556 S
Cu777  O800    1.962   .     S
Cu777  O796    1.961   .     S
Cu777  O797    1.968   .     S
Cu777  N791    2.011   .     S
Cu777  O793    1.959   .     S
Cu777  Cu902   2.676   1_455 S
Cu778  O799    1.962   .     S
Cu778  O795    1.961   .     S
Cu778  O798    1.968   .     S
Cu778  O794    1.959   .     S
Cu778  N792    2.011   .     S
Cu778  Cu839   2.676   .     S
H781   C889    1.081   1_455 S
H782   C828    1.081   .     S
O795   C807    1.288   .     S
O796   C870    1.288   1_455 S
O797   C885    1.301   1_455 S
O798   C824    1.301   .     S
H803   C830    1.083   .     S
H804   C891    1.083   1_455 S
C807   O855    1.291   .     A
C808   O856    1.291   .     A
C808   C879    1.446   .     S
C808   O920    1.288   .     S
C809   H845    1.080   .     S
C809   C838    1.413   .     A
C809   C811    1.389   .     A
C810   C837    1.413   .     A
C810   C812    1.389   .     A
C810   H846    1.080   .     S
C811   H841    1.084   .     S
C812   H842    1.084   .     S
C812   C278    1.393   1_556 S
C813   C818    1.407   .     A
C813   Cl867   1.764   .     S
C814   C817    1.407   .     A
C814   Cl868   1.764   .     S
C814   C1002   1.385   .     S
C815   H847    1.084   .     S
C815   C999    1.385   .     S
C815   C879    1.399   .     S
C816   H848    1.084   .     S
C818   C869    1.446   .     S
C818   C878    1.399   .     S
C819   N854    1.367   .     A
C819   C821    1.416   .     A
C819   H849    1.082   .     S
C820   N853    1.367   .     A
C820   C822    1.416   .     A
C820   H850    1.082   .     S
C821   N853    1.367   .     A
C821   H851    1.082   .     S
C822   N854    1.367   .     A
C822   H852    1.082   .     S
C823   O861    1.291   .     A
C823   C825    1.471   .     S
C823   O921    1.301   .     S
C824   O862    1.291   .     A
C824   C826    1.471   .     S
C825   C829    1.402   .     A
C825   C831    1.412   .     A
C826   C832    1.412   .     A
C826   C830    1.402   .     A
C827   C829    1.392   .     A
C827   C835    1.401   .     A
C827   H905    1.081   .     S
C828   C830    1.392   .     A
C828   C836    1.401   .     A
C829   H928    1.083   .     S
C831   Cl864   1.781   .     S
C831   C833    1.407   .     A
C832   C834    1.407   .     A
C832   Cl863   1.781   .     S
C833   C835    1.415   .     A
C833   C837    1.422   .     A
C834   C836    1.415   .     A
C834   C838    1.422   .     A
C835   C253    1.393   1_556 S
C837   C280    1.418   1_556 S
Cu839  O862    1.962   .     S
Cu839  O858    1.961   .     S
Cu839  O859    1.968   .     S
Cu839  N853    2.011   .     S
Cu839  O855    1.959   .     S
Cu840  O861    1.962   .     S
Cu840  O857    1.961   .     S
Cu840  O860    1.968   .     S
Cu840  O856    1.959   .     S
Cu840  N854    2.011   .     S
Cu840  Cu901   2.676   .     S
H844   C890    1.081   .     S
O857   C869    1.288   .     S
O860   C886    1.301   .     S
H865   C892    1.083   .     S
C869   O917    1.291   .     A
C870   O918    1.291   .     A
C870   C755    1.446   1_655 S
C870   O796    1.288   1_655 S
C871   H907    1.080   .     S
C871   C900    1.413   .     A
C871   C873    1.389   .     A
C872   C899    1.413   .     A
C872   C874    1.389   .     A
C872   H908    1.080   .     S
C873   H903    1.084   .     S
C874   H904    1.084   .     S
C874   C340    1.393   1_556 S
C875   C880    1.407   .     A
C875   Cl929   1.764   .     S
C876   C879    1.407   .     A
C876   Cl930   1.764   .     S
C876   C1064   1.385   .     S
C877   H909    1.084   .     S
C877   C1061   1.385   .     S
C877   C755    1.399   1_655 S
C878   H910    1.084   .     S
C880   C745    1.446   1_655 S
C880   C754    1.399   1_655 S
C881   N916    1.367   .     A
C881   C883    1.416   .     A
C881   H911    1.082   .     S
C882   N915    1.367   .     A
C882   C884    1.416   .     A
C882   H912    1.082   .     S
C883   N915    1.367   .     A
C883   H913    1.082   .     S
C884   N916    1.367   .     A
C884   H914    1.082   .     S
C885   O923    1.291   .     A
C885   C887    1.471   .     S
C885   O797    1.301   1_655 S
C886   O924    1.291   .     A
C886   C888    1.471   .     S
C887   C891    1.402   .     A
C887   C893    1.412   .     A
C888   C894    1.412   .     A
C888   C892    1.402   .     A
C889   C891    1.392   .     A
C889   C897    1.401   .     A
C889   H781    1.081   1_655 S
C890   C892    1.392   .     A
C890   C898    1.401   .     A
C891   H804    1.083   1_655 S
C893   Cl926   1.781   .     S
C893   C895    1.407   .     A
C894   C896    1.407   .     A
C894   Cl925   1.781   .     S
C895   C897    1.415   .     A
C895   C899    1.422   .     A
C896   C898    1.415   .     A
C896   C900    1.422   .     A
C897   C315    1.393   1_556 S
C899   C342    1.418   1_556 S
Cu901  O924    1.962   .     S
Cu901  O920    1.961   .     S
Cu901  O921    1.968   .     S
Cu901  N915    2.011   .     S
Cu901  O917    1.959   .     S
Cu902  O923    1.962   .     S
Cu902  O919    1.961   .     S
Cu902  O922    1.968   .     S
Cu902  O918    1.959   .     S
Cu902  N916    2.011   .     S
Cu902  Cu777   2.676   1_655 S
H906   C766    1.081   1_655 S
O919   C745    1.288   1_655 S
O922   C762    1.301   1_655 S
H927   C768    1.083   1_655 S
C931   O979    1.291   .     A
C931   C1066   1.446   1_455 S
C931   O1105   1.288   1_455 S
C932   O980    1.291   .     A
C932   C1003   1.446   .     S
C932   O1044   1.288   .     S
C933   H969    1.080   .     S
C933   C962    1.413   .     A
C933   C935    1.389   .     A
C934   C961    1.413   .     A
C934   C936    1.389   .     A
C934   H970    1.080   .     S
C935   H965    1.084   .     S
C936   H966    1.084   .     S
C936   C402    1.393   1_556 S
C937   C942    1.407   .     A
C937   Cl991   1.764   .     S
C938   C941    1.407   .     A
C938   Cl992   1.764   .     S
C938   C568    1.385   1_565 S
C939   H971    1.084   .     S
C939   C565    1.385   1_565 S
C939   C1003   1.399   .     S
C940   H972    1.084   .     S
C940   C1066   1.399   1_455 S
C941   C1063   1.399   1_455 S
C941   C1056   1.446   1_455 S
C942   C993    1.446   .     S
C942   C1002   1.399   .     S
C943   N978    1.367   .     A
C943   C945    1.416   .     A
C943   H973    1.082   .     S
C944   N977    1.367   .     A
C944   C946    1.416   .     A
C944   H974    1.082   .     S
C945   N977    1.367   .     A
C945   H975    1.082   .     S
C946   N978    1.367   .     A
C946   H976    1.082   .     S
C947   O985    1.291   .     A
C947   C949    1.471   .     S
C947   O1045   1.301   .     S
C948   O986    1.291   .     A
C948   C950    1.471   .     S
C948   O1108   1.301   1_455 S
C949   C953    1.402   .     A
C949   C955    1.412   .     A
C950   C956    1.412   .     A
C950   C954    1.402   .     A
C951   C953    1.392   .     A
C951   C959    1.401   .     A
C951   H1029   1.081   .     S
C952   C954    1.392   .     A
C952   C960    1.401   .     A
C952   H1092   1.081   1_455 S
C953   H1052   1.083   .     S
C954   H1113   1.083   1_455 S
C955   Cl988   1.781   .     S
C955   C957    1.407   .     A
C956   C958    1.407   .     A
C956   Cl987   1.781   .     S
C957   C959    1.415   .     A
C957   C961    1.422   .     A
C958   C960    1.415   .     A
C958   C962    1.422   .     A
C959   C377    1.393   1_556 S
C961   C404    1.418   1_556 S
Cu963  O986    1.962   .     S
Cu963  O982    1.961   .     S
Cu963  O983    1.968   .     S
Cu963  N977    2.011   .     S
Cu963  O979    1.959   .     S
Cu963  Cu1088  2.676   1_455 S
Cu964  O985    1.962   .     S
Cu964  O981    1.961   .     S
Cu964  O984    1.968   .     S
Cu964  O980    1.959   .     S
Cu964  N978    2.011   .     S
Cu964  Cu1025  2.676   .     S
H967   C1075   1.081   1_455 S
H968   C1014   1.081   .     S
O981   C993    1.288   .     S
O982   C1056   1.288   1_455 S
O983   C1071   1.301   1_455 S
O984   C1010   1.301   .     S
H989   C1016   1.083   .     S
H990   C1077   1.083   1_455 S
C993   O1041   1.291   .     A
C994   O1042   1.291   .     A
C994   C1065   1.446   .     S
C994   O1106   1.288   .     S
C995   H1031   1.080   .     S
C995   C1024   1.413   .     A
C995   C997    1.389   .     A
C996   C1023   1.413   .     A
C996   C998    1.389   .     A
C996   H1032   1.080   .     S
C997   H1027   1.084   .     S
C998   H1028   1.084   .     S
C998   C464    1.393   1_556 S
C999   C1004   1.407   .     A
C999   Cl1053  1.764   .     S
C1000  C1003   1.407   .     A
C1000  Cl1054  1.764   .     S
C1000  C630    1.385   1_565 S
C1001  H1033   1.084   .     S
C1001  C627    1.385   1_565 S
C1001  C1065   1.399   .     S
C1002  H1034   1.084   .     S
C1004  C1055   1.446   .     S
C1004  C1064   1.399   .     S
C1005  N1040   1.367   .     A
C1005  C1007   1.416   .     A
C1005  H1035   1.082   .     S
C1006  N1039   1.367   .     A
C1006  C1008   1.416   .     A
C1006  H1036   1.082   .     S
C1007  N1039   1.367   .     A
C1007  H1037   1.082   .     S
C1008  N1040   1.367   .     A
C1008  H1038   1.082   .     S
C1009  O1047   1.291   .     A
C1009  C1011   1.471   .     S
C1009  O1107   1.301   .     S
C1010  O1048   1.291   .     A
C1010  C1012   1.471   .     S
C1011  C1015   1.402   .     A
C1011  C1017   1.412   .     A
C1012  C1018   1.412   .     A
C1012  C1016   1.402   .     A
C1013  C1015   1.392   .     A
C1013  C1021   1.401   .     A
C1013  H1091   1.081   .     S
C1014  C1016   1.392   .     A
C1014  C1022   1.401   .     A
C1015  H1114   1.083   .     S
C1017  Cl1050  1.781   .     S
C1017  C1019   1.407   .     A
C1018  C1020   1.407   .     A
C1018  Cl1049  1.781   .     S
C1019  C1021   1.415   .     A
C1019  C1023   1.422   .     A
C1020  C1022   1.415   .     A
C1020  C1024   1.422   .     A
C1021  C439    1.393   1_556 S
C1023  C466    1.418   1_556 S
Cu1025 O1048   1.962   .     S
Cu1025 O1044   1.961   .     S
Cu1025 O1045   1.968   .     S
Cu1025 N1039   2.011   .     S
Cu1025 O1041   1.959   .     S
Cu1026 O1047   1.962   .     S
Cu1026 O1043   1.961   .     S
Cu1026 O1046   1.968   .     S
Cu1026 O1042   1.959   .     S
Cu1026 N1040   2.011   .     S
Cu1026 Cu1087  2.676   .     S
H1030  C1076   1.081   .     S
O1043  C1055   1.288   .     S
O1046  C1072   1.301   .     S
H1051  C1078   1.083   .     S
C1055  O1103   1.291   .     A
C1056  O1104   1.291   .     A
C1056  C941    1.446   1_655 S
C1056  O982    1.288   1_655 S
C1057  H1093   1.080   .     S
C1057  C1086   1.413   .     A
C1057  C1059   1.389   .     A
C1058  C1085   1.413   .     A
C1058  C1060   1.389   .     A
C1058  H1094   1.080   .     S
C1059  H1089   1.084   .     S
C1060  H1090   1.084   .     S
C1060  C526    1.393   1_556 S
C1061  C1066   1.407   .     A
C1061  Cl1115  1.764   .     S
C1062  C1065   1.407   .     A
C1062  Cl1116  1.764   .     S
C1062  C692    1.385   1_565 S
C1063  H1095   1.084   .     S
C1063  C689    1.385   1_565 S
C1063  C941    1.399   1_655 S
C1064  H1096   1.084   .     S
C1066  C931    1.446   1_655 S
C1066  C940    1.399   1_655 S
C1067  N1102   1.367   .     A
C1067  C1069   1.416   .     A
C1067  H1097   1.082   .     S
C1068  N1101   1.367   .     A
C1068  C1070   1.416   .     A
C1068  H1098   1.082   .     S
C1069  N1101   1.367   .     A
C1069  H1099   1.082   .     S
C1070  N1102   1.367   .     A
C1070  H1100   1.082   .     S
C1071  O1109   1.291   .     A
C1071  C1073   1.471   .     S
C1071  O983    1.301   1_655 S
C1072  O1110   1.291   .     A
C1072  C1074   1.471   .     S
C1073  C1077   1.402   .     A
C1073  C1079   1.412   .     A
C1074  C1080   1.412   .     A
C1074  C1078   1.402   .     A
C1075  C1077   1.392   .     A
C1075  C1083   1.401   .     A
C1075  H967    1.081   1_655 S
C1076  C1078   1.392   .     A
C1076  C1084   1.401   .     A
C1077  H990    1.083   1_655 S
C1079  Cl1112  1.781   .     S
C1079  C1081   1.407   .     A
C1080  C1082   1.407   .     A
C1080  Cl1111  1.781   .     S
C1081  C1083   1.415   .     A
C1081  C1085   1.422   .     A
C1082  C1084   1.415   .     A
C1082  C1086   1.422   .     A
C1083  C501    1.393   1_556 S
C1085  C528    1.418   1_556 S
Cu1087 O1110   1.962   .     S
Cu1087 O1106   1.961   .     S
Cu1087 O1107   1.968   .     S
Cu1087 N1101   2.011   .     S
Cu1087 O1103   1.959   .     S
Cu1088 O1109   1.962   .     S
Cu1088 O1105   1.961   .     S
Cu1088 O1108   1.968   .     S
Cu1088 O1104   1.959   .     S
Cu1088 N1102   2.011   .     S
Cu1088 Cu963   2.676   1_655 S
H1092  C952    1.081   1_655 S
O1105  C931    1.288   1_655 S
O1108  C948    1.301   1_655 S
H1113  C954    1.083   1_655 S
