data_str_m2_o2_o5_pcu_sym.106
_audit_creation_date              2020-01-03
_audit_creation_method            'Materials Studio'
_symmetry_space_group_name_H-M    'P1'
_symmetry_Int_Tables_number       1
_symmetry_cell_setting            triclinic
loop_
_symmetry_equiv_pos_as_xyz
  x,y,z
_cell_length_a                    30.2412
_cell_length_b                    27.8159
_cell_length_c                    27.3563
_cell_angle_alpha                 89.8927
_cell_angle_beta                  89.5882
_cell_angle_gamma                 89.8367
loop_
_atom_site_label
_atom_site_type_symbol
_atom_site_fract_x
_atom_site_fract_y
_atom_site_fract_z
_atom_site_U_iso_or_equiv
_atom_site_adp_type
_atom_site_occupancy
C1     C     0.16491   0.25003   0.16652   0.00000  Uiso   1.00
C2     C     0.28886   0.44680   0.15673   0.00000  Uiso   1.00
C3     C     0.25002   0.25003   0.07352   0.00000  Uiso   1.00
C4     C     0.24999   0.24997   0.25981   0.00000  Uiso   1.00
C5     C     0.25000   0.02767   0.16660   0.00000  Uiso   1.00
C6     C     0.24997   0.47324   0.16659   0.00000  Uiso   1.00
C7     C     0.25002   0.25003   0.02182   0.00000  Uiso   1.00
C8     C     0.25001   0.24996   0.31152   0.00000  Uiso   1.00
C9     C     0.04702   0.29288   0.15908   0.00000  Uiso   1.00
C10    C     0.45187   0.21869   0.13482   0.00000  Uiso   1.00
C11    C     0.45143   0.27985   0.19913   0.00000  Uiso   1.00
C12    C     0.33486   0.24993   0.16667   0.00000  Uiso   1.00
C13    C     0.04756   0.20615   0.17388   0.00000  Uiso   1.00
C14    C     0.09305   0.29283   0.15979   0.00000  Uiso   1.00
C15    C     0.40587   0.21800   0.13637   0.00000  Uiso   1.00
C16    C     0.40547   0.28109   0.19734   0.00000  Uiso   1.00
C17    C     0.09358   0.20666   0.17268   0.00000  Uiso   1.00
C18    C     0.11653   0.24990   0.16633   0.00000  Uiso   1.00
C19    C     0.38279   0.24972   0.16676   0.00000  Uiso   1.00
C20    C     0.02386   0.24940   0.16668   0.00000  Uiso   1.00
C21    C     0.47515   0.24920   0.16698   0.00000  Uiso   1.00
C22    C     0.01635   0.34553   0.10526   0.00000  Uiso   1.00
C23    C     0.27786   0.10462   0.19672   0.00000  Uiso   1.00
C24    C     0.49598   0.39535   0.10048   0.00000  Uiso   1.00
C25    C     0.48669   0.21140   0.06120   0.00000  Uiso   1.00
C26    C     0.00855   0.17586   0.02649   0.00000  Uiso   1.00
C27    C     0.48528   0.28668   0.27276   0.00000  Uiso   1.00
C28    C     0.00812   0.32162   0.30684   0.00000  Uiso   1.00
C29    C     0.01943   0.15231   0.22845   0.00000  Uiso   1.00
C30    C     0.00293   0.10096   0.23376   0.00000  Uiso   1.00
C31    C     0.28536   0.01659   0.27149   0.00000  Uiso   1.00
C32    C     0.31819   0.49287   0.30568   0.00000  Uiso   1.00
C33    C     0.16262   0.48152   0.23026   0.00000  Uiso   1.00
C34    C     0.21234   0.39621   0.17808   0.00000  Uiso   1.00
C35    C     0.11614   0.00208   0.23517   0.00000  Uiso   1.00
C36    C     0.21460   0.01752   0.06163   0.00000  Uiso   1.00
C37    C     0.18191   0.49354   0.02769   0.00000  Uiso   1.00
C38    C     0.33756   0.48009   0.10258   0.00000  Uiso   1.00
C39    C     0.38463   0.49855   0.09719   0.00000  Uiso   1.00
C40    C     0.22213   0.10492   0.13659   0.00000  Uiso   1.00
C41    C     0.28773   0.39604   0.15546   0.00000  Uiso   1.00
C42    C     0.27801   0.05391   0.19806   0.00000  Uiso   1.00
C43    C     0.21111   0.44698   0.17658   0.00000  Uiso   1.00
C44    C     0.22199   0.05423   0.13520   0.00000  Uiso   1.00
Cu45   Cu    0.25000   0.29821   0.16667   0.00000  Uiso   1.00
Cu46   Cu    0.25000   0.20179   0.16667   0.00000  Uiso   1.00
F47    F     0.30563   0.12906   0.22629   0.00000  Uiso   1.00
F48    F     0.17494   0.37344   0.19211   0.00000  Uiso   1.00
F49    F     0.19433   0.12966   0.10705   0.00000  Uiso   1.00
F50    F     0.32546   0.37317   0.14231   0.00000  Uiso   1.00
H51    H     0.11021   0.32656   0.15471   0.00000  Uiso   1.00
H52    H     0.01144   0.23955   0.06961   0.00000  Uiso   1.00
H53    H     0.45779   0.22798   0.04249   0.00000  Uiso   1.00
H54    H     0.48408   0.14883   0.01426   0.00000  Uiso   1.00
H55    H     0.02184   0.19533   0.32755   0.00000  Uiso   1.00
H56    H     0.03632   0.15724   0.04504   0.00000  Uiso   1.00
H57    H     0.00923   0.25749   0.26420   0.00000  Uiso   1.00
H58    H     0.45592   0.27138   0.29201   0.00000  Uiso   1.00
H59    H     0.48448   0.34989   0.31890   0.00000  Uiso   1.00
H60    H     0.02057   0.30199   0.00593   0.00000  Uiso   1.00
H61    H     0.03658   0.33874   0.28780   0.00000  Uiso   1.00
H62    H     0.38818   0.19364   0.11267   0.00000  Uiso   1.00
H63    H     0.49381   0.17675   0.24394   0.00000  Uiso   1.00
H64    H     0.05066   0.15560   0.24962   0.00000  Uiso   1.00
H65    H     0.02781   0.07549   0.21860   0.00000  Uiso   1.00
H66    H     0.49734   0.09243   0.27298   0.00000  Uiso   1.00
H67    H     0.47131   0.09661   0.21384   0.00000  Uiso   1.00
H68    H     0.25932   0.48971   0.26350   0.00000  Uiso   1.00
H69    H     0.27033   0.04812   0.29050   0.00000  Uiso   1.00
H70    H     0.34327   0.01943   0.31747   0.00000  Uiso   1.00
H71    H     0.30034   0.47881   0.00485   0.00000  Uiso   1.00
H72    H     0.33501   0.46243   0.28693   0.00000  Uiso   1.00
H73    H     0.38747   0.30564   0.22097   0.00000  Uiso   1.00
H74    H     0.18622   0.00934   0.24292   0.00000  Uiso   1.00
H75    H     0.16491   0.44900   0.25396   0.00000  Uiso   1.00
H76    H     0.10911   0.01125   0.27393   0.00000  Uiso   1.00
H77    H     0.11302   0.03514   0.21260   0.00000  Uiso   1.00
H78    H     0.09153   0.47524   0.22277   0.00000  Uiso   1.00
H79    H     0.24108   0.49092   0.06947   0.00000  Uiso   1.00
H80    H     0.22907   0.04927   0.04250   0.00000  Uiso   1.00
H81    H     0.15630   0.01982   0.01620   0.00000  Uiso   1.00
H82    H     0.19973   0.47990   0.32832   0.00000  Uiso   1.00
H83    H     0.16574   0.46279   0.04654   0.00000  Uiso   1.00
H84    H     0.11122   0.17301   0.17727   0.00000  Uiso   1.00
H85    H     0.31475   0.00870   0.08953   0.00000  Uiso   1.00
H86    H     0.33425   0.44741   0.07939   0.00000  Uiso   1.00
H87    H     0.38884   0.03177   0.11913   0.00000  Uiso   1.00
H88    H     0.39186   0.00682   0.05825   0.00000  Uiso   1.00
H89    H     0.40840   0.47085   0.11005   0.00000  Uiso   1.00
H90    H     0.49219   0.31909   0.09093   0.00000  Uiso   1.00
H91    H     0.04728   0.34450   0.08286   0.00000  Uiso   1.00
H92    H     0.01924   0.42287   0.11438   0.00000  Uiso   1.00
H93    H     0.48878   0.40315   0.06153   0.00000  Uiso   1.00
H94    H     0.46464   0.39722   0.12185   0.00000  Uiso   1.00
N95    N     0.25000   0.12935   0.16667   0.00000  Uiso   1.00
N96    N     0.25000   0.37065   0.16667   0.00000  Uiso   1.00
O97    O     0.18573   0.29071   0.16667   0.00000  Uiso   1.00
O98    O     0.47346   0.18688   0.10400   0.00000  Uiso   1.00
O99    O     0.47265   0.31142   0.23004   0.00000  Uiso   1.00
O100   O     0.02615   0.16250   0.17846   0.00000  Uiso   1.00
O101   O     0.30762   0.03075   0.22836   0.00000  Uiso   1.00
O102   O     0.17073   0.47014   0.18084   0.00000  Uiso   1.00
O103   O     0.19238   0.03137   0.10488   0.00000  Uiso   1.00
O104   O     0.32918   0.46981   0.15223   0.00000  Uiso   1.00
O105   O     0.31427   0.20929   0.16666   0.00000  Uiso   1.00
O106   O     0.31427   0.29072   0.16666   0.00000  Uiso   1.00
O107   O     0.18573   0.20928   0.16667   0.00000  Uiso   1.00
O108   O     0.25000   0.29071   0.09613   0.00000  Uiso   1.00
O109   O     0.25000   0.20929   0.23720   0.00000  Uiso   1.00
O110   O     0.25000   0.29071   0.23720   0.00000  Uiso   1.00
O111   O     0.25000   0.20929   0.09613   0.00000  Uiso   1.00
O112   O     0.02509   0.33637   0.15494   0.00000  Uiso   1.00
C113   C     0.66491   0.25003   0.16652   0.00000  Uiso   1.00
C114   C     0.78886   0.44680   0.15673   0.00000  Uiso   1.00
C115   C     0.75002   0.25003   0.07352   0.00000  Uiso   1.00
C116   C     0.74999   0.24997   0.25981   0.00000  Uiso   1.00
C117   C     0.75000   0.02767   0.16660   0.00000  Uiso   1.00
C118   C     0.74997   0.47324   0.16659   0.00000  Uiso   1.00
C119   C     0.75002   0.25003   0.02182   0.00000  Uiso   1.00
C120   C     0.75001   0.24996   0.31152   0.00000  Uiso   1.00
C121   C     0.54702   0.29288   0.15908   0.00000  Uiso   1.00
C122   C     0.95187   0.21869   0.13482   0.00000  Uiso   1.00
C123   C     0.95143   0.27985   0.19913   0.00000  Uiso   1.00
C124   C     0.83486   0.24993   0.16667   0.00000  Uiso   1.00
C125   C     0.54756   0.20615   0.17388   0.00000  Uiso   1.00
C126   C     0.59305   0.29283   0.15979   0.00000  Uiso   1.00
C127   C     0.90587   0.21800   0.13637   0.00000  Uiso   1.00
C128   C     0.90547   0.28109   0.19734   0.00000  Uiso   1.00
C129   C     0.59358   0.20666   0.17268   0.00000  Uiso   1.00
C130   C     0.61653   0.24990   0.16633   0.00000  Uiso   1.00
C131   C     0.88279   0.24972   0.16676   0.00000  Uiso   1.00
C132   C     0.52386   0.24940   0.16668   0.00000  Uiso   1.00
C133   C     0.97515   0.24920   0.16698   0.00000  Uiso   1.00
C134   C     0.51635   0.34553   0.10526   0.00000  Uiso   1.00
C135   C     0.77786   0.10462   0.19672   0.00000  Uiso   1.00
C136   C     0.99598   0.39535   0.10048   0.00000  Uiso   1.00
C137   C     0.98669   0.21140   0.06120   0.00000  Uiso   1.00
C138   C     0.50855   0.17586   0.02649   0.00000  Uiso   1.00
C139   C     0.98528   0.28668   0.27276   0.00000  Uiso   1.00
C140   C     0.50812   0.32162   0.30684   0.00000  Uiso   1.00
C141   C     0.51943   0.15231   0.22845   0.00000  Uiso   1.00
C142   C     0.50293   0.10096   0.23376   0.00000  Uiso   1.00
C143   C     0.78536   0.01659   0.27149   0.00000  Uiso   1.00
C144   C     0.81819   0.49287   0.30568   0.00000  Uiso   1.00
C145   C     0.66262   0.48152   0.23026   0.00000  Uiso   1.00
C146   C     0.71234   0.39621   0.17808   0.00000  Uiso   1.00
C147   C     0.61614   0.00208   0.23517   0.00000  Uiso   1.00
C148   C     0.71460   0.01752   0.06163   0.00000  Uiso   1.00
C149   C     0.68191   0.49354   0.02769   0.00000  Uiso   1.00
C150   C     0.83756   0.48009   0.10258   0.00000  Uiso   1.00
C151   C     0.88463   0.49855   0.09719   0.00000  Uiso   1.00
C152   C     0.72213   0.10492   0.13659   0.00000  Uiso   1.00
C153   C     0.78773   0.39604   0.15546   0.00000  Uiso   1.00
C154   C     0.77801   0.05391   0.19806   0.00000  Uiso   1.00
C155   C     0.71111   0.44698   0.17658   0.00000  Uiso   1.00
C156   C     0.72199   0.05423   0.13520   0.00000  Uiso   1.00
Cu157  Cu    0.75000   0.29821   0.16667   0.00000  Uiso   1.00
Cu158  Cu    0.75000   0.20179   0.16667   0.00000  Uiso   1.00
F159   F     0.80563   0.12906   0.22629   0.00000  Uiso   1.00
F160   F     0.67494   0.37344   0.19211   0.00000  Uiso   1.00
F161   F     0.69433   0.12966   0.10705   0.00000  Uiso   1.00
F162   F     0.82546   0.37317   0.14231   0.00000  Uiso   1.00
H163   H     0.61021   0.32656   0.15471   0.00000  Uiso   1.00
H164   H     0.51144   0.23955   0.06961   0.00000  Uiso   1.00
H165   H     0.95779   0.22798   0.04249   0.00000  Uiso   1.00
H166   H     0.98408   0.14883   0.01426   0.00000  Uiso   1.00
H167   H     0.52184   0.19533   0.32755   0.00000  Uiso   1.00
H168   H     0.53632   0.15724   0.04504   0.00000  Uiso   1.00
H169   H     0.50923   0.25749   0.26420   0.00000  Uiso   1.00
H170   H     0.95592   0.27138   0.29201   0.00000  Uiso   1.00
H171   H     0.98448   0.34989   0.31890   0.00000  Uiso   1.00
H172   H     0.52057   0.30199   0.00593   0.00000  Uiso   1.00
H173   H     0.53658   0.33874   0.28780   0.00000  Uiso   1.00
H174   H     0.88818   0.19364   0.11267   0.00000  Uiso   1.00
H175   H     0.99381   0.17675   0.24394   0.00000  Uiso   1.00
H176   H     0.55066   0.15560   0.24962   0.00000  Uiso   1.00
H177   H     0.52781   0.07549   0.21860   0.00000  Uiso   1.00
H178   H     0.99734   0.09243   0.27298   0.00000  Uiso   1.00
H179   H     0.97131   0.09661   0.21384   0.00000  Uiso   1.00
H180   H     0.75932   0.48971   0.26350   0.00000  Uiso   1.00
H181   H     0.77033   0.04812   0.29050   0.00000  Uiso   1.00
H182   H     0.84327   0.01943   0.31747   0.00000  Uiso   1.00
H183   H     0.80034   0.47881   0.00485   0.00000  Uiso   1.00
H184   H     0.83501   0.46243   0.28693   0.00000  Uiso   1.00
H185   H     0.88747   0.30564   0.22097   0.00000  Uiso   1.00
H186   H     0.68622   0.00934   0.24292   0.00000  Uiso   1.00
H187   H     0.66491   0.44900   0.25396   0.00000  Uiso   1.00
H188   H     0.60911   0.01125   0.27393   0.00000  Uiso   1.00
H189   H     0.61302   0.03514   0.21260   0.00000  Uiso   1.00
H190   H     0.59153   0.47524   0.22277   0.00000  Uiso   1.00
H191   H     0.74108   0.49092   0.06947   0.00000  Uiso   1.00
H192   H     0.72907   0.04927   0.04250   0.00000  Uiso   1.00
H193   H     0.65630   0.01982   0.01620   0.00000  Uiso   1.00
H194   H     0.69973   0.47990   0.32832   0.00000  Uiso   1.00
H195   H     0.66574   0.46279   0.04654   0.00000  Uiso   1.00
H196   H     0.61122   0.17301   0.17727   0.00000  Uiso   1.00
H197   H     0.81475   0.00870   0.08953   0.00000  Uiso   1.00
H198   H     0.83425   0.44741   0.07939   0.00000  Uiso   1.00
H199   H     0.88884   0.03177   0.11913   0.00000  Uiso   1.00
H200   H     0.89186   0.00682   0.05825   0.00000  Uiso   1.00
H201   H     0.90840   0.47085   0.11005   0.00000  Uiso   1.00
H202   H     0.99219   0.31909   0.09093   0.00000  Uiso   1.00
H203   H     0.54728   0.34450   0.08286   0.00000  Uiso   1.00
H204   H     0.51924   0.42287   0.11438   0.00000  Uiso   1.00
H205   H     0.98878   0.40315   0.06153   0.00000  Uiso   1.00
H206   H     0.96464   0.39722   0.12185   0.00000  Uiso   1.00
N207   N     0.75000   0.12935   0.16667   0.00000  Uiso   1.00
N208   N     0.75000   0.37065   0.16667   0.00000  Uiso   1.00
O209   O     0.68573   0.29071   0.16667   0.00000  Uiso   1.00
O210   O     0.97346   0.18688   0.10400   0.00000  Uiso   1.00
O211   O     0.97265   0.31142   0.23004   0.00000  Uiso   1.00
O212   O     0.52615   0.16250   0.17846   0.00000  Uiso   1.00
O213   O     0.80762   0.03075   0.22836   0.00000  Uiso   1.00
O214   O     0.67073   0.47014   0.18084   0.00000  Uiso   1.00
O215   O     0.69238   0.03137   0.10488   0.00000  Uiso   1.00
O216   O     0.82918   0.46981   0.15223   0.00000  Uiso   1.00
O217   O     0.81427   0.20929   0.16666   0.00000  Uiso   1.00
O218   O     0.81427   0.29072   0.16666   0.00000  Uiso   1.00
O219   O     0.68573   0.20928   0.16667   0.00000  Uiso   1.00
O220   O     0.75000   0.29071   0.09613   0.00000  Uiso   1.00
O221   O     0.75000   0.20929   0.23720   0.00000  Uiso   1.00
O222   O     0.75000   0.29071   0.23720   0.00000  Uiso   1.00
O223   O     0.75000   0.20929   0.09613   0.00000  Uiso   1.00
O224   O     0.52509   0.33637   0.15494   0.00000  Uiso   1.00
C225   C     0.16491   0.75003   0.16652   0.00000  Uiso   1.00
C226   C     0.28886   0.94680   0.15673   0.00000  Uiso   1.00
C227   C     0.25002   0.75003   0.07352   0.00000  Uiso   1.00
C228   C     0.24999   0.74997   0.25981   0.00000  Uiso   1.00
C229   C     0.25000   0.52767   0.16660   0.00000  Uiso   1.00
C230   C     0.24997   0.97324   0.16659   0.00000  Uiso   1.00
C231   C     0.25002   0.75003   0.02182   0.00000  Uiso   1.00
C232   C     0.25001   0.74996   0.31152   0.00000  Uiso   1.00
C233   C     0.04702   0.79288   0.15908   0.00000  Uiso   1.00
C234   C     0.45187   0.71869   0.13482   0.00000  Uiso   1.00
C235   C     0.45143   0.77985   0.19913   0.00000  Uiso   1.00
C236   C     0.33486   0.74993   0.16667   0.00000  Uiso   1.00
C237   C     0.04756   0.70615   0.17388   0.00000  Uiso   1.00
C238   C     0.09305   0.79283   0.15979   0.00000  Uiso   1.00
C239   C     0.40587   0.71800   0.13637   0.00000  Uiso   1.00
C240   C     0.40547   0.78109   0.19734   0.00000  Uiso   1.00
C241   C     0.09358   0.70666   0.17268   0.00000  Uiso   1.00
C242   C     0.11653   0.74990   0.16633   0.00000  Uiso   1.00
C243   C     0.38279   0.74972   0.16676   0.00000  Uiso   1.00
C244   C     0.02386   0.74940   0.16668   0.00000  Uiso   1.00
C245   C     0.47515   0.74920   0.16698   0.00000  Uiso   1.00
C246   C     0.01635   0.84553   0.10526   0.00000  Uiso   1.00
C247   C     0.27786   0.60462   0.19672   0.00000  Uiso   1.00
C248   C     0.49598   0.89535   0.10048   0.00000  Uiso   1.00
C249   C     0.48669   0.71140   0.06120   0.00000  Uiso   1.00
C250   C     0.00855   0.67586   0.02649   0.00000  Uiso   1.00
C251   C     0.48528   0.78668   0.27276   0.00000  Uiso   1.00
C252   C     0.00812   0.82162   0.30684   0.00000  Uiso   1.00
C253   C     0.01943   0.65231   0.22845   0.00000  Uiso   1.00
C254   C     0.00293   0.60096   0.23376   0.00000  Uiso   1.00
C255   C     0.28536   0.51659   0.27149   0.00000  Uiso   1.00
C256   C     0.31819   0.99287   0.30568   0.00000  Uiso   1.00
C257   C     0.16262   0.98152   0.23026   0.00000  Uiso   1.00
C258   C     0.21234   0.89621   0.17808   0.00000  Uiso   1.00
C259   C     0.11614   0.50208   0.23517   0.00000  Uiso   1.00
C260   C     0.21460   0.51752   0.06163   0.00000  Uiso   1.00
C261   C     0.18191   0.99354   0.02769   0.00000  Uiso   1.00
C262   C     0.33756   0.98009   0.10258   0.00000  Uiso   1.00
C263   C     0.38463   0.99855   0.09719   0.00000  Uiso   1.00
C264   C     0.22213   0.60492   0.13659   0.00000  Uiso   1.00
C265   C     0.28773   0.89604   0.15546   0.00000  Uiso   1.00
C266   C     0.27801   0.55391   0.19806   0.00000  Uiso   1.00
C267   C     0.21111   0.94698   0.17658   0.00000  Uiso   1.00
C268   C     0.22199   0.55423   0.13520   0.00000  Uiso   1.00
Cu269  Cu    0.25000   0.79821   0.16667   0.00000  Uiso   1.00
Cu270  Cu    0.25000   0.70179   0.16667   0.00000  Uiso   1.00
F271   F     0.30563   0.62906   0.22629   0.00000  Uiso   1.00
F272   F     0.17494   0.87344   0.19211   0.00000  Uiso   1.00
F273   F     0.19433   0.62966   0.10705   0.00000  Uiso   1.00
F274   F     0.32546   0.87317   0.14231   0.00000  Uiso   1.00
H275   H     0.11021   0.82656   0.15471   0.00000  Uiso   1.00
H276   H     0.01144   0.73955   0.06961   0.00000  Uiso   1.00
H277   H     0.45779   0.72798   0.04249   0.00000  Uiso   1.00
H278   H     0.48408   0.64883   0.01426   0.00000  Uiso   1.00
H279   H     0.02184   0.69533   0.32755   0.00000  Uiso   1.00
H280   H     0.03632   0.65724   0.04504   0.00000  Uiso   1.00
H281   H     0.00923   0.75749   0.26420   0.00000  Uiso   1.00
H282   H     0.45592   0.77138   0.29201   0.00000  Uiso   1.00
H283   H     0.48448   0.84989   0.31890   0.00000  Uiso   1.00
H284   H     0.02057   0.80199   0.00593   0.00000  Uiso   1.00
H285   H     0.03658   0.83874   0.28780   0.00000  Uiso   1.00
H286   H     0.38818   0.69364   0.11267   0.00000  Uiso   1.00
H287   H     0.49381   0.67675   0.24394   0.00000  Uiso   1.00
H288   H     0.05066   0.65560   0.24962   0.00000  Uiso   1.00
H289   H     0.02781   0.57549   0.21860   0.00000  Uiso   1.00
H290   H     0.49734   0.59243   0.27298   0.00000  Uiso   1.00
H291   H     0.47131   0.59661   0.21384   0.00000  Uiso   1.00
H292   H     0.25932   0.98971   0.26350   0.00000  Uiso   1.00
H293   H     0.27033   0.54812   0.29050   0.00000  Uiso   1.00
H294   H     0.34327   0.51943   0.31747   0.00000  Uiso   1.00
H295   H     0.30034   0.97881   0.00485   0.00000  Uiso   1.00
H296   H     0.33501   0.96243   0.28693   0.00000  Uiso   1.00
H297   H     0.38747   0.80564   0.22097   0.00000  Uiso   1.00
H298   H     0.18622   0.50934   0.24292   0.00000  Uiso   1.00
H299   H     0.16491   0.94900   0.25396   0.00000  Uiso   1.00
H300   H     0.10911   0.51125   0.27393   0.00000  Uiso   1.00
H301   H     0.11302   0.53514   0.21260   0.00000  Uiso   1.00
H302   H     0.09153   0.97524   0.22277   0.00000  Uiso   1.00
H303   H     0.24108   0.99092   0.06947   0.00000  Uiso   1.00
H304   H     0.22907   0.54927   0.04250   0.00000  Uiso   1.00
H305   H     0.15630   0.51982   0.01620   0.00000  Uiso   1.00
H306   H     0.19973   0.97990   0.32832   0.00000  Uiso   1.00
H307   H     0.16574   0.96279   0.04654   0.00000  Uiso   1.00
H308   H     0.11122   0.67301   0.17727   0.00000  Uiso   1.00
H309   H     0.31475   0.50870   0.08953   0.00000  Uiso   1.00
H310   H     0.33425   0.94741   0.07939   0.00000  Uiso   1.00
H311   H     0.38884   0.53177   0.11913   0.00000  Uiso   1.00
H312   H     0.39186   0.50682   0.05825   0.00000  Uiso   1.00
H313   H     0.40840   0.97085   0.11005   0.00000  Uiso   1.00
H314   H     0.49219   0.81909   0.09093   0.00000  Uiso   1.00
H315   H     0.04728   0.84450   0.08286   0.00000  Uiso   1.00
H316   H     0.01924   0.92287   0.11438   0.00000  Uiso   1.00
H317   H     0.48878   0.90315   0.06153   0.00000  Uiso   1.00
H318   H     0.46464   0.89722   0.12185   0.00000  Uiso   1.00
N319   N     0.25000   0.62935   0.16667   0.00000  Uiso   1.00
N320   N     0.25000   0.87065   0.16667   0.00000  Uiso   1.00
O321   O     0.18573   0.79071   0.16667   0.00000  Uiso   1.00
O322   O     0.47346   0.68688   0.10400   0.00000  Uiso   1.00
O323   O     0.47265   0.81142   0.23004   0.00000  Uiso   1.00
O324   O     0.02615   0.66250   0.17846   0.00000  Uiso   1.00
O325   O     0.30762   0.53075   0.22836   0.00000  Uiso   1.00
O326   O     0.17073   0.97014   0.18084   0.00000  Uiso   1.00
O327   O     0.19238   0.53137   0.10488   0.00000  Uiso   1.00
O328   O     0.32918   0.96981   0.15223   0.00000  Uiso   1.00
O329   O     0.31427   0.70929   0.16666   0.00000  Uiso   1.00
O330   O     0.31427   0.79072   0.16666   0.00000  Uiso   1.00
O331   O     0.18573   0.70928   0.16667   0.00000  Uiso   1.00
O332   O     0.25000   0.79071   0.09613   0.00000  Uiso   1.00
O333   O     0.25000   0.70929   0.23720   0.00000  Uiso   1.00
O334   O     0.25000   0.79071   0.23720   0.00000  Uiso   1.00
O335   O     0.25000   0.70929   0.09613   0.00000  Uiso   1.00
O336   O     0.02509   0.83637   0.15494   0.00000  Uiso   1.00
C337   C     0.66491   0.75003   0.16652   0.00000  Uiso   1.00
C338   C     0.78886   0.94680   0.15673   0.00000  Uiso   1.00
C339   C     0.75002   0.75003   0.07352   0.00000  Uiso   1.00
C340   C     0.74999   0.74997   0.25981   0.00000  Uiso   1.00
C341   C     0.75000   0.52767   0.16660   0.00000  Uiso   1.00
C342   C     0.74997   0.97324   0.16659   0.00000  Uiso   1.00
C343   C     0.75002   0.75003   0.02182   0.00000  Uiso   1.00
C344   C     0.75001   0.74996   0.31152   0.00000  Uiso   1.00
C345   C     0.54702   0.79288   0.15908   0.00000  Uiso   1.00
C346   C     0.95187   0.71869   0.13482   0.00000  Uiso   1.00
C347   C     0.95143   0.77985   0.19913   0.00000  Uiso   1.00
C348   C     0.83486   0.74993   0.16667   0.00000  Uiso   1.00
C349   C     0.54756   0.70615   0.17388   0.00000  Uiso   1.00
C350   C     0.59305   0.79283   0.15979   0.00000  Uiso   1.00
C351   C     0.90587   0.71800   0.13637   0.00000  Uiso   1.00
C352   C     0.90547   0.78109   0.19734   0.00000  Uiso   1.00
C353   C     0.59358   0.70666   0.17268   0.00000  Uiso   1.00
C354   C     0.61653   0.74990   0.16633   0.00000  Uiso   1.00
C355   C     0.88279   0.74972   0.16676   0.00000  Uiso   1.00
C356   C     0.52386   0.74940   0.16668   0.00000  Uiso   1.00
C357   C     0.97515   0.74920   0.16698   0.00000  Uiso   1.00
C358   C     0.51635   0.84553   0.10526   0.00000  Uiso   1.00
C359   C     0.77786   0.60462   0.19672   0.00000  Uiso   1.00
C360   C     0.99598   0.89535   0.10048   0.00000  Uiso   1.00
C361   C     0.98669   0.71140   0.06120   0.00000  Uiso   1.00
C362   C     0.50855   0.67586   0.02649   0.00000  Uiso   1.00
C363   C     0.98528   0.78668   0.27276   0.00000  Uiso   1.00
C364   C     0.50812   0.82162   0.30684   0.00000  Uiso   1.00
C365   C     0.51943   0.65231   0.22845   0.00000  Uiso   1.00
C366   C     0.50293   0.60096   0.23376   0.00000  Uiso   1.00
C367   C     0.78536   0.51659   0.27149   0.00000  Uiso   1.00
C368   C     0.81819   0.99287   0.30568   0.00000  Uiso   1.00
C369   C     0.66262   0.98152   0.23026   0.00000  Uiso   1.00
C370   C     0.71234   0.89621   0.17808   0.00000  Uiso   1.00
C371   C     0.61614   0.50208   0.23517   0.00000  Uiso   1.00
C372   C     0.71460   0.51752   0.06163   0.00000  Uiso   1.00
C373   C     0.68191   0.99354   0.02769   0.00000  Uiso   1.00
C374   C     0.83756   0.98009   0.10258   0.00000  Uiso   1.00
C375   C     0.88463   0.99855   0.09719   0.00000  Uiso   1.00
C376   C     0.72213   0.60492   0.13659   0.00000  Uiso   1.00
C377   C     0.78773   0.89604   0.15546   0.00000  Uiso   1.00
C378   C     0.77801   0.55391   0.19806   0.00000  Uiso   1.00
C379   C     0.71111   0.94698   0.17658   0.00000  Uiso   1.00
C380   C     0.72199   0.55423   0.13520   0.00000  Uiso   1.00
Cu381  Cu    0.75000   0.79821   0.16667   0.00000  Uiso   1.00
Cu382  Cu    0.75000   0.70179   0.16667   0.00000  Uiso   1.00
F383   F     0.80563   0.62906   0.22629   0.00000  Uiso   1.00
F384   F     0.67494   0.87344   0.19211   0.00000  Uiso   1.00
F385   F     0.69433   0.62966   0.10705   0.00000  Uiso   1.00
F386   F     0.82546   0.87317   0.14231   0.00000  Uiso   1.00
H387   H     0.61021   0.82656   0.15471   0.00000  Uiso   1.00
H388   H     0.51144   0.73955   0.06961   0.00000  Uiso   1.00
H389   H     0.95779   0.72798   0.04249   0.00000  Uiso   1.00
H390   H     0.98408   0.64883   0.01426   0.00000  Uiso   1.00
H391   H     0.52184   0.69533   0.32755   0.00000  Uiso   1.00
H392   H     0.53632   0.65724   0.04504   0.00000  Uiso   1.00
H393   H     0.50923   0.75749   0.26420   0.00000  Uiso   1.00
H394   H     0.95592   0.77138   0.29201   0.00000  Uiso   1.00
H395   H     0.98448   0.84989   0.31890   0.00000  Uiso   1.00
H396   H     0.52057   0.80199   0.00593   0.00000  Uiso   1.00
H397   H     0.53658   0.83874   0.28780   0.00000  Uiso   1.00
H398   H     0.88818   0.69364   0.11267   0.00000  Uiso   1.00
H399   H     0.99381   0.67675   0.24394   0.00000  Uiso   1.00
H400   H     0.55066   0.65560   0.24962   0.00000  Uiso   1.00
H401   H     0.52781   0.57549   0.21860   0.00000  Uiso   1.00
H402   H     0.99734   0.59243   0.27298   0.00000  Uiso   1.00
H403   H     0.97131   0.59661   0.21384   0.00000  Uiso   1.00
H404   H     0.75932   0.98971   0.26350   0.00000  Uiso   1.00
H405   H     0.77033   0.54812   0.29050   0.00000  Uiso   1.00
H406   H     0.84327   0.51943   0.31747   0.00000  Uiso   1.00
H407   H     0.80034   0.97881   0.00485   0.00000  Uiso   1.00
H408   H     0.83501   0.96243   0.28693   0.00000  Uiso   1.00
H409   H     0.88747   0.80564   0.22097   0.00000  Uiso   1.00
H410   H     0.68622   0.50934   0.24292   0.00000  Uiso   1.00
H411   H     0.66491   0.94900   0.25396   0.00000  Uiso   1.00
H412   H     0.60911   0.51125   0.27393   0.00000  Uiso   1.00
H413   H     0.61302   0.53514   0.21260   0.00000  Uiso   1.00
H414   H     0.59153   0.97524   0.22277   0.00000  Uiso   1.00
H415   H     0.74108   0.99092   0.06947   0.00000  Uiso   1.00
H416   H     0.72907   0.54927   0.04250   0.00000  Uiso   1.00
H417   H     0.65630   0.51982   0.01620   0.00000  Uiso   1.00
H418   H     0.69973   0.97990   0.32832   0.00000  Uiso   1.00
H419   H     0.66574   0.96279   0.04654   0.00000  Uiso   1.00
H420   H     0.61122   0.67301   0.17727   0.00000  Uiso   1.00
H421   H     0.81475   0.50870   0.08953   0.00000  Uiso   1.00
H422   H     0.83425   0.94741   0.07939   0.00000  Uiso   1.00
H423   H     0.88884   0.53177   0.11913   0.00000  Uiso   1.00
H424   H     0.89186   0.50682   0.05825   0.00000  Uiso   1.00
H425   H     0.90840   0.97085   0.11005   0.00000  Uiso   1.00
H426   H     0.99219   0.81909   0.09093   0.00000  Uiso   1.00
H427   H     0.54728   0.84450   0.08286   0.00000  Uiso   1.00
H428   H     0.51924   0.92287   0.11438   0.00000  Uiso   1.00
H429   H     0.98878   0.90315   0.06153   0.00000  Uiso   1.00
H430   H     0.96464   0.89722   0.12185   0.00000  Uiso   1.00
N431   N     0.75000   0.62935   0.16667   0.00000  Uiso   1.00
N432   N     0.75000   0.87065   0.16667   0.00000  Uiso   1.00
O433   O     0.68573   0.79071   0.16667   0.00000  Uiso   1.00
O434   O     0.97346   0.68688   0.10400   0.00000  Uiso   1.00
O435   O     0.97265   0.81142   0.23004   0.00000  Uiso   1.00
O436   O     0.52615   0.66250   0.17846   0.00000  Uiso   1.00
O437   O     0.80762   0.53075   0.22836   0.00000  Uiso   1.00
O438   O     0.67073   0.97014   0.18084   0.00000  Uiso   1.00
O439   O     0.69238   0.53137   0.10488   0.00000  Uiso   1.00
O440   O     0.82918   0.96981   0.15223   0.00000  Uiso   1.00
O441   O     0.81427   0.70929   0.16666   0.00000  Uiso   1.00
O442   O     0.81427   0.79072   0.16666   0.00000  Uiso   1.00
O443   O     0.68573   0.70928   0.16667   0.00000  Uiso   1.00
O444   O     0.75000   0.79071   0.09613   0.00000  Uiso   1.00
O445   O     0.75000   0.70929   0.23720   0.00000  Uiso   1.00
O446   O     0.75000   0.79071   0.23720   0.00000  Uiso   1.00
O447   O     0.75000   0.70929   0.09613   0.00000  Uiso   1.00
O448   O     0.52509   0.83637   0.15494   0.00000  Uiso   1.00
C449   C     0.16491   0.25003   0.49985   0.00000  Uiso   1.00
C450   C     0.28886   0.44680   0.49007   0.00000  Uiso   1.00
C451   C     0.25002   0.25003   0.40685   0.00000  Uiso   1.00
C452   C     0.24999   0.24997   0.59315   0.00000  Uiso   1.00
C453   C     0.25000   0.02767   0.49994   0.00000  Uiso   1.00
C454   C     0.24997   0.47324   0.49993   0.00000  Uiso   1.00
C455   C     0.25002   0.25003   0.35515   0.00000  Uiso   1.00
C456   C     0.25001   0.24996   0.64485   0.00000  Uiso   1.00
C457   C     0.04702   0.29288   0.49241   0.00000  Uiso   1.00
C458   C     0.45187   0.21869   0.46816   0.00000  Uiso   1.00
C459   C     0.45143   0.27985   0.53247   0.00000  Uiso   1.00
C460   C     0.33486   0.24993   0.50000   0.00000  Uiso   1.00
C461   C     0.04756   0.20615   0.50721   0.00000  Uiso   1.00
C462   C     0.09305   0.29283   0.49313   0.00000  Uiso   1.00
C463   C     0.40587   0.21800   0.46971   0.00000  Uiso   1.00
C464   C     0.40547   0.28109   0.53068   0.00000  Uiso   1.00
C465   C     0.09358   0.20666   0.50602   0.00000  Uiso   1.00
C466   C     0.11653   0.24990   0.49966   0.00000  Uiso   1.00
C467   C     0.38279   0.24972   0.50009   0.00000  Uiso   1.00
C468   C     0.02386   0.24940   0.50001   0.00000  Uiso   1.00
C469   C     0.47515   0.24920   0.50032   0.00000  Uiso   1.00
C470   C     0.01635   0.34553   0.43859   0.00000  Uiso   1.00
C471   C     0.27786   0.10462   0.53005   0.00000  Uiso   1.00
C472   C     0.49598   0.39535   0.43381   0.00000  Uiso   1.00
C473   C     0.48669   0.21140   0.39454   0.00000  Uiso   1.00
C474   C     0.00855   0.17586   0.35982   0.00000  Uiso   1.00
C475   C     0.48528   0.28668   0.60610   0.00000  Uiso   1.00
C476   C     0.00812   0.32162   0.64018   0.00000  Uiso   1.00
C477   C     0.01943   0.15231   0.56178   0.00000  Uiso   1.00
C478   C     0.00293   0.10096   0.56709   0.00000  Uiso   1.00
C479   C     0.28536   0.01659   0.60482   0.00000  Uiso   1.00
C480   C     0.31819   0.49287   0.63901   0.00000  Uiso   1.00
C481   C     0.16262   0.48152   0.56359   0.00000  Uiso   1.00
C482   C     0.21234   0.39621   0.51142   0.00000  Uiso   1.00
C483   C     0.11614   0.00208   0.56850   0.00000  Uiso   1.00
C484   C     0.21460   0.01752   0.39496   0.00000  Uiso   1.00
C485   C     0.18191   0.49354   0.36102   0.00000  Uiso   1.00
C486   C     0.33756   0.48009   0.43591   0.00000  Uiso   1.00
C487   C     0.38463   0.49855   0.43053   0.00000  Uiso   1.00
C488   C     0.22213   0.10492   0.46993   0.00000  Uiso   1.00
C489   C     0.28773   0.39604   0.48879   0.00000  Uiso   1.00
C490   C     0.27801   0.05391   0.53139   0.00000  Uiso   1.00
C491   C     0.21111   0.44698   0.50992   0.00000  Uiso   1.00
C492   C     0.22199   0.05423   0.46853   0.00000  Uiso   1.00
Cu493  Cu    0.25000   0.29821   0.50000   0.00000  Uiso   1.00
Cu494  Cu    0.25000   0.20179   0.50000   0.00000  Uiso   1.00
F495   F     0.30563   0.12906   0.55963   0.00000  Uiso   1.00
F496   F     0.17494   0.37344   0.52544   0.00000  Uiso   1.00
F497   F     0.19433   0.12966   0.44039   0.00000  Uiso   1.00
F498   F     0.32546   0.37317   0.47564   0.00000  Uiso   1.00
H499   H     0.11021   0.32656   0.48804   0.00000  Uiso   1.00
H500   H     0.01144   0.23955   0.40295   0.00000  Uiso   1.00
H501   H     0.45779   0.22798   0.37582   0.00000  Uiso   1.00
H502   H     0.48408   0.14883   0.34760   0.00000  Uiso   1.00
H503   H     0.02184   0.19533   0.66088   0.00000  Uiso   1.00
H504   H     0.03632   0.15724   0.37837   0.00000  Uiso   1.00
H505   H     0.00923   0.25749   0.59753   0.00000  Uiso   1.00
H506   H     0.45592   0.27138   0.62535   0.00000  Uiso   1.00
H507   H     0.48448   0.34989   0.65224   0.00000  Uiso   1.00
H508   H     0.02057   0.30199   0.33927   0.00000  Uiso   1.00
H509   H     0.03658   0.33874   0.62114   0.00000  Uiso   1.00
H510   H     0.38818   0.19364   0.44600   0.00000  Uiso   1.00
H511   H     0.49381   0.17675   0.57728   0.00000  Uiso   1.00
H512   H     0.05066   0.15560   0.58295   0.00000  Uiso   1.00
H513   H     0.02781   0.07549   0.55194   0.00000  Uiso   1.00
H514   H     0.49734   0.09243   0.60631   0.00000  Uiso   1.00
H515   H     0.47131   0.09661   0.54717   0.00000  Uiso   1.00
H516   H     0.25932   0.48971   0.59683   0.00000  Uiso   1.00
H517   H     0.27033   0.04812   0.62383   0.00000  Uiso   1.00
H518   H     0.34327   0.01943   0.65080   0.00000  Uiso   1.00
H519   H     0.30034   0.47881   0.33818   0.00000  Uiso   1.00
H520   H     0.33501   0.46243   0.62027   0.00000  Uiso   1.00
H521   H     0.38747   0.30564   0.55430   0.00000  Uiso   1.00
H522   H     0.18622   0.00934   0.57625   0.00000  Uiso   1.00
H523   H     0.16491   0.44900   0.58730   0.00000  Uiso   1.00
H524   H     0.10911   0.01125   0.60726   0.00000  Uiso   1.00
H525   H     0.11302   0.03514   0.54593   0.00000  Uiso   1.00
H526   H     0.09153   0.47524   0.55610   0.00000  Uiso   1.00
H527   H     0.24108   0.49092   0.40280   0.00000  Uiso   1.00
H528   H     0.22907   0.04927   0.37583   0.00000  Uiso   1.00
H529   H     0.15630   0.01982   0.34953   0.00000  Uiso   1.00
H530   H     0.19973   0.47990   0.66165   0.00000  Uiso   1.00
H531   H     0.16574   0.46279   0.37987   0.00000  Uiso   1.00
H532   H     0.11122   0.17301   0.51061   0.00000  Uiso   1.00
H533   H     0.31475   0.00870   0.42286   0.00000  Uiso   1.00
H534   H     0.33425   0.44741   0.41272   0.00000  Uiso   1.00
H535   H     0.38884   0.03177   0.45246   0.00000  Uiso   1.00
H536   H     0.39186   0.00682   0.39158   0.00000  Uiso   1.00
H537   H     0.40840   0.47085   0.44339   0.00000  Uiso   1.00
H538   H     0.49219   0.31909   0.42426   0.00000  Uiso   1.00
H539   H     0.04728   0.34450   0.41619   0.00000  Uiso   1.00
H540   H     0.01924   0.42287   0.44772   0.00000  Uiso   1.00
H541   H     0.48878   0.40315   0.39486   0.00000  Uiso   1.00
H542   H     0.46464   0.39722   0.45518   0.00000  Uiso   1.00
N543   N     0.25000   0.12935   0.50000   0.00000  Uiso   1.00
N544   N     0.25000   0.37065   0.50000   0.00000  Uiso   1.00
O545   O     0.18573   0.29071   0.50000   0.00000  Uiso   1.00
O546   O     0.47346   0.18688   0.43733   0.00000  Uiso   1.00
O547   O     0.47265   0.31142   0.56337   0.00000  Uiso   1.00
O548   O     0.02615   0.16250   0.51179   0.00000  Uiso   1.00
O549   O     0.30762   0.03075   0.56169   0.00000  Uiso   1.00
O550   O     0.17073   0.47014   0.51418   0.00000  Uiso   1.00
O551   O     0.19238   0.03137   0.43821   0.00000  Uiso   1.00
O552   O     0.32918   0.46981   0.48556   0.00000  Uiso   1.00
O553   O     0.31427   0.20929   0.50000   0.00000  Uiso   1.00
O554   O     0.31427   0.29072   0.50000   0.00000  Uiso   1.00
O555   O     0.18573   0.20928   0.50000   0.00000  Uiso   1.00
O556   O     0.25000   0.29071   0.42946   0.00000  Uiso   1.00
O557   O     0.25000   0.20929   0.57054   0.00000  Uiso   1.00
O558   O     0.25000   0.29071   0.57054   0.00000  Uiso   1.00
O559   O     0.25000   0.20929   0.42946   0.00000  Uiso   1.00
O560   O     0.02509   0.33637   0.48827   0.00000  Uiso   1.00
C561   C     0.66491   0.25003   0.49985   0.00000  Uiso   1.00
C562   C     0.78886   0.44680   0.49007   0.00000  Uiso   1.00
C563   C     0.75002   0.25003   0.40685   0.00000  Uiso   1.00
C564   C     0.74999   0.24997   0.59315   0.00000  Uiso   1.00
C565   C     0.75000   0.02767   0.49994   0.00000  Uiso   1.00
C566   C     0.74997   0.47324   0.49993   0.00000  Uiso   1.00
C567   C     0.75002   0.25003   0.35515   0.00000  Uiso   1.00
C568   C     0.75001   0.24996   0.64485   0.00000  Uiso   1.00
C569   C     0.54702   0.29288   0.49241   0.00000  Uiso   1.00
C570   C     0.95187   0.21869   0.46816   0.00000  Uiso   1.00
C571   C     0.95143   0.27985   0.53247   0.00000  Uiso   1.00
C572   C     0.83486   0.24993   0.50000   0.00000  Uiso   1.00
C573   C     0.54756   0.20615   0.50721   0.00000  Uiso   1.00
C574   C     0.59305   0.29283   0.49313   0.00000  Uiso   1.00
C575   C     0.90587   0.21800   0.46971   0.00000  Uiso   1.00
C576   C     0.90547   0.28109   0.53068   0.00000  Uiso   1.00
C577   C     0.59358   0.20666   0.50602   0.00000  Uiso   1.00
C578   C     0.61653   0.24990   0.49966   0.00000  Uiso   1.00
C579   C     0.88279   0.24972   0.50009   0.00000  Uiso   1.00
C580   C     0.52386   0.24940   0.50001   0.00000  Uiso   1.00
C581   C     0.97515   0.24920   0.50032   0.00000  Uiso   1.00
C582   C     0.51635   0.34553   0.43859   0.00000  Uiso   1.00
C583   C     0.77786   0.10462   0.53005   0.00000  Uiso   1.00
C584   C     0.99598   0.39535   0.43381   0.00000  Uiso   1.00
C585   C     0.98669   0.21140   0.39454   0.00000  Uiso   1.00
C586   C     0.50855   0.17586   0.35982   0.00000  Uiso   1.00
C587   C     0.98528   0.28668   0.60610   0.00000  Uiso   1.00
C588   C     0.50812   0.32162   0.64018   0.00000  Uiso   1.00
C589   C     0.51943   0.15231   0.56178   0.00000  Uiso   1.00
C590   C     0.50293   0.10096   0.56709   0.00000  Uiso   1.00
C591   C     0.78536   0.01659   0.60482   0.00000  Uiso   1.00
C592   C     0.81819   0.49287   0.63901   0.00000  Uiso   1.00
C593   C     0.66262   0.48152   0.56359   0.00000  Uiso   1.00
C594   C     0.71234   0.39621   0.51142   0.00000  Uiso   1.00
C595   C     0.61614   0.00208   0.56850   0.00000  Uiso   1.00
C596   C     0.71460   0.01752   0.39496   0.00000  Uiso   1.00
C597   C     0.68191   0.49354   0.36102   0.00000  Uiso   1.00
C598   C     0.83756   0.48009   0.43591   0.00000  Uiso   1.00
C599   C     0.88463   0.49855   0.43053   0.00000  Uiso   1.00
C600   C     0.72213   0.10492   0.46993   0.00000  Uiso   1.00
C601   C     0.78773   0.39604   0.48879   0.00000  Uiso   1.00
C602   C     0.77801   0.05391   0.53139   0.00000  Uiso   1.00
C603   C     0.71111   0.44698   0.50992   0.00000  Uiso   1.00
C604   C     0.72199   0.05423   0.46853   0.00000  Uiso   1.00
Cu605  Cu    0.75000   0.29821   0.50000   0.00000  Uiso   1.00
Cu606  Cu    0.75000   0.20179   0.50000   0.00000  Uiso   1.00
F607   F     0.80563   0.12906   0.55963   0.00000  Uiso   1.00
F608   F     0.67494   0.37344   0.52544   0.00000  Uiso   1.00
F609   F     0.69433   0.12966   0.44039   0.00000  Uiso   1.00
F610   F     0.82546   0.37317   0.47564   0.00000  Uiso   1.00
H611   H     0.61021   0.32656   0.48804   0.00000  Uiso   1.00
H612   H     0.51144   0.23955   0.40295   0.00000  Uiso   1.00
H613   H     0.95779   0.22798   0.37582   0.00000  Uiso   1.00
H614   H     0.98408   0.14883   0.34760   0.00000  Uiso   1.00
H615   H     0.52184   0.19533   0.66088   0.00000  Uiso   1.00
H616   H     0.53632   0.15724   0.37837   0.00000  Uiso   1.00
H617   H     0.50923   0.25749   0.59753   0.00000  Uiso   1.00
H618   H     0.95592   0.27138   0.62535   0.00000  Uiso   1.00
H619   H     0.98448   0.34989   0.65224   0.00000  Uiso   1.00
H620   H     0.52057   0.30199   0.33927   0.00000  Uiso   1.00
H621   H     0.53658   0.33874   0.62114   0.00000  Uiso   1.00
H622   H     0.88818   0.19364   0.44600   0.00000  Uiso   1.00
H623   H     0.99381   0.17675   0.57728   0.00000  Uiso   1.00
H624   H     0.55066   0.15560   0.58295   0.00000  Uiso   1.00
H625   H     0.52781   0.07549   0.55194   0.00000  Uiso   1.00
H626   H     0.99734   0.09243   0.60631   0.00000  Uiso   1.00
H627   H     0.97131   0.09661   0.54717   0.00000  Uiso   1.00
H628   H     0.75932   0.48971   0.59683   0.00000  Uiso   1.00
H629   H     0.77033   0.04812   0.62383   0.00000  Uiso   1.00
H630   H     0.84327   0.01943   0.65080   0.00000  Uiso   1.00
H631   H     0.80034   0.47881   0.33818   0.00000  Uiso   1.00
H632   H     0.83501   0.46243   0.62027   0.00000  Uiso   1.00
H633   H     0.88747   0.30564   0.55430   0.00000  Uiso   1.00
H634   H     0.68622   0.00934   0.57625   0.00000  Uiso   1.00
H635   H     0.66491   0.44900   0.58730   0.00000  Uiso   1.00
H636   H     0.60911   0.01125   0.60726   0.00000  Uiso   1.00
H637   H     0.61302   0.03514   0.54593   0.00000  Uiso   1.00
H638   H     0.59153   0.47524   0.55610   0.00000  Uiso   1.00
H639   H     0.74108   0.49092   0.40280   0.00000  Uiso   1.00
H640   H     0.72907   0.04927   0.37583   0.00000  Uiso   1.00
H641   H     0.65630   0.01982   0.34953   0.00000  Uiso   1.00
H642   H     0.69973   0.47990   0.66165   0.00000  Uiso   1.00
H643   H     0.66574   0.46279   0.37987   0.00000  Uiso   1.00
H644   H     0.61122   0.17301   0.51061   0.00000  Uiso   1.00
H645   H     0.81475   0.00870   0.42286   0.00000  Uiso   1.00
H646   H     0.83425   0.44741   0.41272   0.00000  Uiso   1.00
H647   H     0.88884   0.03177   0.45246   0.00000  Uiso   1.00
H648   H     0.89186   0.00682   0.39158   0.00000  Uiso   1.00
H649   H     0.90840   0.47085   0.44339   0.00000  Uiso   1.00
H650   H     0.99219   0.31909   0.42426   0.00000  Uiso   1.00
H651   H     0.54728   0.34450   0.41619   0.00000  Uiso   1.00
H652   H     0.51924   0.42287   0.44772   0.00000  Uiso   1.00
H653   H     0.98878   0.40315   0.39486   0.00000  Uiso   1.00
H654   H     0.96464   0.39722   0.45518   0.00000  Uiso   1.00
N655   N     0.75000   0.12935   0.50000   0.00000  Uiso   1.00
N656   N     0.75000   0.37065   0.50000   0.00000  Uiso   1.00
O657   O     0.68573   0.29071   0.50000   0.00000  Uiso   1.00
O658   O     0.97346   0.18688   0.43733   0.00000  Uiso   1.00
O659   O     0.97265   0.31142   0.56337   0.00000  Uiso   1.00
O660   O     0.52615   0.16250   0.51179   0.00000  Uiso   1.00
O661   O     0.80762   0.03075   0.56169   0.00000  Uiso   1.00
O662   O     0.67073   0.47014   0.51418   0.00000  Uiso   1.00
O663   O     0.69238   0.03137   0.43821   0.00000  Uiso   1.00
O664   O     0.82918   0.46981   0.48556   0.00000  Uiso   1.00
O665   O     0.81427   0.20929   0.50000   0.00000  Uiso   1.00
O666   O     0.81427   0.29072   0.50000   0.00000  Uiso   1.00
O667   O     0.68573   0.20928   0.50000   0.00000  Uiso   1.00
O668   O     0.75000   0.29071   0.42946   0.00000  Uiso   1.00
O669   O     0.75000   0.20929   0.57054   0.00000  Uiso   1.00
O670   O     0.75000   0.29071   0.57054   0.00000  Uiso   1.00
O671   O     0.75000   0.20929   0.42946   0.00000  Uiso   1.00
O672   O     0.52509   0.33637   0.48827   0.00000  Uiso   1.00
C673   C     0.16491   0.75003   0.49985   0.00000  Uiso   1.00
C674   C     0.28886   0.94680   0.49007   0.00000  Uiso   1.00
C675   C     0.25002   0.75003   0.40685   0.00000  Uiso   1.00
C676   C     0.24999   0.74997   0.59315   0.00000  Uiso   1.00
C677   C     0.25000   0.52767   0.49994   0.00000  Uiso   1.00
C678   C     0.24997   0.97324   0.49993   0.00000  Uiso   1.00
C679   C     0.25002   0.75003   0.35515   0.00000  Uiso   1.00
C680   C     0.25001   0.74996   0.64485   0.00000  Uiso   1.00
C681   C     0.04702   0.79288   0.49241   0.00000  Uiso   1.00
C682   C     0.45187   0.71869   0.46816   0.00000  Uiso   1.00
C683   C     0.45143   0.77985   0.53247   0.00000  Uiso   1.00
C684   C     0.33486   0.74993   0.50000   0.00000  Uiso   1.00
C685   C     0.04756   0.70615   0.50721   0.00000  Uiso   1.00
C686   C     0.09305   0.79283   0.49313   0.00000  Uiso   1.00
C687   C     0.40587   0.71800   0.46971   0.00000  Uiso   1.00
C688   C     0.40547   0.78109   0.53068   0.00000  Uiso   1.00
C689   C     0.09358   0.70666   0.50602   0.00000  Uiso   1.00
C690   C     0.11653   0.74990   0.49966   0.00000  Uiso   1.00
C691   C     0.38279   0.74972   0.50009   0.00000  Uiso   1.00
C692   C     0.02386   0.74940   0.50001   0.00000  Uiso   1.00
C693   C     0.47515   0.74920   0.50032   0.00000  Uiso   1.00
C694   C     0.01635   0.84553   0.43859   0.00000  Uiso   1.00
C695   C     0.27786   0.60462   0.53005   0.00000  Uiso   1.00
C696   C     0.49598   0.89535   0.43381   0.00000  Uiso   1.00
C697   C     0.48669   0.71140   0.39454   0.00000  Uiso   1.00
C698   C     0.00855   0.67586   0.35982   0.00000  Uiso   1.00
C699   C     0.48528   0.78668   0.60610   0.00000  Uiso   1.00
C700   C     0.00812   0.82162   0.64018   0.00000  Uiso   1.00
C701   C     0.01943   0.65231   0.56178   0.00000  Uiso   1.00
C702   C     0.00293   0.60096   0.56709   0.00000  Uiso   1.00
C703   C     0.28536   0.51659   0.60482   0.00000  Uiso   1.00
C704   C     0.31819   0.99287   0.63901   0.00000  Uiso   1.00
C705   C     0.16262   0.98152   0.56359   0.00000  Uiso   1.00
C706   C     0.21234   0.89621   0.51142   0.00000  Uiso   1.00
C707   C     0.11614   0.50208   0.56850   0.00000  Uiso   1.00
C708   C     0.21460   0.51752   0.39496   0.00000  Uiso   1.00
C709   C     0.18191   0.99354   0.36102   0.00000  Uiso   1.00
C710   C     0.33756   0.98009   0.43591   0.00000  Uiso   1.00
C711   C     0.38463   0.99855   0.43053   0.00000  Uiso   1.00
C712   C     0.22213   0.60492   0.46993   0.00000  Uiso   1.00
C713   C     0.28773   0.89604   0.48879   0.00000  Uiso   1.00
C714   C     0.27801   0.55391   0.53139   0.00000  Uiso   1.00
C715   C     0.21111   0.94698   0.50992   0.00000  Uiso   1.00
C716   C     0.22199   0.55423   0.46853   0.00000  Uiso   1.00
Cu717  Cu    0.25000   0.79821   0.50000   0.00000  Uiso   1.00
Cu718  Cu    0.25000   0.70179   0.50000   0.00000  Uiso   1.00
F719   F     0.30563   0.62906   0.55963   0.00000  Uiso   1.00
F720   F     0.17494   0.87344   0.52544   0.00000  Uiso   1.00
F721   F     0.19433   0.62966   0.44039   0.00000  Uiso   1.00
F722   F     0.32546   0.87317   0.47564   0.00000  Uiso   1.00
H723   H     0.11021   0.82656   0.48804   0.00000  Uiso   1.00
H724   H     0.01144   0.73955   0.40295   0.00000  Uiso   1.00
H725   H     0.45779   0.72798   0.37582   0.00000  Uiso   1.00
H726   H     0.48408   0.64883   0.34760   0.00000  Uiso   1.00
H727   H     0.02184   0.69533   0.66088   0.00000  Uiso   1.00
H728   H     0.03632   0.65724   0.37837   0.00000  Uiso   1.00
H729   H     0.00923   0.75749   0.59753   0.00000  Uiso   1.00
H730   H     0.45592   0.77138   0.62535   0.00000  Uiso   1.00
H731   H     0.48448   0.84989   0.65224   0.00000  Uiso   1.00
H732   H     0.02057   0.80199   0.33927   0.00000  Uiso   1.00
H733   H     0.03658   0.83874   0.62114   0.00000  Uiso   1.00
H734   H     0.38818   0.69364   0.44600   0.00000  Uiso   1.00
H735   H     0.49381   0.67675   0.57728   0.00000  Uiso   1.00
H736   H     0.05066   0.65560   0.58295   0.00000  Uiso   1.00
H737   H     0.02781   0.57549   0.55194   0.00000  Uiso   1.00
H738   H     0.49734   0.59243   0.60631   0.00000  Uiso   1.00
H739   H     0.47131   0.59661   0.54717   0.00000  Uiso   1.00
H740   H     0.25932   0.98971   0.59683   0.00000  Uiso   1.00
H741   H     0.27033   0.54812   0.62383   0.00000  Uiso   1.00
H742   H     0.34327   0.51943   0.65080   0.00000  Uiso   1.00
H743   H     0.30034   0.97881   0.33818   0.00000  Uiso   1.00
H744   H     0.33501   0.96243   0.62027   0.00000  Uiso   1.00
H745   H     0.38747   0.80564   0.55430   0.00000  Uiso   1.00
H746   H     0.18622   0.50934   0.57625   0.00000  Uiso   1.00
H747   H     0.16491   0.94900   0.58730   0.00000  Uiso   1.00
H748   H     0.10911   0.51125   0.60726   0.00000  Uiso   1.00
H749   H     0.11302   0.53514   0.54593   0.00000  Uiso   1.00
H750   H     0.09153   0.97524   0.55610   0.00000  Uiso   1.00
H751   H     0.24108   0.99092   0.40280   0.00000  Uiso   1.00
H752   H     0.22907   0.54927   0.37583   0.00000  Uiso   1.00
H753   H     0.15630   0.51982   0.34953   0.00000  Uiso   1.00
H754   H     0.19973   0.97990   0.66165   0.00000  Uiso   1.00
H755   H     0.16574   0.96279   0.37987   0.00000  Uiso   1.00
H756   H     0.11122   0.67301   0.51061   0.00000  Uiso   1.00
H757   H     0.31475   0.50870   0.42286   0.00000  Uiso   1.00
H758   H     0.33425   0.94741   0.41272   0.00000  Uiso   1.00
H759   H     0.38884   0.53177   0.45246   0.00000  Uiso   1.00
H760   H     0.39186   0.50682   0.39158   0.00000  Uiso   1.00
H761   H     0.40840   0.97085   0.44339   0.00000  Uiso   1.00
H762   H     0.49219   0.81909   0.42426   0.00000  Uiso   1.00
H763   H     0.04728   0.84450   0.41619   0.00000  Uiso   1.00
H764   H     0.01924   0.92287   0.44772   0.00000  Uiso   1.00
H765   H     0.48878   0.90315   0.39486   0.00000  Uiso   1.00
H766   H     0.46464   0.89722   0.45518   0.00000  Uiso   1.00
N767   N     0.25000   0.62935   0.50000   0.00000  Uiso   1.00
N768   N     0.25000   0.87065   0.50000   0.00000  Uiso   1.00
O769   O     0.18573   0.79071   0.50000   0.00000  Uiso   1.00
O770   O     0.47346   0.68688   0.43733   0.00000  Uiso   1.00
O771   O     0.47265   0.81142   0.56337   0.00000  Uiso   1.00
O772   O     0.02615   0.66250   0.51179   0.00000  Uiso   1.00
O773   O     0.30762   0.53075   0.56169   0.00000  Uiso   1.00
O774   O     0.17073   0.97014   0.51418   0.00000  Uiso   1.00
O775   O     0.19238   0.53137   0.43821   0.00000  Uiso   1.00
O776   O     0.32918   0.96981   0.48556   0.00000  Uiso   1.00
O777   O     0.31427   0.70929   0.50000   0.00000  Uiso   1.00
O778   O     0.31427   0.79072   0.50000   0.00000  Uiso   1.00
O779   O     0.18573   0.70928   0.50000   0.00000  Uiso   1.00
O780   O     0.25000   0.79071   0.42946   0.00000  Uiso   1.00
O781   O     0.25000   0.70929   0.57054   0.00000  Uiso   1.00
O782   O     0.25000   0.79071   0.57054   0.00000  Uiso   1.00
O783   O     0.25000   0.70929   0.42946   0.00000  Uiso   1.00
O784   O     0.02509   0.83637   0.48827   0.00000  Uiso   1.00
C785   C     0.66491   0.75003   0.49985   0.00000  Uiso   1.00
C786   C     0.78886   0.94680   0.49007   0.00000  Uiso   1.00
C787   C     0.75002   0.75003   0.40685   0.00000  Uiso   1.00
C788   C     0.74999   0.74997   0.59315   0.00000  Uiso   1.00
C789   C     0.75000   0.52767   0.49994   0.00000  Uiso   1.00
C790   C     0.74997   0.97324   0.49993   0.00000  Uiso   1.00
C791   C     0.75002   0.75003   0.35515   0.00000  Uiso   1.00
C792   C     0.75001   0.74996   0.64485   0.00000  Uiso   1.00
C793   C     0.54702   0.79288   0.49241   0.00000  Uiso   1.00
C794   C     0.95187   0.71869   0.46816   0.00000  Uiso   1.00
C795   C     0.95143   0.77985   0.53247   0.00000  Uiso   1.00
C796   C     0.83486   0.74993   0.50000   0.00000  Uiso   1.00
C797   C     0.54756   0.70615   0.50721   0.00000  Uiso   1.00
C798   C     0.59305   0.79283   0.49313   0.00000  Uiso   1.00
C799   C     0.90587   0.71800   0.46971   0.00000  Uiso   1.00
C800   C     0.90547   0.78109   0.53068   0.00000  Uiso   1.00
C801   C     0.59358   0.70666   0.50602   0.00000  Uiso   1.00
C802   C     0.61653   0.74990   0.49966   0.00000  Uiso   1.00
C803   C     0.88279   0.74972   0.50009   0.00000  Uiso   1.00
C804   C     0.52386   0.74940   0.50001   0.00000  Uiso   1.00
C805   C     0.97515   0.74920   0.50032   0.00000  Uiso   1.00
C806   C     0.51635   0.84553   0.43859   0.00000  Uiso   1.00
C807   C     0.77786   0.60462   0.53005   0.00000  Uiso   1.00
C808   C     0.99598   0.89535   0.43381   0.00000  Uiso   1.00
C809   C     0.98669   0.71140   0.39454   0.00000  Uiso   1.00
C810   C     0.50855   0.67586   0.35982   0.00000  Uiso   1.00
C811   C     0.98528   0.78668   0.60610   0.00000  Uiso   1.00
C812   C     0.50812   0.82162   0.64018   0.00000  Uiso   1.00
C813   C     0.51943   0.65231   0.56178   0.00000  Uiso   1.00
C814   C     0.50293   0.60096   0.56709   0.00000  Uiso   1.00
C815   C     0.78536   0.51659   0.60482   0.00000  Uiso   1.00
C816   C     0.81819   0.99287   0.63901   0.00000  Uiso   1.00
C817   C     0.66262   0.98152   0.56359   0.00000  Uiso   1.00
C818   C     0.71234   0.89621   0.51142   0.00000  Uiso   1.00
C819   C     0.61614   0.50208   0.56850   0.00000  Uiso   1.00
C820   C     0.71460   0.51752   0.39496   0.00000  Uiso   1.00
C821   C     0.68191   0.99354   0.36102   0.00000  Uiso   1.00
C822   C     0.83756   0.98009   0.43591   0.00000  Uiso   1.00
C823   C     0.88463   0.99855   0.43053   0.00000  Uiso   1.00
C824   C     0.72213   0.60492   0.46993   0.00000  Uiso   1.00
C825   C     0.78773   0.89604   0.48879   0.00000  Uiso   1.00
C826   C     0.77801   0.55391   0.53139   0.00000  Uiso   1.00
C827   C     0.71111   0.94698   0.50992   0.00000  Uiso   1.00
C828   C     0.72199   0.55423   0.46853   0.00000  Uiso   1.00
Cu829  Cu    0.75000   0.79821   0.50000   0.00000  Uiso   1.00
Cu830  Cu    0.75000   0.70179   0.50000   0.00000  Uiso   1.00
F831   F     0.80563   0.62906   0.55963   0.00000  Uiso   1.00
F832   F     0.67494   0.87344   0.52544   0.00000  Uiso   1.00
F833   F     0.69433   0.62966   0.44039   0.00000  Uiso   1.00
F834   F     0.82546   0.87317   0.47564   0.00000  Uiso   1.00
H835   H     0.61021   0.82656   0.48804   0.00000  Uiso   1.00
H836   H     0.51144   0.73955   0.40295   0.00000  Uiso   1.00
H837   H     0.95779   0.72798   0.37582   0.00000  Uiso   1.00
H838   H     0.98408   0.64883   0.34760   0.00000  Uiso   1.00
H839   H     0.52184   0.69533   0.66088   0.00000  Uiso   1.00
H840   H     0.53632   0.65724   0.37837   0.00000  Uiso   1.00
H841   H     0.50923   0.75749   0.59753   0.00000  Uiso   1.00
H842   H     0.95592   0.77138   0.62535   0.00000  Uiso   1.00
H843   H     0.98448   0.84989   0.65224   0.00000  Uiso   1.00
H844   H     0.52057   0.80199   0.33927   0.00000  Uiso   1.00
H845   H     0.53658   0.83874   0.62114   0.00000  Uiso   1.00
H846   H     0.88818   0.69364   0.44600   0.00000  Uiso   1.00
H847   H     0.99381   0.67675   0.57728   0.00000  Uiso   1.00
H848   H     0.55066   0.65560   0.58295   0.00000  Uiso   1.00
H849   H     0.52781   0.57549   0.55194   0.00000  Uiso   1.00
H850   H     0.99734   0.59243   0.60631   0.00000  Uiso   1.00
H851   H     0.97131   0.59661   0.54717   0.00000  Uiso   1.00
H852   H     0.75932   0.98971   0.59683   0.00000  Uiso   1.00
H853   H     0.77033   0.54812   0.62383   0.00000  Uiso   1.00
H854   H     0.84327   0.51943   0.65080   0.00000  Uiso   1.00
H855   H     0.80034   0.97881   0.33818   0.00000  Uiso   1.00
H856   H     0.83501   0.96243   0.62027   0.00000  Uiso   1.00
H857   H     0.88747   0.80564   0.55430   0.00000  Uiso   1.00
H858   H     0.68622   0.50934   0.57625   0.00000  Uiso   1.00
H859   H     0.66491   0.94900   0.58730   0.00000  Uiso   1.00
H860   H     0.60911   0.51125   0.60726   0.00000  Uiso   1.00
H861   H     0.61302   0.53514   0.54593   0.00000  Uiso   1.00
H862   H     0.59153   0.97524   0.55610   0.00000  Uiso   1.00
H863   H     0.74108   0.99092   0.40280   0.00000  Uiso   1.00
H864   H     0.72907   0.54927   0.37583   0.00000  Uiso   1.00
H865   H     0.65630   0.51982   0.34953   0.00000  Uiso   1.00
H866   H     0.69973   0.97990   0.66165   0.00000  Uiso   1.00
H867   H     0.66574   0.96279   0.37987   0.00000  Uiso   1.00
H868   H     0.61122   0.67301   0.51061   0.00000  Uiso   1.00
H869   H     0.81475   0.50870   0.42286   0.00000  Uiso   1.00
H870   H     0.83425   0.94741   0.41272   0.00000  Uiso   1.00
H871   H     0.88884   0.53177   0.45246   0.00000  Uiso   1.00
H872   H     0.89186   0.50682   0.39158   0.00000  Uiso   1.00
H873   H     0.90840   0.97085   0.44339   0.00000  Uiso   1.00
H874   H     0.99219   0.81909   0.42426   0.00000  Uiso   1.00
H875   H     0.54728   0.84450   0.41619   0.00000  Uiso   1.00
H876   H     0.51924   0.92287   0.44772   0.00000  Uiso   1.00
H877   H     0.98878   0.90315   0.39486   0.00000  Uiso   1.00
H878   H     0.96464   0.89722   0.45518   0.00000  Uiso   1.00
N879   N     0.75000   0.62935   0.50000   0.00000  Uiso   1.00
N880   N     0.75000   0.87065   0.50000   0.00000  Uiso   1.00
O881   O     0.68573   0.79071   0.50000   0.00000  Uiso   1.00
O882   O     0.97346   0.68688   0.43733   0.00000  Uiso   1.00
O883   O     0.97265   0.81142   0.56337   0.00000  Uiso   1.00
O884   O     0.52615   0.66250   0.51179   0.00000  Uiso   1.00
O885   O     0.80762   0.53075   0.56169   0.00000  Uiso   1.00
O886   O     0.67073   0.97014   0.51418   0.00000  Uiso   1.00
O887   O     0.69238   0.53137   0.43821   0.00000  Uiso   1.00
O888   O     0.82918   0.96981   0.48556   0.00000  Uiso   1.00
O889   O     0.81427   0.70929   0.50000   0.00000  Uiso   1.00
O890   O     0.81427   0.79072   0.50000   0.00000  Uiso   1.00
O891   O     0.68573   0.70928   0.50000   0.00000  Uiso   1.00
O892   O     0.75000   0.79071   0.42946   0.00000  Uiso   1.00
O893   O     0.75000   0.70929   0.57054   0.00000  Uiso   1.00
O894   O     0.75000   0.79071   0.57054   0.00000  Uiso   1.00
O895   O     0.75000   0.70929   0.42946   0.00000  Uiso   1.00
O896   O     0.52509   0.83637   0.48827   0.00000  Uiso   1.00
C897   C     0.16491   0.25003   0.83319   0.00000  Uiso   1.00
C898   C     0.28886   0.44680   0.82340   0.00000  Uiso   1.00
C899   C     0.25002   0.25003   0.74019   0.00000  Uiso   1.00
C900   C     0.24999   0.24997   0.92648   0.00000  Uiso   1.00
C901   C     0.25000   0.02767   0.83327   0.00000  Uiso   1.00
C902   C     0.24997   0.47324   0.83326   0.00000  Uiso   1.00
C903   C     0.25002   0.25003   0.68848   0.00000  Uiso   1.00
C904   C     0.25001   0.24996   0.97818   0.00000  Uiso   1.00
C905   C     0.04702   0.29288   0.82574   0.00000  Uiso   1.00
C906   C     0.45187   0.21869   0.80149   0.00000  Uiso   1.00
C907   C     0.45143   0.27985   0.86580   0.00000  Uiso   1.00
C908   C     0.33486   0.24993   0.83333   0.00000  Uiso   1.00
C909   C     0.04756   0.20615   0.84055   0.00000  Uiso   1.00
C910   C     0.09305   0.29283   0.82646   0.00000  Uiso   1.00
C911   C     0.40587   0.21800   0.80304   0.00000  Uiso   1.00
C912   C     0.40547   0.28109   0.86401   0.00000  Uiso   1.00
C913   C     0.09358   0.20666   0.83935   0.00000  Uiso   1.00
C914   C     0.11653   0.24990   0.83299   0.00000  Uiso   1.00
C915   C     0.38279   0.24972   0.83342   0.00000  Uiso   1.00
C916   C     0.02386   0.24940   0.83335   0.00000  Uiso   1.00
C917   C     0.47515   0.24920   0.83365   0.00000  Uiso   1.00
C918   C     0.01635   0.34553   0.77192   0.00000  Uiso   1.00
C919   C     0.27786   0.10462   0.86339   0.00000  Uiso   1.00
C920   C     0.49598   0.39535   0.76715   0.00000  Uiso   1.00
C921   C     0.48669   0.21140   0.72787   0.00000  Uiso   1.00
C922   C     0.00855   0.17586   0.69315   0.00000  Uiso   1.00
C923   C     0.48528   0.28668   0.93943   0.00000  Uiso   1.00
C924   C     0.00812   0.32162   0.97351   0.00000  Uiso   1.00
C925   C     0.01943   0.15231   0.89511   0.00000  Uiso   1.00
C926   C     0.00293   0.10096   0.90043   0.00000  Uiso   1.00
C927   C     0.28536   0.01659   0.93815   0.00000  Uiso   1.00
C928   C     0.31819   0.49287   0.97235   0.00000  Uiso   1.00
C929   C     0.16262   0.48152   0.89693   0.00000  Uiso   1.00
C930   C     0.21234   0.39621   0.84475   0.00000  Uiso   1.00
C931   C     0.11614   0.00208   0.90183   0.00000  Uiso   1.00
C932   C     0.21460   0.01752   0.72830   0.00000  Uiso   1.00
C933   C     0.18191   0.49354   0.69436   0.00000  Uiso   1.00
C934   C     0.33756   0.48009   0.76925   0.00000  Uiso   1.00
C935   C     0.38463   0.49855   0.76386   0.00000  Uiso   1.00
C936   C     0.22213   0.10492   0.80326   0.00000  Uiso   1.00
C937   C     0.28773   0.39604   0.82212   0.00000  Uiso   1.00
C938   C     0.27801   0.05391   0.86472   0.00000  Uiso   1.00
C939   C     0.21111   0.44698   0.84325   0.00000  Uiso   1.00
C940   C     0.22199   0.05423   0.80186   0.00000  Uiso   1.00
Cu941  Cu    0.25000   0.29821   0.83333   0.00000  Uiso   1.00
Cu942  Cu    0.25000   0.20179   0.83333   0.00000  Uiso   1.00
F943   F     0.30563   0.12906   0.89296   0.00000  Uiso   1.00
F944   F     0.17494   0.37344   0.85877   0.00000  Uiso   1.00
F945   F     0.19433   0.12966   0.77372   0.00000  Uiso   1.00
F946   F     0.32546   0.37317   0.80898   0.00000  Uiso   1.00
H947   H     0.11021   0.32656   0.82138   0.00000  Uiso   1.00
H948   H     0.01144   0.23955   0.73628   0.00000  Uiso   1.00
H949   H     0.45779   0.22798   0.70915   0.00000  Uiso   1.00
H950   H     0.48408   0.14883   0.68093   0.00000  Uiso   1.00
H951   H     0.02184   0.19533   0.99422   0.00000  Uiso   1.00
H952   H     0.03632   0.15724   0.71171   0.00000  Uiso   1.00
H953   H     0.00923   0.25749   0.93087   0.00000  Uiso   1.00
H954   H     0.45592   0.27138   0.95868   0.00000  Uiso   1.00
H955   H     0.48448   0.34989   0.98557   0.00000  Uiso   1.00
H956   H     0.02057   0.30199   0.67260   0.00000  Uiso   1.00
H957   H     0.03658   0.33874   0.95447   0.00000  Uiso   1.00
H958   H     0.38818   0.19364   0.77933   0.00000  Uiso   1.00
H959   H     0.49381   0.17675   0.91061   0.00000  Uiso   1.00
H960   H     0.05066   0.15560   0.91629   0.00000  Uiso   1.00
H961   H     0.02781   0.07549   0.88527   0.00000  Uiso   1.00
H962   H     0.49734   0.09243   0.93965   0.00000  Uiso   1.00
H963   H     0.47131   0.09661   0.88051   0.00000  Uiso   1.00
H964   H     0.25932   0.48971   0.93016   0.00000  Uiso   1.00
H965   H     0.27033   0.04812   0.95717   0.00000  Uiso   1.00
H966   H     0.34327   0.01943   0.98413   0.00000  Uiso   1.00
H967   H     0.30034   0.47881   0.67151   0.00000  Uiso   1.00
H968   H     0.33501   0.46243   0.95360   0.00000  Uiso   1.00
H969   H     0.38747   0.30564   0.88764   0.00000  Uiso   1.00
H970   H     0.18622   0.00934   0.90959   0.00000  Uiso   1.00
H971   H     0.16491   0.44900   0.92063   0.00000  Uiso   1.00
H972   H     0.10911   0.01125   0.94059   0.00000  Uiso   1.00
H973   H     0.11302   0.03514   0.87927   0.00000  Uiso   1.00
H974   H     0.09153   0.47524   0.88943   0.00000  Uiso   1.00
H975   H     0.24108   0.49092   0.73613   0.00000  Uiso   1.00
H976   H     0.22907   0.04927   0.70916   0.00000  Uiso   1.00
H977   H     0.15630   0.01982   0.68286   0.00000  Uiso   1.00
H978   H     0.19973   0.47990   0.99498   0.00000  Uiso   1.00
H979   H     0.16574   0.46279   0.71320   0.00000  Uiso   1.00
H980   H     0.11122   0.17301   0.84394   0.00000  Uiso   1.00
H981   H     0.31475   0.00870   0.75620   0.00000  Uiso   1.00
H982   H     0.33425   0.44741   0.74605   0.00000  Uiso   1.00
H983   H     0.38884   0.03177   0.78580   0.00000  Uiso   1.00
H984   H     0.39186   0.00682   0.72491   0.00000  Uiso   1.00
H985   H     0.40840   0.47085   0.77672   0.00000  Uiso   1.00
H986   H     0.49219   0.31909   0.75760   0.00000  Uiso   1.00
H987   H     0.04728   0.34450   0.74953   0.00000  Uiso   1.00
H988   H     0.01924   0.42287   0.78105   0.00000  Uiso   1.00
H989   H     0.48878   0.40315   0.72819   0.00000  Uiso   1.00
H990   H     0.46464   0.39722   0.78851   0.00000  Uiso   1.00
N991   N     0.25000   0.12935   0.83333   0.00000  Uiso   1.00
N992   N     0.25000   0.37065   0.83333   0.00000  Uiso   1.00
O993   O     0.18573   0.29071   0.83334   0.00000  Uiso   1.00
O994   O     0.47346   0.18688   0.77066   0.00000  Uiso   1.00
O995   O     0.47265   0.31142   0.89671   0.00000  Uiso   1.00
O996   O     0.02615   0.16250   0.84513   0.00000  Uiso   1.00
O997   O     0.30762   0.03075   0.89503   0.00000  Uiso   1.00
O998   O     0.17073   0.47014   0.84751   0.00000  Uiso   1.00
O999   O     0.19238   0.03137   0.77155   0.00000  Uiso   1.00
O1000  O     0.32918   0.46981   0.81889   0.00000  Uiso   1.00
O1001  O     0.31427   0.20929   0.83333   0.00000  Uiso   1.00
O1002  O     0.31427   0.29072   0.83333   0.00000  Uiso   1.00
O1003  O     0.18573   0.20928   0.83334   0.00000  Uiso   1.00
O1004  O     0.25000   0.29071   0.76280   0.00000  Uiso   1.00
O1005  O     0.25000   0.20929   0.90387   0.00000  Uiso   1.00
O1006  O     0.25000   0.29071   0.90387   0.00000  Uiso   1.00
O1007  O     0.25000   0.20929   0.76280   0.00000  Uiso   1.00
O1008  O     0.02509   0.33637   0.82160   0.00000  Uiso   1.00
C1009  C     0.66491   0.25003   0.83319   0.00000  Uiso   1.00
C1010  C     0.78886   0.44680   0.82340   0.00000  Uiso   1.00
C1011  C     0.75002   0.25003   0.74019   0.00000  Uiso   1.00
C1012  C     0.74999   0.24997   0.92648   0.00000  Uiso   1.00
C1013  C     0.75000   0.02767   0.83327   0.00000  Uiso   1.00
C1014  C     0.74997   0.47324   0.83326   0.00000  Uiso   1.00
C1015  C     0.75002   0.25003   0.68848   0.00000  Uiso   1.00
C1016  C     0.75001   0.24996   0.97818   0.00000  Uiso   1.00
C1017  C     0.54702   0.29288   0.82574   0.00000  Uiso   1.00
C1018  C     0.95187   0.21869   0.80149   0.00000  Uiso   1.00
C1019  C     0.95143   0.27985   0.86580   0.00000  Uiso   1.00
C1020  C     0.83486   0.24993   0.83333   0.00000  Uiso   1.00
C1021  C     0.54756   0.20615   0.84055   0.00000  Uiso   1.00
C1022  C     0.59305   0.29283   0.82646   0.00000  Uiso   1.00
C1023  C     0.90587   0.21800   0.80304   0.00000  Uiso   1.00
C1024  C     0.90547   0.28109   0.86401   0.00000  Uiso   1.00
C1025  C     0.59358   0.20666   0.83935   0.00000  Uiso   1.00
C1026  C     0.61653   0.24990   0.83299   0.00000  Uiso   1.00
C1027  C     0.88279   0.24972   0.83342   0.00000  Uiso   1.00
C1028  C     0.52386   0.24940   0.83335   0.00000  Uiso   1.00
C1029  C     0.97515   0.24920   0.83365   0.00000  Uiso   1.00
C1030  C     0.51635   0.34553   0.77192   0.00000  Uiso   1.00
C1031  C     0.77786   0.10462   0.86339   0.00000  Uiso   1.00
C1032  C     0.99598   0.39535   0.76715   0.00000  Uiso   1.00
C1033  C     0.98669   0.21140   0.72787   0.00000  Uiso   1.00
C1034  C     0.50855   0.17586   0.69315   0.00000  Uiso   1.00
C1035  C     0.98528   0.28668   0.93943   0.00000  Uiso   1.00
C1036  C     0.50812   0.32162   0.97351   0.00000  Uiso   1.00
C1037  C     0.51943   0.15231   0.89511   0.00000  Uiso   1.00
C1038  C     0.50293   0.10096   0.90043   0.00000  Uiso   1.00
C1039  C     0.78536   0.01659   0.93815   0.00000  Uiso   1.00
C1040  C     0.81819   0.49287   0.97235   0.00000  Uiso   1.00
C1041  C     0.66262   0.48152   0.89693   0.00000  Uiso   1.00
C1042  C     0.71234   0.39621   0.84475   0.00000  Uiso   1.00
C1043  C     0.61614   0.00208   0.90183   0.00000  Uiso   1.00
C1044  C     0.71460   0.01752   0.72830   0.00000  Uiso   1.00
C1045  C     0.68191   0.49354   0.69436   0.00000  Uiso   1.00
C1046  C     0.83756   0.48009   0.76925   0.00000  Uiso   1.00
C1047  C     0.88463   0.49855   0.76386   0.00000  Uiso   1.00
C1048  C     0.72213   0.10492   0.80326   0.00000  Uiso   1.00
C1049  C     0.78773   0.39604   0.82212   0.00000  Uiso   1.00
C1050  C     0.77801   0.05391   0.86472   0.00000  Uiso   1.00
C1051  C     0.71111   0.44698   0.84325   0.00000  Uiso   1.00
C1052  C     0.72199   0.05423   0.80186   0.00000  Uiso   1.00
Cu1053 Cu    0.75000   0.29821   0.83333   0.00000  Uiso   1.00
Cu1054 Cu    0.75000   0.20179   0.83333   0.00000  Uiso   1.00
F1055  F     0.80563   0.12906   0.89296   0.00000  Uiso   1.00
F1056  F     0.67494   0.37344   0.85877   0.00000  Uiso   1.00
F1057  F     0.69433   0.12966   0.77372   0.00000  Uiso   1.00
F1058  F     0.82546   0.37317   0.80898   0.00000  Uiso   1.00
H1059  H     0.61021   0.32656   0.82138   0.00000  Uiso   1.00
H1060  H     0.51144   0.23955   0.73628   0.00000  Uiso   1.00
H1061  H     0.95779   0.22798   0.70915   0.00000  Uiso   1.00
H1062  H     0.98408   0.14883   0.68093   0.00000  Uiso   1.00
H1063  H     0.52184   0.19533   0.99422   0.00000  Uiso   1.00
H1064  H     0.53632   0.15724   0.71171   0.00000  Uiso   1.00
H1065  H     0.50923   0.25749   0.93087   0.00000  Uiso   1.00
H1066  H     0.95592   0.27138   0.95868   0.00000  Uiso   1.00
H1067  H     0.98448   0.34989   0.98557   0.00000  Uiso   1.00
H1068  H     0.52057   0.30199   0.67260   0.00000  Uiso   1.00
H1069  H     0.53658   0.33874   0.95447   0.00000  Uiso   1.00
H1070  H     0.88818   0.19364   0.77933   0.00000  Uiso   1.00
H1071  H     0.99381   0.17675   0.91061   0.00000  Uiso   1.00
H1072  H     0.55066   0.15560   0.91629   0.00000  Uiso   1.00
H1073  H     0.52781   0.07549   0.88527   0.00000  Uiso   1.00
H1074  H     0.99734   0.09243   0.93965   0.00000  Uiso   1.00
H1075  H     0.97131   0.09661   0.88051   0.00000  Uiso   1.00
H1076  H     0.75932   0.48971   0.93016   0.00000  Uiso   1.00
H1077  H     0.77033   0.04812   0.95717   0.00000  Uiso   1.00
H1078  H     0.84327   0.01943   0.98413   0.00000  Uiso   1.00
H1079  H     0.80034   0.47881   0.67151   0.00000  Uiso   1.00
H1080  H     0.83501   0.46243   0.95360   0.00000  Uiso   1.00
H1081  H     0.88747   0.30564   0.88764   0.00000  Uiso   1.00
H1082  H     0.68622   0.00934   0.90959   0.00000  Uiso   1.00
H1083  H     0.66491   0.44900   0.92063   0.00000  Uiso   1.00
H1084  H     0.60911   0.01125   0.94059   0.00000  Uiso   1.00
H1085  H     0.61302   0.03514   0.87927   0.00000  Uiso   1.00
H1086  H     0.59153   0.47524   0.88943   0.00000  Uiso   1.00
H1087  H     0.74108   0.49092   0.73613   0.00000  Uiso   1.00
H1088  H     0.72907   0.04927   0.70916   0.00000  Uiso   1.00
H1089  H     0.65630   0.01982   0.68286   0.00000  Uiso   1.00
H1090  H     0.69973   0.47990   0.99498   0.00000  Uiso   1.00
H1091  H     0.66574   0.46279   0.71320   0.00000  Uiso   1.00
H1092  H     0.61122   0.17301   0.84394   0.00000  Uiso   1.00
H1093  H     0.81475   0.00870   0.75620   0.00000  Uiso   1.00
H1094  H     0.83425   0.44741   0.74605   0.00000  Uiso   1.00
H1095  H     0.88884   0.03177   0.78580   0.00000  Uiso   1.00
H1096  H     0.89186   0.00682   0.72491   0.00000  Uiso   1.00
H1097  H     0.90840   0.47085   0.77672   0.00000  Uiso   1.00
H1098  H     0.99219   0.31909   0.75760   0.00000  Uiso   1.00
H1099  H     0.54728   0.34450   0.74953   0.00000  Uiso   1.00
H1100  H     0.51924   0.42287   0.78105   0.00000  Uiso   1.00
H1101  H     0.98878   0.40315   0.72819   0.00000  Uiso   1.00
H1102  H     0.96464   0.39722   0.78851   0.00000  Uiso   1.00
N1103  N     0.75000   0.12935   0.83333   0.00000  Uiso   1.00
N1104  N     0.75000   0.37065   0.83333   0.00000  Uiso   1.00
O1105  O     0.68573   0.29071   0.83334   0.00000  Uiso   1.00
O1106  O     0.97346   0.18688   0.77066   0.00000  Uiso   1.00
O1107  O     0.97265   0.31142   0.89671   0.00000  Uiso   1.00
O1108  O     0.52615   0.16250   0.84513   0.00000  Uiso   1.00
O1109  O     0.80762   0.03075   0.89503   0.00000  Uiso   1.00
O1110  O     0.67073   0.47014   0.84751   0.00000  Uiso   1.00
O1111  O     0.69238   0.03137   0.77155   0.00000  Uiso   1.00
O1112  O     0.82918   0.46981   0.81889   0.00000  Uiso   1.00
O1113  O     0.81427   0.20929   0.83333   0.00000  Uiso   1.00
O1114  O     0.81427   0.29072   0.83333   0.00000  Uiso   1.00
O1115  O     0.68573   0.20928   0.83334   0.00000  Uiso   1.00
O1116  O     0.75000   0.29071   0.76280   0.00000  Uiso   1.00
O1117  O     0.75000   0.20929   0.90387   0.00000  Uiso   1.00
O1118  O     0.75000   0.29071   0.90387   0.00000  Uiso   1.00
O1119  O     0.75000   0.20929   0.76280   0.00000  Uiso   1.00
O1120  O     0.52509   0.33637   0.82160   0.00000  Uiso   1.00
C1121  C     0.16491   0.75003   0.83319   0.00000  Uiso   1.00
C1122  C     0.28886   0.94680   0.82340   0.00000  Uiso   1.00
C1123  C     0.25002   0.75003   0.74019   0.00000  Uiso   1.00
C1124  C     0.24999   0.74997   0.92648   0.00000  Uiso   1.00
C1125  C     0.25000   0.52767   0.83327   0.00000  Uiso   1.00
C1126  C     0.24997   0.97324   0.83326   0.00000  Uiso   1.00
C1127  C     0.25002   0.75003   0.68848   0.00000  Uiso   1.00
C1128  C     0.25001   0.74996   0.97818   0.00000  Uiso   1.00
C1129  C     0.04702   0.79288   0.82574   0.00000  Uiso   1.00
C1130  C     0.45187   0.71869   0.80149   0.00000  Uiso   1.00
C1131  C     0.45143   0.77985   0.86580   0.00000  Uiso   1.00
C1132  C     0.33486   0.74993   0.83333   0.00000  Uiso   1.00
C1133  C     0.04756   0.70615   0.84055   0.00000  Uiso   1.00
C1134  C     0.09305   0.79283   0.82646   0.00000  Uiso   1.00
C1135  C     0.40587   0.71800   0.80304   0.00000  Uiso   1.00
C1136  C     0.40547   0.78109   0.86401   0.00000  Uiso   1.00
C1137  C     0.09358   0.70666   0.83935   0.00000  Uiso   1.00
C1138  C     0.11653   0.74990   0.83299   0.00000  Uiso   1.00
C1139  C     0.38279   0.74972   0.83342   0.00000  Uiso   1.00
C1140  C     0.02386   0.74940   0.83335   0.00000  Uiso   1.00
C1141  C     0.47515   0.74920   0.83365   0.00000  Uiso   1.00
C1142  C     0.01635   0.84553   0.77192   0.00000  Uiso   1.00
C1143  C     0.27786   0.60462   0.86339   0.00000  Uiso   1.00
C1144  C     0.49598   0.89535   0.76715   0.00000  Uiso   1.00
C1145  C     0.48669   0.71140   0.72787   0.00000  Uiso   1.00
C1146  C     0.00855   0.67586   0.69315   0.00000  Uiso   1.00
C1147  C     0.48528   0.78668   0.93943   0.00000  Uiso   1.00
C1148  C     0.00812   0.82162   0.97351   0.00000  Uiso   1.00
C1149  C     0.01943   0.65231   0.89511   0.00000  Uiso   1.00
C1150  C     0.00293   0.60096   0.90043   0.00000  Uiso   1.00
C1151  C     0.28536   0.51659   0.93815   0.00000  Uiso   1.00
C1152  C     0.31819   0.99287   0.97235   0.00000  Uiso   1.00
C1153  C     0.16262   0.98152   0.89693   0.00000  Uiso   1.00
C1154  C     0.21234   0.89621   0.84475   0.00000  Uiso   1.00
C1155  C     0.11614   0.50208   0.90183   0.00000  Uiso   1.00
C1156  C     0.21460   0.51752   0.72830   0.00000  Uiso   1.00
C1157  C     0.18191   0.99354   0.69436   0.00000  Uiso   1.00
C1158  C     0.33756   0.98009   0.76925   0.00000  Uiso   1.00
C1159  C     0.38463   0.99855   0.76386   0.00000  Uiso   1.00
C1160  C     0.22213   0.60492   0.80326   0.00000  Uiso   1.00
C1161  C     0.28773   0.89604   0.82212   0.00000  Uiso   1.00
C1162  C     0.27801   0.55391   0.86472   0.00000  Uiso   1.00
C1163  C     0.21111   0.94698   0.84325   0.00000  Uiso   1.00
C1164  C     0.22199   0.55423   0.80186   0.00000  Uiso   1.00
Cu1165 Cu    0.25000   0.79821   0.83333   0.00000  Uiso   1.00
Cu1166 Cu    0.25000   0.70179   0.83333   0.00000  Uiso   1.00
F1167  F     0.30563   0.62906   0.89296   0.00000  Uiso   1.00
F1168  F     0.17494   0.87344   0.85877   0.00000  Uiso   1.00
F1169  F     0.19433   0.62966   0.77372   0.00000  Uiso   1.00
F1170  F     0.32546   0.87317   0.80898   0.00000  Uiso   1.00
H1171  H     0.11021   0.82656   0.82138   0.00000  Uiso   1.00
H1172  H     0.01144   0.73955   0.73628   0.00000  Uiso   1.00
H1173  H     0.45779   0.72798   0.70915   0.00000  Uiso   1.00
H1174  H     0.48408   0.64883   0.68093   0.00000  Uiso   1.00
H1175  H     0.02184   0.69533   0.99422   0.00000  Uiso   1.00
H1176  H     0.03632   0.65724   0.71171   0.00000  Uiso   1.00
H1177  H     0.00923   0.75749   0.93087   0.00000  Uiso   1.00
H1178  H     0.45592   0.77138   0.95868   0.00000  Uiso   1.00
H1179  H     0.48448   0.84989   0.98557   0.00000  Uiso   1.00
H1180  H     0.02057   0.80199   0.67260   0.00000  Uiso   1.00
H1181  H     0.03658   0.83874   0.95447   0.00000  Uiso   1.00
H1182  H     0.38818   0.69364   0.77933   0.00000  Uiso   1.00
H1183  H     0.49381   0.67675   0.91061   0.00000  Uiso   1.00
H1184  H     0.05066   0.65560   0.91629   0.00000  Uiso   1.00
H1185  H     0.02781   0.57549   0.88527   0.00000  Uiso   1.00
H1186  H     0.49734   0.59243   0.93965   0.00000  Uiso   1.00
H1187  H     0.47131   0.59661   0.88051   0.00000  Uiso   1.00
H1188  H     0.25932   0.98971   0.93016   0.00000  Uiso   1.00
H1189  H     0.27033   0.54812   0.95717   0.00000  Uiso   1.00
H1190  H     0.34327   0.51943   0.98413   0.00000  Uiso   1.00
H1191  H     0.30034   0.97881   0.67151   0.00000  Uiso   1.00
H1192  H     0.33501   0.96243   0.95360   0.00000  Uiso   1.00
H1193  H     0.38747   0.80564   0.88764   0.00000  Uiso   1.00
H1194  H     0.18622   0.50934   0.90959   0.00000  Uiso   1.00
H1195  H     0.16491   0.94900   0.92063   0.00000  Uiso   1.00
H1196  H     0.10911   0.51125   0.94059   0.00000  Uiso   1.00
H1197  H     0.11302   0.53514   0.87927   0.00000  Uiso   1.00
H1198  H     0.09153   0.97524   0.88943   0.00000  Uiso   1.00
H1199  H     0.24108   0.99092   0.73613   0.00000  Uiso   1.00
H1200  H     0.22907   0.54927   0.70916   0.00000  Uiso   1.00
H1201  H     0.15630   0.51982   0.68286   0.00000  Uiso   1.00
H1202  H     0.19973   0.97990   0.99498   0.00000  Uiso   1.00
H1203  H     0.16574   0.96279   0.71320   0.00000  Uiso   1.00
H1204  H     0.11122   0.67301   0.84394   0.00000  Uiso   1.00
H1205  H     0.31475   0.50870   0.75620   0.00000  Uiso   1.00
H1206  H     0.33425   0.94741   0.74605   0.00000  Uiso   1.00
H1207  H     0.38884   0.53177   0.78580   0.00000  Uiso   1.00
H1208  H     0.39186   0.50682   0.72491   0.00000  Uiso   1.00
H1209  H     0.40840   0.97085   0.77672   0.00000  Uiso   1.00
H1210  H     0.49219   0.81909   0.75760   0.00000  Uiso   1.00
H1211  H     0.04728   0.84450   0.74953   0.00000  Uiso   1.00
H1212  H     0.01924   0.92287   0.78105   0.00000  Uiso   1.00
H1213  H     0.48878   0.90315   0.72819   0.00000  Uiso   1.00
H1214  H     0.46464   0.89722   0.78851   0.00000  Uiso   1.00
N1215  N     0.25000   0.62935   0.83333   0.00000  Uiso   1.00
N1216  N     0.25000   0.87065   0.83333   0.00000  Uiso   1.00
O1217  O     0.18573   0.79071   0.83334   0.00000  Uiso   1.00
O1218  O     0.47346   0.68688   0.77066   0.00000  Uiso   1.00
O1219  O     0.47265   0.81142   0.89671   0.00000  Uiso   1.00
O1220  O     0.02615   0.66250   0.84513   0.00000  Uiso   1.00
O1221  O     0.30762   0.53075   0.89503   0.00000  Uiso   1.00
O1222  O     0.17073   0.97014   0.84751   0.00000  Uiso   1.00
O1223  O     0.19238   0.53137   0.77155   0.00000  Uiso   1.00
O1224  O     0.32918   0.96981   0.81889   0.00000  Uiso   1.00
O1225  O     0.31427   0.70929   0.83333   0.00000  Uiso   1.00
O1226  O     0.31427   0.79072   0.83333   0.00000  Uiso   1.00
O1227  O     0.18573   0.70928   0.83334   0.00000  Uiso   1.00
O1228  O     0.25000   0.79071   0.76280   0.00000  Uiso   1.00
O1229  O     0.25000   0.70929   0.90387   0.00000  Uiso   1.00
O1230  O     0.25000   0.79071   0.90387   0.00000  Uiso   1.00
O1231  O     0.25000   0.70929   0.76280   0.00000  Uiso   1.00
O1232  O     0.02509   0.83637   0.82160   0.00000  Uiso   1.00
C1233  C     0.66491   0.75003   0.83319   0.00000  Uiso   1.00
C1234  C     0.78886   0.94680   0.82340   0.00000  Uiso   1.00
C1235  C     0.75002   0.75003   0.74019   0.00000  Uiso   1.00
C1236  C     0.74999   0.74997   0.92648   0.00000  Uiso   1.00
C1237  C     0.75000   0.52767   0.83327   0.00000  Uiso   1.00
C1238  C     0.74997   0.97324   0.83326   0.00000  Uiso   1.00
C1239  C     0.75002   0.75003   0.68848   0.00000  Uiso   1.00
C1240  C     0.75001   0.74996   0.97818   0.00000  Uiso   1.00
C1241  C     0.54702   0.79288   0.82574   0.00000  Uiso   1.00
C1242  C     0.95187   0.71869   0.80149   0.00000  Uiso   1.00
C1243  C     0.95143   0.77985   0.86580   0.00000  Uiso   1.00
C1244  C     0.83486   0.74993   0.83333   0.00000  Uiso   1.00
C1245  C     0.54756   0.70615   0.84055   0.00000  Uiso   1.00
C1246  C     0.59305   0.79283   0.82646   0.00000  Uiso   1.00
C1247  C     0.90587   0.71800   0.80304   0.00000  Uiso   1.00
C1248  C     0.90547   0.78109   0.86401   0.00000  Uiso   1.00
C1249  C     0.59358   0.70666   0.83935   0.00000  Uiso   1.00
C1250  C     0.61653   0.74990   0.83299   0.00000  Uiso   1.00
C1251  C     0.88279   0.74972   0.83342   0.00000  Uiso   1.00
C1252  C     0.52386   0.74940   0.83335   0.00000  Uiso   1.00
C1253  C     0.97515   0.74920   0.83365   0.00000  Uiso   1.00
C1254  C     0.51635   0.84553   0.77192   0.00000  Uiso   1.00
C1255  C     0.77786   0.60462   0.86339   0.00000  Uiso   1.00
C1256  C     0.99598   0.89535   0.76715   0.00000  Uiso   1.00
C1257  C     0.98669   0.71140   0.72787   0.00000  Uiso   1.00
C1258  C     0.50855   0.67586   0.69315   0.00000  Uiso   1.00
C1259  C     0.98528   0.78668   0.93943   0.00000  Uiso   1.00
C1260  C     0.50812   0.82162   0.97351   0.00000  Uiso   1.00
C1261  C     0.51943   0.65231   0.89511   0.00000  Uiso   1.00
C1262  C     0.50293   0.60096   0.90043   0.00000  Uiso   1.00
C1263  C     0.78536   0.51659   0.93815   0.00000  Uiso   1.00
C1264  C     0.81819   0.99287   0.97235   0.00000  Uiso   1.00
C1265  C     0.66262   0.98152   0.89693   0.00000  Uiso   1.00
C1266  C     0.71234   0.89621   0.84475   0.00000  Uiso   1.00
C1267  C     0.61614   0.50208   0.90183   0.00000  Uiso   1.00
C1268  C     0.71460   0.51752   0.72830   0.00000  Uiso   1.00
C1269  C     0.68191   0.99354   0.69436   0.00000  Uiso   1.00
C1270  C     0.83756   0.98009   0.76925   0.00000  Uiso   1.00
C1271  C     0.88463   0.99855   0.76386   0.00000  Uiso   1.00
C1272  C     0.72213   0.60492   0.80326   0.00000  Uiso   1.00
C1273  C     0.78773   0.89604   0.82212   0.00000  Uiso   1.00
C1274  C     0.77801   0.55391   0.86472   0.00000  Uiso   1.00
C1275  C     0.71111   0.94698   0.84325   0.00000  Uiso   1.00
C1276  C     0.72199   0.55423   0.80186   0.00000  Uiso   1.00
Cu1277 Cu    0.75000   0.79821   0.83333   0.00000  Uiso   1.00
Cu1278 Cu    0.75000   0.70179   0.83333   0.00000  Uiso   1.00
F1279  F     0.80563   0.62906   0.89296   0.00000  Uiso   1.00
F1280  F     0.67494   0.87344   0.85877   0.00000  Uiso   1.00
F1281  F     0.69433   0.62966   0.77372   0.00000  Uiso   1.00
F1282  F     0.82546   0.87317   0.80898   0.00000  Uiso   1.00
H1283  H     0.61021   0.82656   0.82138   0.00000  Uiso   1.00
H1284  H     0.51144   0.73955   0.73628   0.00000  Uiso   1.00
H1285  H     0.95779   0.72798   0.70915   0.00000  Uiso   1.00
H1286  H     0.98408   0.64883   0.68093   0.00000  Uiso   1.00
H1287  H     0.52184   0.69533   0.99422   0.00000  Uiso   1.00
H1288  H     0.53632   0.65724   0.71171   0.00000  Uiso   1.00
H1289  H     0.50923   0.75749   0.93087   0.00000  Uiso   1.00
H1290  H     0.95592   0.77138   0.95868   0.00000  Uiso   1.00
H1291  H     0.98448   0.84989   0.98557   0.00000  Uiso   1.00
H1292  H     0.52057   0.80199   0.67260   0.00000  Uiso   1.00
H1293  H     0.53658   0.83874   0.95447   0.00000  Uiso   1.00
H1294  H     0.88818   0.69364   0.77933   0.00000  Uiso   1.00
H1295  H     0.99381   0.67675   0.91061   0.00000  Uiso   1.00
H1296  H     0.55066   0.65560   0.91629   0.00000  Uiso   1.00
H1297  H     0.52781   0.57549   0.88527   0.00000  Uiso   1.00
H1298  H     0.99734   0.59243   0.93965   0.00000  Uiso   1.00
H1299  H     0.97131   0.59661   0.88051   0.00000  Uiso   1.00
H1300  H     0.75932   0.98971   0.93016   0.00000  Uiso   1.00
H1301  H     0.77033   0.54812   0.95717   0.00000  Uiso   1.00
H1302  H     0.84327   0.51943   0.98413   0.00000  Uiso   1.00
H1303  H     0.80034   0.97881   0.67151   0.00000  Uiso   1.00
H1304  H     0.83501   0.96243   0.95360   0.00000  Uiso   1.00
H1305  H     0.88747   0.80564   0.88764   0.00000  Uiso   1.00
H1306  H     0.68622   0.50934   0.90959   0.00000  Uiso   1.00
H1307  H     0.66491   0.94900   0.92063   0.00000  Uiso   1.00
H1308  H     0.60911   0.51125   0.94059   0.00000  Uiso   1.00
H1309  H     0.61302   0.53514   0.87927   0.00000  Uiso   1.00
H1310  H     0.59153   0.97524   0.88943   0.00000  Uiso   1.00
H1311  H     0.74108   0.99092   0.73613   0.00000  Uiso   1.00
H1312  H     0.72907   0.54927   0.70916   0.00000  Uiso   1.00
H1313  H     0.65630   0.51982   0.68286   0.00000  Uiso   1.00
H1314  H     0.69973   0.97990   0.99498   0.00000  Uiso   1.00
H1315  H     0.66574   0.96279   0.71320   0.00000  Uiso   1.00
H1316  H     0.61122   0.67301   0.84394   0.00000  Uiso   1.00
H1317  H     0.81475   0.50870   0.75620   0.00000  Uiso   1.00
H1318  H     0.83425   0.94741   0.74605   0.00000  Uiso   1.00
H1319  H     0.88884   0.53177   0.78580   0.00000  Uiso   1.00
H1320  H     0.89186   0.50682   0.72491   0.00000  Uiso   1.00
H1321  H     0.90840   0.97085   0.77672   0.00000  Uiso   1.00
H1322  H     0.99219   0.81909   0.75760   0.00000  Uiso   1.00
H1323  H     0.54728   0.84450   0.74953   0.00000  Uiso   1.00
H1324  H     0.51924   0.92287   0.78105   0.00000  Uiso   1.00
H1325  H     0.98878   0.90315   0.72819   0.00000  Uiso   1.00
H1326  H     0.96464   0.89722   0.78851   0.00000  Uiso   1.00
N1327  N     0.75000   0.62935   0.83333   0.00000  Uiso   1.00
N1328  N     0.75000   0.87065   0.83333   0.00000  Uiso   1.00
O1329  O     0.68573   0.79071   0.83334   0.00000  Uiso   1.00
O1330  O     0.97346   0.68688   0.77066   0.00000  Uiso   1.00
O1331  O     0.97265   0.81142   0.89671   0.00000  Uiso   1.00
O1332  O     0.52615   0.66250   0.84513   0.00000  Uiso   1.00
O1333  O     0.80762   0.53075   0.89503   0.00000  Uiso   1.00
O1334  O     0.67073   0.97014   0.84751   0.00000  Uiso   1.00
O1335  O     0.69238   0.53137   0.77155   0.00000  Uiso   1.00
O1336  O     0.82918   0.96981   0.81889   0.00000  Uiso   1.00
O1337  O     0.81427   0.70929   0.83333   0.00000  Uiso   1.00
O1338  O     0.81427   0.79072   0.83333   0.00000  Uiso   1.00
O1339  O     0.68573   0.70928   0.83334   0.00000  Uiso   1.00
O1340  O     0.75000   0.79071   0.76280   0.00000  Uiso   1.00
O1341  O     0.75000   0.70929   0.90387   0.00000  Uiso   1.00
O1342  O     0.75000   0.79071   0.90387   0.00000  Uiso   1.00
O1343  O     0.75000   0.70929   0.76280   0.00000  Uiso   1.00
O1344  O     0.52509   0.83637   0.82160   0.00000  Uiso   1.00
loop_
_geom_bond_atom_site_label_1
_geom_bond_atom_site_label_2
_geom_bond_distance
_geom_bond_site_symmetry_2
_ccdc_geom_bond_type
C1     C18     1.463   .     S
C1     O97     1.297   .     A
C1     O107    1.295   .     A
C2     C41     1.413   .     A
C2     C6      1.410   .     A
C2     O104    1.383   .     S
C3     C7      1.414   .     S
C3     O111    1.290   .     A
C3     O108    1.291   .     A
C4     O109    1.291   .     A
C4     C8      1.414   .     S
C4     O110    1.290   .     A
C5     C44     1.416   .     A
C5     C42     1.417   .     A
C5     C230    1.514   1_545 S
C6     C43     1.410   .     A
C6     C229    1.514   .     S
C7     C904    1.194   1_554 S
C8     C455    1.194   .     S
C9     O112    1.383   .     S
C9     C14     1.392   .     A
C9     C20     1.414   .     A
C10    C15     1.391   .     A
C10    O98     1.383   .     S
C10    C21     1.416   .     A
C11    O99     1.383   .     S
C11    C21     1.416   .     A
C11    C16     1.391   .     A
C12    O105    1.292   .     A
C12    O106    1.293   .     A
C12    C19     1.449   .     S
C13    C20     1.413   .     A
C13    C17     1.392   .     A
C13    O100    1.383   .     S
C14    C18     1.399   .     A
C14    H51     1.082   .     S
C15    C19     1.396   .     A
C15    H62     1.084   .     S
C16    H73     1.084   .     S
C16    C19     1.395   .     A
C17    C18     1.400   .     A
C17    H84     1.084   .     S
C20    C133    1.473   1_455 S
C21    C132    1.473   .     S
C22    H91     1.115   .     S
C22    O112    1.409   .     S
C22    C136    1.521   1_455 S
C22    H202    1.112   1_455 S
C23    C42     1.411   .     A
C23    F47     1.356   .     S
C23    N95     1.365   .     A
C24    H94     1.111   .     S
C24    H93     1.110   .     S
C24    C134    1.521   .     S
C24    H204    1.111   .     S
C25    H53     1.115   .     S
C25    O98     1.410   .     S
C25    C138    1.519   .     S
C25    H164    1.110   .     S
C26    H56     1.111   .     S
C26    C137    1.519   1_455 S
C26    H166    1.110   1_455 S
C26    H951    1.108   1_554 S
C27    O99     1.410   .     S
C27    H58     1.114   .     S
C27    C140    1.519   .     S
C27    H169    1.111   .     S
C28    H61     1.111   .     S
C28    C139    1.519   1_455 S
C28    H171    1.110   1_455 S
C28    H508    1.108   .     S
C29    O100    1.409   .     S
C29    H64     1.115   .     S
C29    C30     1.521   .     S
C29    H175    1.112   1_455 S
C30    H65     1.111   .     S
C30    H178    1.110   1_455 S
C30    H179    1.111   1_455 S
C31    O101    1.410   .     S
C31    H69     1.115   .     S
C31    C256    1.517   1_545 S
C31    H292    1.110   1_545 S
C32    H72     1.111   .     S
C32    C255    1.517   .     S
C32    H294    1.110   .     S
C32    H519    1.108   .     S
C33    H75     1.114   .     S
C33    O102    1.409   .     S
C33    C259    1.521   .     S
C33    H298    1.112   .     S
C34    F48     1.351   .     S
C34    C43     1.413   .     A
C34    N96     1.375   .     A
C35    H77     1.111   .     S
C35    H76     1.110   .     S
C35    C257    1.521   1_545 S
C35    H302    1.111   1_545 S
C36    O103    1.410   .     S
C36    H80     1.115   .     S
C36    C261    1.518   1_545 S
C36    H303    1.111   1_545 S
C37    H83     1.111   .     S
C37    C260    1.518   .     S
C37    H305    1.110   .     S
C37    H978    1.108   1_554 S
C38    H86     1.115   .     S
C38    O104    1.409   .     S
C38    C39     1.521   .     S
C38    H309    1.112   .     S
C39    H89     1.111   .     S
C39    H311    1.111   .     S
C39    H312    1.110   .     S
C40    F49     1.356   .     S
C40    N95     1.365   .     A
C40    C44     1.411   .     A
C41    N96     1.376   .     A
C41    F50     1.352   .     S
C42    O101    1.382   .     S
C43    O102    1.383   .     S
C44    O103    1.382   .     S
Cu45   Cu46    2.682   .     S
Cu45   O108    1.941   .     S
Cu45   O110    1.940   .     S
Cu45   O106    1.954   .     S
Cu45   O97     1.955   .     S
Cu45   N96     2.015   .     S
Cu46   O105    1.955   .     S
Cu46   N95     2.015   .     S
Cu46   O111    1.940   .     S
Cu46   O107    1.954   .     S
Cu46   O109    1.941   .     S
H52    C137    1.110   1_455 S
H54    C138    1.110   .     S
H55    C474    1.108   .     S
H57    C139    1.111   1_455 S
H59    C140    1.110   .     S
H60    C924    1.108   1_554 S
H63    C141    1.112   .     S
H66    C142    1.110   .     S
H67    C142    1.111   .     S
H68    C255    1.110   .     S
H70    C256    1.110   1_545 S
H71    C928    1.108   1_554 S
H74    C257    1.112   1_545 S
H78    C259    1.111   .     S
H79    C260    1.111   .     S
H81    C261    1.110   1_545 S
H82    C485    1.108   .     S
H85    C262    1.112   1_545 S
H87    C263    1.111   1_545 S
H88    C263    1.110   1_545 S
H90    C134    1.112   .     S
H92    C136    1.111   1_455 S
C113   C130    1.463   .     S
C113   O209    1.297   .     A
C113   O219    1.295   .     A
C114   C153    1.413   .     A
C114   C118    1.410   .     A
C114   O216    1.383   .     S
C115   C119    1.414   .     S
C115   O223    1.290   .     A
C115   O220    1.291   .     A
C116   O221    1.291   .     A
C116   C120    1.414   .     S
C116   O222    1.290   .     A
C117   C156    1.416   .     A
C117   C154    1.417   .     A
C117   C342    1.514   1_545 S
C118   C155    1.410   .     A
C118   C341    1.514   .     S
C119   C1016   1.194   1_554 S
C120   C567    1.194   .     S
C121   O224    1.383   .     S
C121   C126    1.392   .     A
C121   C132    1.414   .     A
C122   C127    1.391   .     A
C122   O210    1.383   .     S
C122   C133    1.416   .     A
C123   O211    1.383   .     S
C123   C133    1.416   .     A
C123   C128    1.391   .     A
C124   O217    1.292   .     A
C124   O218    1.293   .     A
C124   C131    1.449   .     S
C125   C132    1.413   .     A
C125   C129    1.392   .     A
C125   O212    1.383   .     S
C126   C130    1.399   .     A
C126   H163    1.082   .     S
C127   C131    1.396   .     A
C127   H174    1.084   .     S
C128   H185    1.084   .     S
C128   C131    1.395   .     A
C129   C130    1.400   .     A
C129   H196    1.084   .     S
C133   C20     1.473   1_655 S
C134   H203    1.115   .     S
C134   O224    1.409   .     S
C135   C154    1.411   .     A
C135   F159    1.356   .     S
C135   N207    1.365   .     A
C136   H206    1.111   .     S
C136   H205    1.110   .     S
C136   C22     1.521   1_655 S
C136   H92     1.111   1_655 S
C137   H165    1.115   .     S
C137   O210    1.410   .     S
C137   C26     1.519   1_655 S
C137   H52     1.110   1_655 S
C138   H168    1.111   .     S
C138   H1063   1.108   1_554 S
C139   O211    1.410   .     S
C139   H170    1.114   .     S
C139   C28     1.519   1_655 S
C139   H57     1.111   1_655 S
C140   H173    1.111   .     S
C140   H620    1.108   .     S
C141   O212    1.409   .     S
C141   H176    1.115   .     S
C141   C142    1.521   .     S
C142   H177    1.111   .     S
C143   O213    1.410   .     S
C143   H181    1.115   .     S
C143   C368    1.517   1_545 S
C143   H404    1.110   1_545 S
C144   H184    1.111   .     S
C144   C367    1.517   .     S
C144   H406    1.110   .     S
C144   H631    1.108   .     S
C145   H187    1.114   .     S
C145   O214    1.409   .     S
C145   C371    1.521   .     S
C145   H410    1.112   .     S
C146   F160    1.351   .     S
C146   C155    1.413   .     A
C146   N208    1.375   .     A
C147   H189    1.111   .     S
C147   H188    1.110   .     S
C147   C369    1.521   1_545 S
C147   H414    1.111   1_545 S
C148   O215    1.410   .     S
C148   H192    1.115   .     S
C148   C373    1.518   1_545 S
C148   H415    1.111   1_545 S
C149   H195    1.111   .     S
C149   C372    1.518   .     S
C149   H417    1.110   .     S
C149   H1090   1.108   1_554 S
C150   H198    1.115   .     S
C150   O216    1.409   .     S
C150   C151    1.521   .     S
C150   H421    1.112   .     S
C151   H201    1.111   .     S
C151   H423    1.111   .     S
C151   H424    1.110   .     S
C152   F161    1.356   .     S
C152   N207    1.365   .     A
C152   C156    1.411   .     A
C153   N208    1.376   .     A
C153   F162    1.352   .     S
C154   O213    1.382   .     S
C155   O214    1.383   .     S
C156   O215    1.382   .     S
Cu157  Cu158   2.682   .     S
Cu157  O220    1.941   .     S
Cu157  O222    1.940   .     S
Cu157  O218    1.954   .     S
Cu157  O209    1.955   .     S
Cu157  N208    2.015   .     S
Cu158  O217    1.955   .     S
Cu158  N207    2.015   .     S
Cu158  O223    1.940   .     S
Cu158  O219    1.954   .     S
Cu158  O221    1.941   .     S
H166   C26     1.110   1_655 S
H167   C586    1.108   .     S
H171   C28     1.110   1_655 S
H172   C1036   1.108   1_554 S
H175   C29     1.112   1_655 S
H178   C30     1.110   1_655 S
H179   C30     1.111   1_655 S
H180   C367    1.110   .     S
H182   C368    1.110   1_545 S
H183   C1040   1.108   1_554 S
H186   C369    1.112   1_545 S
H190   C371    1.111   .     S
H191   C372    1.111   .     S
H193   C373    1.110   1_545 S
H194   C597    1.108   .     S
H197   C374    1.112   1_545 S
H199   C375    1.111   1_545 S
H200   C375    1.110   1_545 S
H202   C22     1.112   1_655 S
C225   C242    1.463   .     S
C225   O321    1.297   .     A
C225   O331    1.295   .     A
C226   C265    1.413   .     A
C226   C230    1.410   .     A
C226   O328    1.383   .     S
C227   C231    1.414   .     S
C227   O335    1.290   .     A
C227   O332    1.291   .     A
C228   O333    1.291   .     A
C228   C232    1.414   .     S
C228   O334    1.290   .     A
C229   C268    1.416   .     A
C229   C266    1.417   .     A
C230   C267    1.410   .     A
C230   C5      1.514   1_565 S
C231   C1128   1.194   1_554 S
C232   C679    1.194   .     S
C233   O336    1.383   .     S
C233   C238    1.392   .     A
C233   C244    1.414   .     A
C234   C239    1.391   .     A
C234   O322    1.383   .     S
C234   C245    1.416   .     A
C235   O323    1.383   .     S
C235   C245    1.416   .     A
C235   C240    1.391   .     A
C236   O329    1.292   .     A
C236   O330    1.293   .     A
C236   C243    1.449   .     S
C237   C244    1.413   .     A
C237   C241    1.392   .     A
C237   O324    1.383   .     S
C238   C242    1.399   .     A
C238   H275    1.082   .     S
C239   C243    1.396   .     A
C239   H286    1.084   .     S
C240   H297    1.084   .     S
C240   C243    1.395   .     A
C241   C242    1.400   .     A
C241   H308    1.084   .     S
C244   C357    1.473   1_455 S
C245   C356    1.473   .     S
C246   H315    1.115   .     S
C246   O336    1.409   .     S
C246   C360    1.521   1_455 S
C246   H426    1.112   1_455 S
C247   C266    1.411   .     A
C247   F271    1.356   .     S
C247   N319    1.365   .     A
C248   H318    1.111   .     S
C248   H317    1.110   .     S
C248   C358    1.521   .     S
C248   H428    1.111   .     S
C249   H277    1.115   .     S
C249   O322    1.410   .     S
C249   C362    1.519   .     S
C249   H388    1.110   .     S
C250   H280    1.111   .     S
C250   C361    1.519   1_455 S
C250   H390    1.110   1_455 S
C250   H1175   1.108   1_554 S
C251   O323    1.410   .     S
C251   H282    1.114   .     S
C251   C364    1.519   .     S
C251   H393    1.111   .     S
C252   H285    1.111   .     S
C252   C363    1.519   1_455 S
C252   H395    1.110   1_455 S
C252   H732    1.108   .     S
C253   O324    1.409   .     S
C253   H288    1.115   .     S
C253   C254    1.521   .     S
C253   H399    1.112   1_455 S
C254   H289    1.111   .     S
C254   H402    1.110   1_455 S
C254   H403    1.111   1_455 S
C255   O325    1.410   .     S
C255   H293    1.115   .     S
C256   H296    1.111   .     S
C256   C31     1.517   1_565 S
C256   H70     1.110   1_565 S
C256   H743    1.108   .     S
C257   H299    1.114   .     S
C257   O326    1.409   .     S
C257   C35     1.521   1_565 S
C257   H74     1.112   1_565 S
C258   F272    1.351   .     S
C258   C267    1.413   .     A
C258   N320    1.375   .     A
C259   H301    1.111   .     S
C259   H300    1.110   .     S
C260   O327    1.410   .     S
C260   H304    1.115   .     S
C261   H307    1.111   .     S
C261   C36     1.518   1_565 S
C261   H81     1.110   1_565 S
C261   H1202   1.108   1_554 S
C262   H310    1.115   .     S
C262   O328    1.409   .     S
C262   C263    1.521   .     S
C262   H85     1.112   1_565 S
C263   H313    1.111   .     S
C263   H87     1.111   1_565 S
C263   H88     1.110   1_565 S
C264   F273    1.356   .     S
C264   N319    1.365   .     A
C264   C268    1.411   .     A
C265   N320    1.376   .     A
C265   F274    1.352   .     S
C266   O325    1.382   .     S
C267   O326    1.383   .     S
C268   O327    1.382   .     S
Cu269  Cu270   2.682   .     S
Cu269  O332    1.941   .     S
Cu269  O334    1.940   .     S
Cu269  O330    1.954   .     S
Cu269  O321    1.955   .     S
Cu269  N320    2.015   .     S
Cu270  O329    1.955   .     S
Cu270  N319    2.015   .     S
Cu270  O335    1.940   .     S
Cu270  O331    1.954   .     S
Cu270  O333    1.941   .     S
H276   C361    1.110   1_455 S
H278   C362    1.110   .     S
H279   C698    1.108   .     S
H281   C363    1.111   1_455 S
H283   C364    1.110   .     S
H284   C1148   1.108   1_554 S
H287   C365    1.112   .     S
H290   C366    1.110   .     S
H291   C366    1.111   .     S
H292   C31     1.110   1_565 S
H295   C1152   1.108   1_554 S
H302   C35     1.111   1_565 S
H303   C36     1.111   1_565 S
H306   C709    1.108   .     S
H314   C358    1.112   .     S
H316   C360    1.111   1_455 S
C337   C354    1.463   .     S
C337   O433    1.297   .     A
C337   O443    1.295   .     A
C338   C377    1.413   .     A
C338   C342    1.410   .     A
C338   O440    1.383   .     S
C339   C343    1.414   .     S
C339   O447    1.290   .     A
C339   O444    1.291   .     A
C340   O445    1.291   .     A
C340   C344    1.414   .     S
C340   O446    1.290   .     A
C341   C380    1.416   .     A
C341   C378    1.417   .     A
C342   C379    1.410   .     A
C342   C117    1.514   1_565 S
C343   C1240   1.194   1_554 S
C344   C791    1.194   .     S
C345   O448    1.383   .     S
C345   C350    1.392   .     A
C345   C356    1.414   .     A
C346   C351    1.391   .     A
C346   O434    1.383   .     S
C346   C357    1.416   .     A
C347   O435    1.383   .     S
C347   C357    1.416   .     A
C347   C352    1.391   .     A
C348   O441    1.292   .     A
C348   O442    1.293   .     A
C348   C355    1.449   .     S
C349   C356    1.413   .     A
C349   C353    1.392   .     A
C349   O436    1.383   .     S
C350   C354    1.399   .     A
C350   H387    1.082   .     S
C351   C355    1.396   .     A
C351   H398    1.084   .     S
C352   H409    1.084   .     S
C352   C355    1.395   .     A
C353   C354    1.400   .     A
C353   H420    1.084   .     S
C357   C244    1.473   1_655 S
C358   H427    1.115   .     S
C358   O448    1.409   .     S
C359   C378    1.411   .     A
C359   F383    1.356   .     S
C359   N431    1.365   .     A
C360   H430    1.111   .     S
C360   H429    1.110   .     S
C360   C246    1.521   1_655 S
C360   H316    1.111   1_655 S
C361   H389    1.115   .     S
C361   O434    1.410   .     S
C361   C250    1.519   1_655 S
C361   H276    1.110   1_655 S
C362   H392    1.111   .     S
C362   H1287   1.108   1_554 S
C363   O435    1.410   .     S
C363   H394    1.114   .     S
C363   C252    1.519   1_655 S
C363   H281    1.111   1_655 S
C364   H397    1.111   .     S
C364   H844    1.108   .     S
C365   O436    1.409   .     S
C365   H400    1.115   .     S
C365   C366    1.521   .     S
C366   H401    1.111   .     S
C367   O437    1.410   .     S
C367   H405    1.115   .     S
C368   H408    1.111   .     S
C368   C143    1.517   1_565 S
C368   H182    1.110   1_565 S
C368   H855    1.108   .     S
C369   H411    1.114   .     S
C369   O438    1.409   .     S
C369   C147    1.521   1_565 S
C369   H186    1.112   1_565 S
C370   F384    1.351   .     S
C370   C379    1.413   .     A
C370   N432    1.375   .     A
C371   H413    1.111   .     S
C371   H412    1.110   .     S
C372   O439    1.410   .     S
C372   H416    1.115   .     S
C373   H419    1.111   .     S
C373   C148    1.518   1_565 S
C373   H193    1.110   1_565 S
C373   H1314   1.108   1_554 S
C374   H422    1.115   .     S
C374   O440    1.409   .     S
C374   C375    1.521   .     S
C374   H197    1.112   1_565 S
C375   H425    1.111   .     S
C375   H199    1.111   1_565 S
C375   H200    1.110   1_565 S
C376   F385    1.356   .     S
C376   N431    1.365   .     A
C376   C380    1.411   .     A
C377   N432    1.376   .     A
C377   F386    1.352   .     S
C378   O437    1.382   .     S
C379   O438    1.383   .     S
C380   O439    1.382   .     S
Cu381  Cu382   2.682   .     S
Cu381  O444    1.941   .     S
Cu381  O446    1.940   .     S
Cu381  O442    1.954   .     S
Cu381  O433    1.955   .     S
Cu381  N432    2.015   .     S
Cu382  O441    1.955   .     S
Cu382  N431    2.015   .     S
Cu382  O447    1.940   .     S
Cu382  O443    1.954   .     S
Cu382  O445    1.941   .     S
H390   C250    1.110   1_655 S
H391   C810    1.108   .     S
H395   C252    1.110   1_655 S
H396   C1260   1.108   1_554 S
H399   C253    1.112   1_655 S
H402   C254    1.110   1_655 S
H403   C254    1.111   1_655 S
H404   C143    1.110   1_565 S
H407   C1264   1.108   1_554 S
H414   C147    1.111   1_565 S
H415   C148    1.111   1_565 S
H418   C821    1.108   .     S
H426   C246    1.112   1_655 S
C449   C466    1.463   .     S
C449   O545    1.297   .     A
C449   O555    1.295   .     A
C450   C489    1.413   .     A
C450   C454    1.410   .     A
C450   O552    1.383   .     S
C451   C455    1.414   .     S
C451   O559    1.290   .     A
C451   O556    1.291   .     A
C452   O557    1.291   .     A
C452   C456    1.414   .     S
C452   O558    1.290   .     A
C453   C492    1.416   .     A
C453   C490    1.417   .     A
C453   C678    1.514   1_545 S
C454   C491    1.410   .     A
C454   C677    1.514   .     S
C456   C903    1.194   .     S
C457   O560    1.383   .     S
C457   C462    1.392   .     A
C457   C468    1.414   .     A
C458   C463    1.391   .     A
C458   O546    1.383   .     S
C458   C469    1.416   .     A
C459   O547    1.383   .     S
C459   C469    1.416   .     A
C459   C464    1.391   .     A
C460   O553    1.292   .     A
C460   O554    1.293   .     A
C460   C467    1.449   .     S
C461   C468    1.413   .     A
C461   C465    1.392   .     A
C461   O548    1.383   .     S
C462   C466    1.399   .     A
C462   H499    1.082   .     S
C463   C467    1.396   .     A
C463   H510    1.084   .     S
C464   H521    1.084   .     S
C464   C467    1.395   .     A
C465   C466    1.400   .     A
C465   H532    1.084   .     S
C468   C581    1.473   1_455 S
C469   C580    1.473   .     S
C470   H539    1.115   .     S
C470   O560    1.409   .     S
C470   C584    1.521   1_455 S
C470   H650    1.112   1_455 S
C471   C490    1.411   .     A
C471   F495    1.356   .     S
C471   N543    1.365   .     A
C472   H542    1.111   .     S
C472   H541    1.110   .     S
C472   C582    1.521   .     S
C472   H652    1.111   .     S
C473   H501    1.115   .     S
C473   O546    1.410   .     S
C473   C586    1.519   .     S
C473   H612    1.110   .     S
C474   H504    1.111   .     S
C474   C585    1.519   1_455 S
C474   H614    1.110   1_455 S
C475   O547    1.410   .     S
C475   H506    1.114   .     S
C475   C588    1.519   .     S
C475   H617    1.111   .     S
C476   H509    1.111   .     S
C476   C587    1.519   1_455 S
C476   H619    1.110   1_455 S
C476   H956    1.108   .     S
C477   O548    1.409   .     S
C477   H512    1.115   .     S
C477   C478    1.521   .     S
C477   H623    1.112   1_455 S
C478   H513    1.111   .     S
C478   H626    1.110   1_455 S
C478   H627    1.111   1_455 S
C479   O549    1.410   .     S
C479   H517    1.115   .     S
C479   C704    1.517   1_545 S
C479   H740    1.110   1_545 S
C480   H520    1.111   .     S
C480   C703    1.517   .     S
C480   H742    1.110   .     S
C480   H967    1.108   .     S
C481   H523    1.114   .     S
C481   O550    1.409   .     S
C481   C707    1.521   .     S
C481   H746    1.112   .     S
C482   F496    1.351   .     S
C482   C491    1.413   .     A
C482   N544    1.375   .     A
C483   H525    1.111   .     S
C483   H524    1.110   .     S
C483   C705    1.521   1_545 S
C483   H750    1.111   1_545 S
C484   O551    1.410   .     S
C484   H528    1.115   .     S
C484   C709    1.518   1_545 S
C484   H751    1.111   1_545 S
C485   H531    1.111   .     S
C485   C708    1.518   .     S
C485   H753    1.110   .     S
C486   H534    1.115   .     S
C486   O552    1.409   .     S
C486   C487    1.521   .     S
C486   H757    1.112   .     S
C487   H537    1.111   .     S
C487   H759    1.111   .     S
C487   H760    1.110   .     S
C488   F497    1.356   .     S
C488   N543    1.365   .     A
C488   C492    1.411   .     A
C489   N544    1.376   .     A
C489   F498    1.352   .     S
C490   O549    1.382   .     S
C491   O550    1.383   .     S
C492   O551    1.382   .     S
Cu493  Cu494   2.682   .     S
Cu493  O556    1.941   .     S
Cu493  O558    1.940   .     S
Cu493  O554    1.954   .     S
Cu493  O545    1.955   .     S
Cu493  N544    2.015   .     S
Cu494  O553    1.955   .     S
Cu494  N543    2.015   .     S
Cu494  O559    1.940   .     S
Cu494  O555    1.954   .     S
Cu494  O557    1.941   .     S
H500   C585    1.110   1_455 S
H502   C586    1.110   .     S
H503   C922    1.108   .     S
H505   C587    1.111   1_455 S
H507   C588    1.110   .     S
H511   C589    1.112   .     S
H514   C590    1.110   .     S
H515   C590    1.111   .     S
H516   C703    1.110   .     S
H518   C704    1.110   1_545 S
H522   C705    1.112   1_545 S
H526   C707    1.111   .     S
H527   C708    1.111   .     S
H529   C709    1.110   1_545 S
H530   C933    1.108   .     S
H533   C710    1.112   1_545 S
H535   C711    1.111   1_545 S
H536   C711    1.110   1_545 S
H538   C582    1.112   .     S
H540   C584    1.111   1_455 S
C561   C578    1.463   .     S
C561   O657    1.297   .     A
C561   O667    1.295   .     A
C562   C601    1.413   .     A
C562   C566    1.410   .     A
C562   O664    1.383   .     S
C563   C567    1.414   .     S
C563   O671    1.290   .     A
C563   O668    1.291   .     A
C564   O669    1.291   .     A
C564   C568    1.414   .     S
C564   O670    1.290   .     A
C565   C604    1.416   .     A
C565   C602    1.417   .     A
C565   C790    1.514   1_545 S
C566   C603    1.410   .     A
C566   C789    1.514   .     S
C568   C1015   1.194   .     S
C569   O672    1.383   .     S
C569   C574    1.392   .     A
C569   C580    1.414   .     A
C570   C575    1.391   .     A
C570   O658    1.383   .     S
C570   C581    1.416   .     A
C571   O659    1.383   .     S
C571   C581    1.416   .     A
C571   C576    1.391   .     A
C572   O665    1.292   .     A
C572   O666    1.293   .     A
C572   C579    1.449   .     S
C573   C580    1.413   .     A
C573   C577    1.392   .     A
C573   O660    1.383   .     S
C574   C578    1.399   .     A
C574   H611    1.082   .     S
C575   C579    1.396   .     A
C575   H622    1.084   .     S
C576   H633    1.084   .     S
C576   C579    1.395   .     A
C577   C578    1.400   .     A
C577   H644    1.084   .     S
C581   C468    1.473   1_655 S
C582   H651    1.115   .     S
C582   O672    1.409   .     S
C583   C602    1.411   .     A
C583   F607    1.356   .     S
C583   N655    1.365   .     A
C584   H654    1.111   .     S
C584   H653    1.110   .     S
C584   C470    1.521   1_655 S
C584   H540    1.111   1_655 S
C585   H613    1.115   .     S
C585   O658    1.410   .     S
C585   C474    1.519   1_655 S
C585   H500    1.110   1_655 S
C586   H616    1.111   .     S
C587   O659    1.410   .     S
C587   H618    1.114   .     S
C587   C476    1.519   1_655 S
C587   H505    1.111   1_655 S
C588   H621    1.111   .     S
C588   H1068   1.108   .     S
C589   O660    1.409   .     S
C589   H624    1.115   .     S
C589   C590    1.521   .     S
C590   H625    1.111   .     S
C591   O661    1.410   .     S
C591   H629    1.115   .     S
C591   C816    1.517   1_545 S
C591   H852    1.110   1_545 S
C592   H632    1.111   .     S
C592   C815    1.517   .     S
C592   H854    1.110   .     S
C592   H1079   1.108   .     S
C593   H635    1.114   .     S
C593   O662    1.409   .     S
C593   C819    1.521   .     S
C593   H858    1.112   .     S
C594   F608    1.351   .     S
C594   C603    1.413   .     A
C594   N656    1.375   .     A
C595   H637    1.111   .     S
C595   H636    1.110   .     S
C595   C817    1.521   1_545 S
C595   H862    1.111   1_545 S
C596   O663    1.410   .     S
C596   H640    1.115   .     S
C596   C821    1.518   1_545 S
C596   H863    1.111   1_545 S
C597   H643    1.111   .     S
C597   C820    1.518   .     S
C597   H865    1.110   .     S
C598   H646    1.115   .     S
C598   O664    1.409   .     S
C598   C599    1.521   .     S
C598   H869    1.112   .     S
C599   H649    1.111   .     S
C599   H871    1.111   .     S
C599   H872    1.110   .     S
C600   F609    1.356   .     S
C600   N655    1.365   .     A
C600   C604    1.411   .     A
C601   N656    1.376   .     A
C601   F610    1.352   .     S
C602   O661    1.382   .     S
C603   O662    1.383   .     S
C604   O663    1.382   .     S
Cu605  Cu606   2.682   .     S
Cu605  O668    1.941   .     S
Cu605  O670    1.940   .     S
Cu605  O666    1.954   .     S
Cu605  O657    1.955   .     S
Cu605  N656    2.015   .     S
Cu606  O665    1.955   .     S
Cu606  N655    2.015   .     S
Cu606  O671    1.940   .     S
Cu606  O667    1.954   .     S
Cu606  O669    1.941   .     S
H614   C474    1.110   1_655 S
H615   C1034   1.108   .     S
H619   C476    1.110   1_655 S
H623   C477    1.112   1_655 S
H626   C478    1.110   1_655 S
H627   C478    1.111   1_655 S
H628   C815    1.110   .     S
H630   C816    1.110   1_545 S
H634   C817    1.112   1_545 S
H638   C819    1.111   .     S
H639   C820    1.111   .     S
H641   C821    1.110   1_545 S
H642   C1045   1.108   .     S
H645   C822    1.112   1_545 S
H647   C823    1.111   1_545 S
H648   C823    1.110   1_545 S
H650   C470    1.112   1_655 S
C673   C690    1.463   .     S
C673   O769    1.297   .     A
C673   O779    1.295   .     A
C674   C713    1.413   .     A
C674   C678    1.410   .     A
C674   O776    1.383   .     S
C675   C679    1.414   .     S
C675   O783    1.290   .     A
C675   O780    1.291   .     A
C676   O781    1.291   .     A
C676   C680    1.414   .     S
C676   O782    1.290   .     A
C677   C716    1.416   .     A
C677   C714    1.417   .     A
C678   C715    1.410   .     A
C678   C453    1.514   1_565 S
C680   C1127   1.194   .     S
C681   O784    1.383   .     S
C681   C686    1.392   .     A
C681   C692    1.414   .     A
C682   C687    1.391   .     A
C682   O770    1.383   .     S
C682   C693    1.416   .     A
C683   O771    1.383   .     S
C683   C693    1.416   .     A
C683   C688    1.391   .     A
C684   O777    1.292   .     A
C684   O778    1.293   .     A
C684   C691    1.449   .     S
C685   C692    1.413   .     A
C685   C689    1.392   .     A
C685   O772    1.383   .     S
C686   C690    1.399   .     A
C686   H723    1.082   .     S
C687   C691    1.396   .     A
C687   H734    1.084   .     S
C688   H745    1.084   .     S
C688   C691    1.395   .     A
C689   C690    1.400   .     A
C689   H756    1.084   .     S
C692   C805    1.473   1_455 S
C693   C804    1.473   .     S
C694   H763    1.115   .     S
C694   O784    1.409   .     S
C694   C808    1.521   1_455 S
C694   H874    1.112   1_455 S
C695   C714    1.411   .     A
C695   F719    1.356   .     S
C695   N767    1.365   .     A
C696   H766    1.111   .     S
C696   H765    1.110   .     S
C696   C806    1.521   .     S
C696   H876    1.111   .     S
C697   H725    1.115   .     S
C697   O770    1.410   .     S
C697   C810    1.519   .     S
C697   H836    1.110   .     S
C698   H728    1.111   .     S
C698   C809    1.519   1_455 S
C698   H838    1.110   1_455 S
C699   O771    1.410   .     S
C699   H730    1.114   .     S
C699   C812    1.519   .     S
C699   H841    1.111   .     S
C700   H733    1.111   .     S
C700   C811    1.519   1_455 S
C700   H843    1.110   1_455 S
C700   H1180   1.108   .     S
C701   O772    1.409   .     S
C701   H736    1.115   .     S
C701   C702    1.521   .     S
C701   H847    1.112   1_455 S
C702   H737    1.111   .     S
C702   H850    1.110   1_455 S
C702   H851    1.111   1_455 S
C703   O773    1.410   .     S
C703   H741    1.115   .     S
C704   H744    1.111   .     S
C704   C479    1.517   1_565 S
C704   H518    1.110   1_565 S
C704   H1191   1.108   .     S
C705   H747    1.114   .     S
C705   O774    1.409   .     S
C705   C483    1.521   1_565 S
C705   H522    1.112   1_565 S
C706   F720    1.351   .     S
C706   C715    1.413   .     A
C706   N768    1.375   .     A
C707   H749    1.111   .     S
C707   H748    1.110   .     S
C708   O775    1.410   .     S
C708   H752    1.115   .     S
C709   H755    1.111   .     S
C709   C484    1.518   1_565 S
C709   H529    1.110   1_565 S
C710   H758    1.115   .     S
C710   O776    1.409   .     S
C710   C711    1.521   .     S
C710   H533    1.112   1_565 S
C711   H761    1.111   .     S
C711   H535    1.111   1_565 S
C711   H536    1.110   1_565 S
C712   F721    1.356   .     S
C712   N767    1.365   .     A
C712   C716    1.411   .     A
C713   N768    1.376   .     A
C713   F722    1.352   .     S
C714   O773    1.382   .     S
C715   O774    1.383   .     S
C716   O775    1.382   .     S
Cu717  Cu718   2.682   .     S
Cu717  O780    1.941   .     S
Cu717  O782    1.940   .     S
Cu717  O778    1.954   .     S
Cu717  O769    1.955   .     S
Cu717  N768    2.015   .     S
Cu718  O777    1.955   .     S
Cu718  N767    2.015   .     S
Cu718  O783    1.940   .     S
Cu718  O779    1.954   .     S
Cu718  O781    1.941   .     S
H724   C809    1.110   1_455 S
H726   C810    1.110   .     S
H727   C1146   1.108   .     S
H729   C811    1.111   1_455 S
H731   C812    1.110   .     S
H735   C813    1.112   .     S
H738   C814    1.110   .     S
H739   C814    1.111   .     S
H740   C479    1.110   1_565 S
H750   C483    1.111   1_565 S
H751   C484    1.111   1_565 S
H754   C1157   1.108   .     S
H762   C806    1.112   .     S
H764   C808    1.111   1_455 S
C785   C802    1.463   .     S
C785   O881    1.297   .     A
C785   O891    1.295   .     A
C786   C825    1.413   .     A
C786   C790    1.410   .     A
C786   O888    1.383   .     S
C787   C791    1.414   .     S
C787   O895    1.290   .     A
C787   O892    1.291   .     A
C788   O893    1.291   .     A
C788   C792    1.414   .     S
C788   O894    1.290   .     A
C789   C828    1.416   .     A
C789   C826    1.417   .     A
C790   C827    1.410   .     A
C790   C565    1.514   1_565 S
C792   C1239   1.194   .     S
C793   O896    1.383   .     S
C793   C798    1.392   .     A
C793   C804    1.414   .     A
C794   C799    1.391   .     A
C794   O882    1.383   .     S
C794   C805    1.416   .     A
C795   O883    1.383   .     S
C795   C805    1.416   .     A
C795   C800    1.391   .     A
C796   O889    1.292   .     A
C796   O890    1.293   .     A
C796   C803    1.449   .     S
C797   C804    1.413   .     A
C797   C801    1.392   .     A
C797   O884    1.383   .     S
C798   C802    1.399   .     A
C798   H835    1.082   .     S
C799   C803    1.396   .     A
C799   H846    1.084   .     S
C800   H857    1.084   .     S
C800   C803    1.395   .     A
C801   C802    1.400   .     A
C801   H868    1.084   .     S
C805   C692    1.473   1_655 S
C806   H875    1.115   .     S
C806   O896    1.409   .     S
C807   C826    1.411   .     A
C807   F831    1.356   .     S
C807   N879    1.365   .     A
C808   H878    1.111   .     S
C808   H877    1.110   .     S
C808   C694    1.521   1_655 S
C808   H764    1.111   1_655 S
C809   H837    1.115   .     S
C809   O882    1.410   .     S
C809   C698    1.519   1_655 S
C809   H724    1.110   1_655 S
C810   H840    1.111   .     S
C811   O883    1.410   .     S
C811   H842    1.114   .     S
C811   C700    1.519   1_655 S
C811   H729    1.111   1_655 S
C812   H845    1.111   .     S
C812   H1292   1.108   .     S
C813   O884    1.409   .     S
C813   H848    1.115   .     S
C813   C814    1.521   .     S
C814   H849    1.111   .     S
C815   O885    1.410   .     S
C815   H853    1.115   .     S
C816   H856    1.111   .     S
C816   C591    1.517   1_565 S
C816   H630    1.110   1_565 S
C816   H1303   1.108   .     S
C817   H859    1.114   .     S
C817   O886    1.409   .     S
C817   C595    1.521   1_565 S
C817   H634    1.112   1_565 S
C818   F832    1.351   .     S
C818   C827    1.413   .     A
C818   N880    1.375   .     A
C819   H861    1.111   .     S
C819   H860    1.110   .     S
C820   O887    1.410   .     S
C820   H864    1.115   .     S
C821   H867    1.111   .     S
C821   C596    1.518   1_565 S
C821   H641    1.110   1_565 S
C822   H870    1.115   .     S
C822   O888    1.409   .     S
C822   C823    1.521   .     S
C822   H645    1.112   1_565 S
C823   H873    1.111   .     S
C823   H647    1.111   1_565 S
C823   H648    1.110   1_565 S
C824   F833    1.356   .     S
C824   N879    1.365   .     A
C824   C828    1.411   .     A
C825   N880    1.376   .     A
C825   F834    1.352   .     S
C826   O885    1.382   .     S
C827   O886    1.383   .     S
C828   O887    1.382   .     S
Cu829  Cu830   2.682   .     S
Cu829  O892    1.941   .     S
Cu829  O894    1.940   .     S
Cu829  O890    1.954   .     S
Cu829  O881    1.955   .     S
Cu829  N880    2.015   .     S
Cu830  O889    1.955   .     S
Cu830  N879    2.015   .     S
Cu830  O895    1.940   .     S
Cu830  O891    1.954   .     S
Cu830  O893    1.941   .     S
H838   C698    1.110   1_655 S
H839   C1258   1.108   .     S
H843   C700    1.110   1_655 S
H847   C701    1.112   1_655 S
H850   C702    1.110   1_655 S
H851   C702    1.111   1_655 S
H852   C591    1.110   1_565 S
H862   C595    1.111   1_565 S
H863   C596    1.111   1_565 S
H866   C1269   1.108   .     S
H874   C694    1.112   1_655 S
C897   C914    1.463   .     S
C897   O993    1.297   .     A
C897   O1003   1.295   .     A
C898   C937    1.413   .     A
C898   C902    1.410   .     A
C898   O1000   1.383   .     S
C899   C903    1.414   .     S
C899   O1007   1.290   .     A
C899   O1004   1.291   .     A
C900   O1005   1.291   .     A
C900   C904    1.414   .     S
C900   O1006   1.290   .     A
C901   C940    1.416   .     A
C901   C938    1.417   .     A
C901   C1126   1.514   1_545 S
C902   C939    1.410   .     A
C902   C1125   1.514   .     S
C904   C7      1.194   1_556 S
C905   O1008   1.383   .     S
C905   C910    1.392   .     A
C905   C916    1.414   .     A
C906   C911    1.391   .     A
C906   O994    1.383   .     S
C906   C917    1.416   .     A
C907   O995    1.383   .     S
C907   C917    1.416   .     A
C907   C912    1.391   .     A
C908   O1001   1.292   .     A
C908   O1002   1.293   .     A
C908   C915    1.449   .     S
C909   C916    1.413   .     A
C909   C913    1.392   .     A
C909   O996    1.383   .     S
C910   C914    1.399   .     A
C910   H947    1.082   .     S
C911   C915    1.396   .     A
C911   H958    1.084   .     S
C912   H969    1.084   .     S
C912   C915    1.395   .     A
C913   C914    1.400   .     A
C913   H980    1.084   .     S
C916   C1029   1.473   1_455 S
C917   C1028   1.473   .     S
C918   H987    1.115   .     S
C918   O1008   1.409   .     S
C918   C1032   1.521   1_455 S
C918   H1098   1.112   1_455 S
C919   C938    1.411   .     A
C919   F943    1.356   .     S
C919   N991    1.365   .     A
C920   H990    1.111   .     S
C920   H989    1.110   .     S
C920   C1030   1.521   .     S
C920   H1100   1.111   .     S
C921   H949    1.115   .     S
C921   O994    1.410   .     S
C921   C1034   1.519   .     S
C921   H1060   1.110   .     S
C922   H952    1.111   .     S
C922   C1033   1.519   1_455 S
C922   H1062   1.110   1_455 S
C923   O995    1.410   .     S
C923   H954    1.114   .     S
C923   C1036   1.519   .     S
C923   H1065   1.111   .     S
C924   H957    1.111   .     S
C924   C1035   1.519   1_455 S
C924   H1067   1.110   1_455 S
C924   H60     1.108   1_556 S
C925   O996    1.409   .     S
C925   H960    1.115   .     S
C925   C926    1.521   .     S
C925   H1071   1.112   1_455 S
C926   H961    1.111   .     S
C926   H1074   1.110   1_455 S
C926   H1075   1.111   1_455 S
C927   O997    1.410   .     S
C927   H965    1.115   .     S
C927   C1152   1.517   1_545 S
C927   H1188   1.110   1_545 S
C928   H968    1.111   .     S
C928   C1151   1.517   .     S
C928   H1190   1.110   .     S
C928   H71     1.108   1_556 S
C929   H971    1.114   .     S
C929   O998    1.409   .     S
C929   C1155   1.521   .     S
C929   H1194   1.112   .     S
C930   F944    1.351   .     S
C930   C939    1.413   .     A
C930   N992    1.375   .     A
C931   H973    1.111   .     S
C931   H972    1.110   .     S
C931   C1153   1.521   1_545 S
C931   H1198   1.111   1_545 S
C932   O999    1.410   .     S
C932   H976    1.115   .     S
C932   C1157   1.518   1_545 S
C932   H1199   1.111   1_545 S
C933   H979    1.111   .     S
C933   C1156   1.518   .     S
C933   H1201   1.110   .     S
C934   H982    1.115   .     S
C934   O1000   1.409   .     S
C934   C935    1.521   .     S
C934   H1205   1.112   .     S
C935   H985    1.111   .     S
C935   H1207   1.111   .     S
C935   H1208   1.110   .     S
C936   F945    1.356   .     S
C936   N991    1.365   .     A
C936   C940    1.411   .     A
C937   N992    1.376   .     A
C937   F946    1.352   .     S
C938   O997    1.382   .     S
C939   O998    1.383   .     S
C940   O999    1.382   .     S
Cu941  Cu942   2.682   .     S
Cu941  O1004   1.941   .     S
Cu941  O1006   1.940   .     S
Cu941  O1002   1.954   .     S
Cu941  O993    1.955   .     S
Cu941  N992    2.015   .     S
Cu942  O1001   1.955   .     S
Cu942  N991    2.015   .     S
Cu942  O1007   1.940   .     S
Cu942  O1003   1.954   .     S
Cu942  O1005   1.941   .     S
H948   C1033   1.110   1_455 S
H950   C1034   1.110   .     S
H951   C26     1.108   1_556 S
H953   C1035   1.111   1_455 S
H955   C1036   1.110   .     S
H959   C1037   1.112   .     S
H962   C1038   1.110   .     S
H963   C1038   1.111   .     S
H964   C1151   1.110   .     S
H966   C1152   1.110   1_545 S
H970   C1153   1.112   1_545 S
H974   C1155   1.111   .     S
H975   C1156   1.111   .     S
H977   C1157   1.110   1_545 S
H978   C37     1.108   1_556 S
H981   C1158   1.112   1_545 S
H983   C1159   1.111   1_545 S
H984   C1159   1.110   1_545 S
H986   C1030   1.112   .     S
H988   C1032   1.111   1_455 S
C1009  C1026   1.463   .     S
C1009  O1105   1.297   .     A
C1009  O1115   1.295   .     A
C1010  C1049   1.413   .     A
C1010  C1014   1.410   .     A
C1010  O1112   1.383   .     S
C1011  C1015   1.414   .     S
C1011  O1119   1.290   .     A
C1011  O1116   1.291   .     A
C1012  O1117   1.291   .     A
C1012  C1016   1.414   .     S
C1012  O1118   1.290   .     A
C1013  C1052   1.416   .     A
C1013  C1050   1.417   .     A
C1013  C1238   1.514   1_545 S
C1014  C1051   1.410   .     A
C1014  C1237   1.514   .     S
C1016  C119    1.194   1_556 S
C1017  O1120   1.383   .     S
C1017  C1022   1.392   .     A
C1017  C1028   1.414   .     A
C1018  C1023   1.391   .     A
C1018  O1106   1.383   .     S
C1018  C1029   1.416   .     A
C1019  O1107   1.383   .     S
C1019  C1029   1.416   .     A
C1019  C1024   1.391   .     A
C1020  O1113   1.292   .     A
C1020  O1114   1.293   .     A
C1020  C1027   1.449   .     S
C1021  C1028   1.413   .     A
C1021  C1025   1.392   .     A
C1021  O1108   1.383   .     S
C1022  C1026   1.399   .     A
C1022  H1059   1.082   .     S
C1023  C1027   1.396   .     A
C1023  H1070   1.084   .     S
C1024  H1081   1.084   .     S
C1024  C1027   1.395   .     A
C1025  C1026   1.400   .     A
C1025  H1092   1.084   .     S
C1029  C916    1.473   1_655 S
C1030  H1099   1.115   .     S
C1030  O1120   1.409   .     S
C1031  C1050   1.411   .     A
C1031  F1055   1.356   .     S
C1031  N1103   1.365   .     A
C1032  H1102   1.111   .     S
C1032  H1101   1.110   .     S
C1032  C918    1.521   1_655 S
C1032  H988    1.111   1_655 S
C1033  H1061   1.115   .     S
C1033  O1106   1.410   .     S
C1033  C922    1.519   1_655 S
C1033  H948    1.110   1_655 S
C1034  H1064   1.111   .     S
C1035  O1107   1.410   .     S
C1035  H1066   1.114   .     S
C1035  C924    1.519   1_655 S
C1035  H953    1.111   1_655 S
C1036  H1069   1.111   .     S
C1036  H172    1.108   1_556 S
C1037  O1108   1.409   .     S
C1037  H1072   1.115   .     S
C1037  C1038   1.521   .     S
C1038  H1073   1.111   .     S
C1039  O1109   1.410   .     S
C1039  H1077   1.115   .     S
C1039  C1264   1.517   1_545 S
C1039  H1300   1.110   1_545 S
C1040  H1080   1.111   .     S
C1040  C1263   1.517   .     S
C1040  H1302   1.110   .     S
C1040  H183    1.108   1_556 S
C1041  H1083   1.114   .     S
C1041  O1110   1.409   .     S
C1041  C1267   1.521   .     S
C1041  H1306   1.112   .     S
C1042  F1056   1.351   .     S
C1042  C1051   1.413   .     A
C1042  N1104   1.375   .     A
C1043  H1085   1.111   .     S
C1043  H1084   1.110   .     S
C1043  C1265   1.521   1_545 S
C1043  H1310   1.111   1_545 S
C1044  O1111   1.410   .     S
C1044  H1088   1.115   .     S
C1044  C1269   1.518   1_545 S
C1044  H1311   1.111   1_545 S
C1045  H1091   1.111   .     S
C1045  C1268   1.518   .     S
C1045  H1313   1.110   .     S
C1046  H1094   1.115   .     S
C1046  O1112   1.409   .     S
C1046  C1047   1.521   .     S
C1046  H1317   1.112   .     S
C1047  H1097   1.111   .     S
C1047  H1319   1.111   .     S
C1047  H1320   1.110   .     S
C1048  F1057   1.356   .     S
C1048  N1103   1.365   .     A
C1048  C1052   1.411   .     A
C1049  N1104   1.376   .     A
C1049  F1058   1.352   .     S
C1050  O1109   1.382   .     S
C1051  O1110   1.383   .     S
C1052  O1111   1.382   .     S
Cu1053 Cu1054  2.682   .     S
Cu1053 O1116   1.941   .     S
Cu1053 O1118   1.940   .     S
Cu1053 O1114   1.954   .     S
Cu1053 O1105   1.955   .     S
Cu1053 N1104   2.015   .     S
Cu1054 O1113   1.955   .     S
Cu1054 N1103   2.015   .     S
Cu1054 O1119   1.940   .     S
Cu1054 O1115   1.954   .     S
Cu1054 O1117   1.941   .     S
H1062  C922    1.110   1_655 S
H1063  C138    1.108   1_556 S
H1067  C924    1.110   1_655 S
H1071  C925    1.112   1_655 S
H1074  C926    1.110   1_655 S
H1075  C926    1.111   1_655 S
H1076  C1263   1.110   .     S
H1078  C1264   1.110   1_545 S
H1082  C1265   1.112   1_545 S
H1086  C1267   1.111   .     S
H1087  C1268   1.111   .     S
H1089  C1269   1.110   1_545 S
H1090  C149    1.108   1_556 S
H1093  C1270   1.112   1_545 S
H1095  C1271   1.111   1_545 S
H1096  C1271   1.110   1_545 S
H1098  C918    1.112   1_655 S
C1121  C1138   1.463   .     S
C1121  O1217   1.297   .     A
C1121  O1227   1.295   .     A
C1122  C1161   1.413   .     A
C1122  C1126   1.410   .     A
C1122  O1224   1.383   .     S
C1123  C1127   1.414   .     S
C1123  O1231   1.290   .     A
C1123  O1228   1.291   .     A
C1124  O1229   1.291   .     A
C1124  C1128   1.414   .     S
C1124  O1230   1.290   .     A
C1125  C1164   1.416   .     A
C1125  C1162   1.417   .     A
C1126  C1163   1.410   .     A
C1126  C901    1.514   1_565 S
C1128  C231    1.194   1_556 S
C1129  O1232   1.383   .     S
C1129  C1134   1.392   .     A
C1129  C1140   1.414   .     A
C1130  C1135   1.391   .     A
C1130  O1218   1.383   .     S
C1130  C1141   1.416   .     A
C1131  O1219   1.383   .     S
C1131  C1141   1.416   .     A
C1131  C1136   1.391   .     A
C1132  O1225   1.292   .     A
C1132  O1226   1.293   .     A
C1132  C1139   1.449   .     S
C1133  C1140   1.413   .     A
C1133  C1137   1.392   .     A
C1133  O1220   1.383   .     S
C1134  C1138   1.399   .     A
C1134  H1171   1.082   .     S
C1135  C1139   1.396   .     A
C1135  H1182   1.084   .     S
C1136  H1193   1.084   .     S
C1136  C1139   1.395   .     A
C1137  C1138   1.400   .     A
C1137  H1204   1.084   .     S
C1140  C1253   1.473   1_455 S
C1141  C1252   1.473   .     S
C1142  H1211   1.115   .     S
C1142  O1232   1.409   .     S
C1142  C1256   1.521   1_455 S
C1142  H1322   1.112   1_455 S
C1143  C1162   1.411   .     A
C1143  F1167   1.356   .     S
C1143  N1215   1.365   .     A
C1144  H1214   1.111   .     S
C1144  H1213   1.110   .     S
C1144  C1254   1.521   .     S
C1144  H1324   1.111   .     S
C1145  H1173   1.115   .     S
C1145  O1218   1.410   .     S
C1145  C1258   1.519   .     S
C1145  H1284   1.110   .     S
C1146  H1176   1.111   .     S
C1146  C1257   1.519   1_455 S
C1146  H1286   1.110   1_455 S
C1147  O1219   1.410   .     S
C1147  H1178   1.114   .     S
C1147  C1260   1.519   .     S
C1147  H1289   1.111   .     S
C1148  H1181   1.111   .     S
C1148  C1259   1.519   1_455 S
C1148  H1291   1.110   1_455 S
C1148  H284    1.108   1_556 S
C1149  O1220   1.409   .     S
C1149  H1184   1.115   .     S
C1149  C1150   1.521   .     S
C1149  H1295   1.112   1_455 S
C1150  H1185   1.111   .     S
C1150  H1298   1.110   1_455 S
C1150  H1299   1.111   1_455 S
C1151  O1221   1.410   .     S
C1151  H1189   1.115   .     S
C1152  H1192   1.111   .     S
C1152  C927    1.517   1_565 S
C1152  H966    1.110   1_565 S
C1152  H295    1.108   1_556 S
C1153  H1195   1.114   .     S
C1153  O1222   1.409   .     S
C1153  C931    1.521   1_565 S
C1153  H970    1.112   1_565 S
C1154  F1168   1.351   .     S
C1154  C1163   1.413   .     A
C1154  N1216   1.375   .     A
C1155  H1197   1.111   .     S
C1155  H1196   1.110   .     S
C1156  O1223   1.410   .     S
C1156  H1200   1.115   .     S
C1157  H1203   1.111   .     S
C1157  C932    1.518   1_565 S
C1157  H977    1.110   1_565 S
C1158  H1206   1.115   .     S
C1158  O1224   1.409   .     S
C1158  C1159   1.521   .     S
C1158  H981    1.112   1_565 S
C1159  H1209   1.111   .     S
C1159  H983    1.111   1_565 S
C1159  H984    1.110   1_565 S
C1160  F1169   1.356   .     S
C1160  N1215   1.365   .     A
C1160  C1164   1.411   .     A
C1161  N1216   1.376   .     A
C1161  F1170   1.352   .     S
C1162  O1221   1.382   .     S
C1163  O1222   1.383   .     S
C1164  O1223   1.382   .     S
Cu1165 Cu1166  2.682   .     S
Cu1165 O1228   1.941   .     S
Cu1165 O1230   1.940   .     S
Cu1165 O1226   1.954   .     S
Cu1165 O1217   1.955   .     S
Cu1165 N1216   2.015   .     S
Cu1166 O1225   1.955   .     S
Cu1166 N1215   2.015   .     S
Cu1166 O1231   1.940   .     S
Cu1166 O1227   1.954   .     S
Cu1166 O1229   1.941   .     S
H1172  C1257   1.110   1_455 S
H1174  C1258   1.110   .     S
H1175  C250    1.108   1_556 S
H1177  C1259   1.111   1_455 S
H1179  C1260   1.110   .     S
H1183  C1261   1.112   .     S
H1186  C1262   1.110   .     S
H1187  C1262   1.111   .     S
H1188  C927    1.110   1_565 S
H1198  C931    1.111   1_565 S
H1199  C932    1.111   1_565 S
H1202  C261    1.108   1_556 S
H1210  C1254   1.112   .     S
H1212  C1256   1.111   1_455 S
C1233  C1250   1.463   .     S
C1233  O1329   1.297   .     A
C1233  O1339   1.295   .     A
C1234  C1273   1.413   .     A
C1234  C1238   1.410   .     A
C1234  O1336   1.383   .     S
C1235  C1239   1.414   .     S
C1235  O1343   1.290   .     A
C1235  O1340   1.291   .     A
C1236  O1341   1.291   .     A
C1236  C1240   1.414   .     S
C1236  O1342   1.290   .     A
C1237  C1276   1.416   .     A
C1237  C1274   1.417   .     A
C1238  C1275   1.410   .     A
C1238  C1013   1.514   1_565 S
C1240  C343    1.194   1_556 S
C1241  O1344   1.383   .     S
C1241  C1246   1.392   .     A
C1241  C1252   1.414   .     A
C1242  C1247   1.391   .     A
C1242  O1330   1.383   .     S
C1242  C1253   1.416   .     A
C1243  O1331   1.383   .     S
C1243  C1253   1.416   .     A
C1243  C1248   1.391   .     A
C1244  O1337   1.292   .     A
C1244  O1338   1.293   .     A
C1244  C1251   1.449   .     S
C1245  C1252   1.413   .     A
C1245  C1249   1.392   .     A
C1245  O1332   1.383   .     S
C1246  C1250   1.399   .     A
C1246  H1283   1.082   .     S
C1247  C1251   1.396   .     A
C1247  H1294   1.084   .     S
C1248  H1305   1.084   .     S
C1248  C1251   1.395   .     A
C1249  C1250   1.400   .     A
C1249  H1316   1.084   .     S
C1253  C1140   1.473   1_655 S
C1254  H1323   1.115   .     S
C1254  O1344   1.409   .     S
C1255  C1274   1.411   .     A
C1255  F1279   1.356   .     S
C1255  N1327   1.365   .     A
C1256  H1326   1.111   .     S
C1256  H1325   1.110   .     S
C1256  C1142   1.521   1_655 S
C1256  H1212   1.111   1_655 S
C1257  H1285   1.115   .     S
C1257  O1330   1.410   .     S
C1257  C1146   1.519   1_655 S
C1257  H1172   1.110   1_655 S
C1258  H1288   1.111   .     S
C1259  O1331   1.410   .     S
C1259  H1290   1.114   .     S
C1259  C1148   1.519   1_655 S
C1259  H1177   1.111   1_655 S
C1260  H1293   1.111   .     S
C1260  H396    1.108   1_556 S
C1261  O1332   1.409   .     S
C1261  H1296   1.115   .     S
C1261  C1262   1.521   .     S
C1262  H1297   1.111   .     S
C1263  O1333   1.410   .     S
C1263  H1301   1.115   .     S
C1264  H1304   1.111   .     S
C1264  C1039   1.517   1_565 S
C1264  H1078   1.110   1_565 S
C1264  H407    1.108   1_556 S
C1265  H1307   1.114   .     S
C1265  O1334   1.409   .     S
C1265  C1043   1.521   1_565 S
C1265  H1082   1.112   1_565 S
C1266  F1280   1.351   .     S
C1266  C1275   1.413   .     A
C1266  N1328   1.375   .     A
C1267  H1309   1.111   .     S
C1267  H1308   1.110   .     S
C1268  O1335   1.410   .     S
C1268  H1312   1.115   .     S
C1269  H1315   1.111   .     S
C1269  C1044   1.518   1_565 S
C1269  H1089   1.110   1_565 S
C1270  H1318   1.115   .     S
C1270  O1336   1.409   .     S
C1270  C1271   1.521   .     S
C1270  H1093   1.112   1_565 S
C1271  H1321   1.111   .     S
C1271  H1095   1.111   1_565 S
C1271  H1096   1.110   1_565 S
C1272  F1281   1.356   .     S
C1272  N1327   1.365   .     A
C1272  C1276   1.411   .     A
C1273  N1328   1.376   .     A
C1273  F1282   1.352   .     S
C1274  O1333   1.382   .     S
C1275  O1334   1.383   .     S
C1276  O1335   1.382   .     S
Cu1277 Cu1278  2.682   .     S
Cu1277 O1340   1.941   .     S
Cu1277 O1342   1.940   .     S
Cu1277 O1338   1.954   .     S
Cu1277 O1329   1.955   .     S
Cu1277 N1328   2.015   .     S
Cu1278 O1337   1.955   .     S
Cu1278 N1327   2.015   .     S
Cu1278 O1343   1.940   .     S
Cu1278 O1339   1.954   .     S
Cu1278 O1341   1.941   .     S
H1286  C1146   1.110   1_655 S
H1287  C362    1.108   1_556 S
H1291  C1148   1.110   1_655 S
H1295  C1149   1.112   1_655 S
H1298  C1150   1.110   1_655 S
H1299  C1150   1.111   1_655 S
H1300  C1039   1.110   1_565 S
H1310  C1043   1.111   1_565 S
H1311  C1044   1.111   1_565 S
H1314  C373    1.108   1_556 S
H1322  C1142   1.112   1_655 S
