data_str_m2_o1_o2_pcu_sym.46
_audit_creation_date              2020-01-03
_audit_creation_method            'Materials Studio'
_symmetry_space_group_name_H-M    'P1'
_symmetry_Int_Tables_number       1
_symmetry_cell_setting            triclinic
loop_
_symmetry_equiv_pos_as_xyz
  x,y,z
_cell_length_a                    32.4863
_cell_length_b                    28.5643
_cell_length_c                    30.1952
_cell_angle_alpha                 90.0006
_cell_angle_beta                  90.1675
_cell_angle_gamma                 90.0001
loop_
_atom_site_label
_atom_site_type_symbol
_atom_site_fract_x
_atom_site_fract_y
_atom_site_fract_z
_atom_site_U_iso_or_equiv
_atom_site_adp_type
_atom_site_occupancy
C1     C     0.08736   0.16667   0.24996   0.00000  Uiso   1.00
C2     C     0.31204   0.20921   0.25004   0.00000  Uiso   1.00
C3     C     0.31204   0.12412   0.25001   0.00000  Uiso   1.00
C4     C     0.02129   0.20921   0.24996   0.00000  Uiso   1.00
C5     C     0.13261   0.18404   0.04728   0.00000  Uiso   1.00
C6     C     0.13265   0.14941   0.45253   0.00000  Uiso   1.00
C7     C     0.20068   0.18415   0.45272   0.00000  Uiso   1.00
C8     C     0.20073   0.14952   0.04747   0.00000  Uiso   1.00
C9     C     0.13200   0.18413   0.09358   0.00000  Uiso   1.00
C10    C     0.13205   0.14926   0.40623   0.00000  Uiso   1.00
C11    C     0.20129   0.18424   0.40642   0.00000  Uiso   1.00
C12    C     0.24598   0.16667   0.25004   0.00000  Uiso   1.00
C13    C     0.20133   0.14937   0.09378   0.00000  Uiso   1.00
C14    C     0.16665   0.16670   0.11689   0.00000  Uiso   1.00
C15    C     0.16668   0.16670   0.38311   0.00000  Uiso   1.00
C16    C     0.16667   0.16679   0.02429   0.00000  Uiso   1.00
C17    C     0.16667   0.16679   0.47571   0.00000  Uiso   1.00
C18    C     0.29059   0.16667   0.25004   0.00000  Uiso   1.00
C19    C     0.04274   0.16667   0.24996   0.00000  Uiso   1.00
C20    C     0.09469   0.20146   0.11699   0.00000  Uiso   1.00
C21    C     0.09472   0.13191   0.38262   0.00000  Uiso   1.00
C22    C     0.23857   0.20168   0.38302   0.00000  Uiso   1.00
C23    C     0.16665   0.16667   0.16513   0.00000  Uiso   1.00
C24    C     0.23870   0.13213   0.11739   0.00000  Uiso   1.00
C25    C     0.16668   0.16667   0.33487   0.00000  Uiso   1.00
C26    C     0.14051   0.02480   0.22307   0.00000  Uiso   1.00
C27    C     0.19282   0.30853   0.27693   0.00000  Uiso   1.00
C28    C     0.19282   0.02480   0.27693   0.00000  Uiso   1.00
C29    C     0.14051   0.30853   0.22307   0.00000  Uiso   1.00
C30    C     0.02129   0.12412   0.24999   0.00000  Uiso   1.00
Cu31   Cu    0.16667   0.21355   0.25000   0.00000  Uiso   1.00
Cu32   Cu    0.16667   0.11978   0.25000   0.00000  Uiso   1.00
H33    H     0.11956   0.04349   0.20150   0.00000  Uiso   1.00
H34    H     0.29603   0.24247   0.25010   0.00000  Uiso   1.00
H35    H     0.29603   0.09086   0.25001   0.00000  Uiso   1.00
H36    H     0.03731   0.24247   0.24990   0.00000  Uiso   1.00
H37    H     0.09227   0.19922   0.15271   0.00000  Uiso   1.00
H38    H     0.09225   0.13422   0.34689   0.00000  Uiso   1.00
H39    H     0.24102   0.19940   0.34730   0.00000  Uiso   1.00
H40    H     0.24113   0.13437   0.15313   0.00000  Uiso   1.00
H41    H     0.21376   0.28983   0.29852   0.00000  Uiso   1.00
H42    H     0.21377   0.04349   0.29850   0.00000  Uiso   1.00
H43    H     0.11957   0.28983   0.20148   0.00000  Uiso   1.00
H44    H     0.10653   0.19759   0.02884   0.00000  Uiso   1.00
H45    H     0.10659   0.13583   0.47082   0.00000  Uiso   1.00
H46    H     0.22673   0.19778   0.47116   0.00000  Uiso   1.00
H47    H     0.22682   0.13602   0.02919   0.00000  Uiso   1.00
H48    H     0.03731   0.09086   0.24999   0.00000  Uiso   1.00
N49    N     0.16667   0.28402   0.25000   0.00000  Uiso   1.00
N50    N     0.16667   0.04931   0.25000   0.00000  Uiso   1.00
O51    O     0.10655   0.20625   0.25000   0.00000  Uiso   1.00
O52    O     0.06590   0.11492   0.40294   0.00000  Uiso   1.00
O53    O     0.26737   0.21873   0.40350   0.00000  Uiso   1.00
O54    O     0.26759   0.11531   0.09706   0.00000  Uiso   1.00
O55    O     0.22679   0.12709   0.25001   0.00000  Uiso   1.00
O56    O     0.22679   0.20625   0.25001   0.00000  Uiso   1.00
O57    O     0.10655   0.12709   0.25000   0.00000  Uiso   1.00
O58    O     0.16666   0.20626   0.18573   0.00000  Uiso   1.00
O59    O     0.16667   0.12707   0.31427   0.00000  Uiso   1.00
O60    O     0.16667   0.20626   0.31427   0.00000  Uiso   1.00
O61    O     0.16666   0.12707   0.18573   0.00000  Uiso   1.00
O62    O     0.06583   0.21838   0.09650   0.00000  Uiso   1.00
C63    C     0.42069   0.16667   0.24996   0.00000  Uiso   1.00
C64    C     0.64538   0.20921   0.25004   0.00000  Uiso   1.00
C65    C     0.64538   0.12412   0.25001   0.00000  Uiso   1.00
C66    C     0.35462   0.20921   0.24996   0.00000  Uiso   1.00
C67    C     0.46594   0.18404   0.04728   0.00000  Uiso   1.00
C68    C     0.46598   0.14941   0.45253   0.00000  Uiso   1.00
C69    C     0.53402   0.18415   0.45272   0.00000  Uiso   1.00
C70    C     0.53406   0.14952   0.04747   0.00000  Uiso   1.00
C71    C     0.46534   0.18413   0.09358   0.00000  Uiso   1.00
C72    C     0.46538   0.14926   0.40623   0.00000  Uiso   1.00
C73    C     0.53462   0.18424   0.40642   0.00000  Uiso   1.00
C74    C     0.57931   0.16667   0.25004   0.00000  Uiso   1.00
C75    C     0.53466   0.14937   0.09378   0.00000  Uiso   1.00
C76    C     0.49999   0.16670   0.11689   0.00000  Uiso   1.00
C77    C     0.50001   0.16670   0.38311   0.00000  Uiso   1.00
C78    C     0.50000   0.16679   0.02429   0.00000  Uiso   1.00
C79    C     0.50000   0.16679   0.47571   0.00000  Uiso   1.00
C80    C     0.62392   0.16667   0.25004   0.00000  Uiso   1.00
C81    C     0.37608   0.16667   0.24996   0.00000  Uiso   1.00
C82    C     0.42802   0.20146   0.11699   0.00000  Uiso   1.00
C83    C     0.42805   0.13191   0.38262   0.00000  Uiso   1.00
C84    C     0.57190   0.20168   0.38302   0.00000  Uiso   1.00
C85    C     0.49999   0.16667   0.16513   0.00000  Uiso   1.00
C86    C     0.57203   0.13213   0.11739   0.00000  Uiso   1.00
C87    C     0.50001   0.16667   0.33487   0.00000  Uiso   1.00
C88    C     0.47384   0.02480   0.22307   0.00000  Uiso   1.00
C89    C     0.52615   0.30853   0.27693   0.00000  Uiso   1.00
C90    C     0.52615   0.02480   0.27693   0.00000  Uiso   1.00
C91    C     0.47385   0.30853   0.22307   0.00000  Uiso   1.00
C92    C     0.35462   0.12412   0.24999   0.00000  Uiso   1.00
Cu93   Cu    0.50000   0.21355   0.25000   0.00000  Uiso   1.00
Cu94   Cu    0.50000   0.11978   0.25000   0.00000  Uiso   1.00
H95    H     0.45289   0.04349   0.20150   0.00000  Uiso   1.00
H96    H     0.62936   0.24247   0.25010   0.00000  Uiso   1.00
H97    H     0.62936   0.09086   0.25001   0.00000  Uiso   1.00
H98    H     0.37064   0.24247   0.24990   0.00000  Uiso   1.00
H99    H     0.42560   0.19922   0.15271   0.00000  Uiso   1.00
H100   H     0.42558   0.13422   0.34689   0.00000  Uiso   1.00
H101   H     0.57435   0.19940   0.34730   0.00000  Uiso   1.00
H102   H     0.57446   0.13437   0.15313   0.00000  Uiso   1.00
H103   H     0.54710   0.28983   0.29852   0.00000  Uiso   1.00
H104   H     0.54711   0.04349   0.29850   0.00000  Uiso   1.00
H105   H     0.45290   0.28983   0.20148   0.00000  Uiso   1.00
H106   H     0.43986   0.19759   0.02884   0.00000  Uiso   1.00
H107   H     0.43993   0.13583   0.47082   0.00000  Uiso   1.00
H108   H     0.56006   0.19778   0.47116   0.00000  Uiso   1.00
H109   H     0.56015   0.13602   0.02919   0.00000  Uiso   1.00
H110   H     0.37064   0.09086   0.24999   0.00000  Uiso   1.00
N111   N     0.50000   0.28402   0.25000   0.00000  Uiso   1.00
N112   N     0.50000   0.04931   0.25000   0.00000  Uiso   1.00
O113   O     0.43988   0.20625   0.25000   0.00000  Uiso   1.00
O114   O     0.39923   0.11492   0.40294   0.00000  Uiso   1.00
O115   O     0.60070   0.21873   0.40350   0.00000  Uiso   1.00
O116   O     0.60092   0.11531   0.09706   0.00000  Uiso   1.00
O117   O     0.56012   0.12709   0.25001   0.00000  Uiso   1.00
O118   O     0.56012   0.20625   0.25001   0.00000  Uiso   1.00
O119   O     0.43988   0.12709   0.25000   0.00000  Uiso   1.00
O120   O     0.50000   0.20626   0.18573   0.00000  Uiso   1.00
O121   O     0.50000   0.12707   0.31427   0.00000  Uiso   1.00
O122   O     0.50000   0.20626   0.31427   0.00000  Uiso   1.00
O123   O     0.50000   0.12707   0.18573   0.00000  Uiso   1.00
O124   O     0.39916   0.21838   0.09650   0.00000  Uiso   1.00
C125   C     0.75402   0.16667   0.24996   0.00000  Uiso   1.00
C126   C     0.97871   0.20921   0.25004   0.00000  Uiso   1.00
C127   C     0.97871   0.12412   0.25001   0.00000  Uiso   1.00
C128   C     0.68796   0.20921   0.24996   0.00000  Uiso   1.00
C129   C     0.79928   0.18404   0.04728   0.00000  Uiso   1.00
C130   C     0.79932   0.14941   0.45253   0.00000  Uiso   1.00
C131   C     0.86735   0.18415   0.45272   0.00000  Uiso   1.00
C132   C     0.86740   0.14952   0.04747   0.00000  Uiso   1.00
C133   C     0.79867   0.18413   0.09358   0.00000  Uiso   1.00
C134   C     0.79871   0.14926   0.40623   0.00000  Uiso   1.00
C135   C     0.86796   0.18424   0.40642   0.00000  Uiso   1.00
C136   C     0.91264   0.16667   0.25004   0.00000  Uiso   1.00
C137   C     0.86800   0.14937   0.09378   0.00000  Uiso   1.00
C138   C     0.83332   0.16670   0.11689   0.00000  Uiso   1.00
C139   C     0.83335   0.16670   0.38311   0.00000  Uiso   1.00
C140   C     0.83334   0.16679   0.02429   0.00000  Uiso   1.00
C141   C     0.83333   0.16679   0.47571   0.00000  Uiso   1.00
C142   C     0.95726   0.16667   0.25004   0.00000  Uiso   1.00
C143   C     0.70941   0.16667   0.24996   0.00000  Uiso   1.00
C144   C     0.76135   0.20146   0.11699   0.00000  Uiso   1.00
C145   C     0.76139   0.13191   0.38262   0.00000  Uiso   1.00
C146   C     0.90524   0.20168   0.38302   0.00000  Uiso   1.00
C147   C     0.83332   0.16667   0.16513   0.00000  Uiso   1.00
C148   C     0.90536   0.13213   0.11739   0.00000  Uiso   1.00
C149   C     0.83335   0.16667   0.33487   0.00000  Uiso   1.00
C150   C     0.80718   0.02480   0.22307   0.00000  Uiso   1.00
C151   C     0.85948   0.30853   0.27693   0.00000  Uiso   1.00
C152   C     0.85949   0.02480   0.27693   0.00000  Uiso   1.00
C153   C     0.80718   0.30853   0.22307   0.00000  Uiso   1.00
C154   C     0.68796   0.12412   0.24999   0.00000  Uiso   1.00
Cu155  Cu    0.83333   0.21355   0.25000   0.00000  Uiso   1.00
Cu156  Cu    0.83333   0.11978   0.25000   0.00000  Uiso   1.00
H157   H     0.78623   0.04349   0.20150   0.00000  Uiso   1.00
H158   H     0.96269   0.24247   0.25010   0.00000  Uiso   1.00
H159   H     0.96269   0.09086   0.25001   0.00000  Uiso   1.00
H160   H     0.70397   0.24247   0.24990   0.00000  Uiso   1.00
H161   H     0.75893   0.19922   0.15271   0.00000  Uiso   1.00
H162   H     0.75892   0.13422   0.34689   0.00000  Uiso   1.00
H163   H     0.90768   0.19940   0.34730   0.00000  Uiso   1.00
H164   H     0.90779   0.13437   0.15313   0.00000  Uiso   1.00
H165   H     0.88043   0.28983   0.29852   0.00000  Uiso   1.00
H166   H     0.88044   0.04349   0.29850   0.00000  Uiso   1.00
H167   H     0.78624   0.28983   0.20148   0.00000  Uiso   1.00
H168   H     0.77320   0.19759   0.02884   0.00000  Uiso   1.00
H169   H     0.77326   0.13583   0.47082   0.00000  Uiso   1.00
H170   H     0.89340   0.19778   0.47116   0.00000  Uiso   1.00
H171   H     0.89349   0.13602   0.02919   0.00000  Uiso   1.00
H172   H     0.70397   0.09086   0.24999   0.00000  Uiso   1.00
N173   N     0.83333   0.28402   0.25000   0.00000  Uiso   1.00
N174   N     0.83333   0.04931   0.25000   0.00000  Uiso   1.00
O175   O     0.77321   0.20625   0.25000   0.00000  Uiso   1.00
O176   O     0.73257   0.11492   0.40294   0.00000  Uiso   1.00
O177   O     0.93404   0.21873   0.40350   0.00000  Uiso   1.00
O178   O     0.93426   0.11531   0.09706   0.00000  Uiso   1.00
O179   O     0.89345   0.12709   0.25001   0.00000  Uiso   1.00
O180   O     0.89345   0.20625   0.25001   0.00000  Uiso   1.00
O181   O     0.77321   0.12709   0.25000   0.00000  Uiso   1.00
O182   O     0.83333   0.20626   0.18573   0.00000  Uiso   1.00
O183   O     0.83334   0.12707   0.31427   0.00000  Uiso   1.00
O184   O     0.83334   0.20626   0.31427   0.00000  Uiso   1.00
O185   O     0.83333   0.12707   0.18573   0.00000  Uiso   1.00
O186   O     0.73249   0.21838   0.09650   0.00000  Uiso   1.00
C187   C     0.08736   0.50000   0.24996   0.00000  Uiso   1.00
C188   C     0.31204   0.54254   0.25004   0.00000  Uiso   1.00
C189   C     0.31204   0.45746   0.25001   0.00000  Uiso   1.00
C190   C     0.02129   0.54254   0.24996   0.00000  Uiso   1.00
C191   C     0.13261   0.51737   0.04728   0.00000  Uiso   1.00
C192   C     0.13265   0.48274   0.45253   0.00000  Uiso   1.00
C193   C     0.20068   0.51748   0.45272   0.00000  Uiso   1.00
C194   C     0.20073   0.48285   0.04747   0.00000  Uiso   1.00
C195   C     0.13200   0.51746   0.09358   0.00000  Uiso   1.00
C196   C     0.13205   0.48259   0.40623   0.00000  Uiso   1.00
C197   C     0.20129   0.51757   0.40642   0.00000  Uiso   1.00
C198   C     0.24598   0.50000   0.25004   0.00000  Uiso   1.00
C199   C     0.20133   0.48270   0.09378   0.00000  Uiso   1.00
C200   C     0.16665   0.50003   0.11689   0.00000  Uiso   1.00
C201   C     0.16668   0.50003   0.38311   0.00000  Uiso   1.00
C202   C     0.16667   0.50012   0.02429   0.00000  Uiso   1.00
C203   C     0.16667   0.50012   0.47571   0.00000  Uiso   1.00
C204   C     0.29059   0.50000   0.25004   0.00000  Uiso   1.00
C205   C     0.04274   0.50000   0.24996   0.00000  Uiso   1.00
C206   C     0.09469   0.53479   0.11699   0.00000  Uiso   1.00
C207   C     0.09472   0.46525   0.38262   0.00000  Uiso   1.00
C208   C     0.23857   0.53501   0.38302   0.00000  Uiso   1.00
C209   C     0.16665   0.50000   0.16513   0.00000  Uiso   1.00
C210   C     0.23870   0.46547   0.11739   0.00000  Uiso   1.00
C211   C     0.16668   0.50000   0.33487   0.00000  Uiso   1.00
C212   C     0.14051   0.35813   0.22307   0.00000  Uiso   1.00
C213   C     0.19282   0.64186   0.27693   0.00000  Uiso   1.00
C214   C     0.19282   0.35813   0.27693   0.00000  Uiso   1.00
C215   C     0.14051   0.64186   0.22307   0.00000  Uiso   1.00
C216   C     0.02129   0.45746   0.24999   0.00000  Uiso   1.00
Cu217  Cu    0.16667   0.54689   0.25000   0.00000  Uiso   1.00
Cu218  Cu    0.16667   0.45311   0.25000   0.00000  Uiso   1.00
H219   H     0.11956   0.37682   0.20150   0.00000  Uiso   1.00
H220   H     0.29603   0.57581   0.25010   0.00000  Uiso   1.00
H221   H     0.29603   0.42419   0.25001   0.00000  Uiso   1.00
H222   H     0.03731   0.57581   0.24990   0.00000  Uiso   1.00
H223   H     0.09227   0.53255   0.15271   0.00000  Uiso   1.00
H224   H     0.09225   0.46755   0.34689   0.00000  Uiso   1.00
H225   H     0.24102   0.53273   0.34730   0.00000  Uiso   1.00
H226   H     0.24113   0.46770   0.15313   0.00000  Uiso   1.00
H227   H     0.21376   0.62316   0.29852   0.00000  Uiso   1.00
H228   H     0.21377   0.37682   0.29850   0.00000  Uiso   1.00
H229   H     0.11957   0.62316   0.20148   0.00000  Uiso   1.00
H230   H     0.10653   0.53092   0.02884   0.00000  Uiso   1.00
H231   H     0.10659   0.46916   0.47082   0.00000  Uiso   1.00
H232   H     0.22673   0.53111   0.47116   0.00000  Uiso   1.00
H233   H     0.22682   0.46935   0.02919   0.00000  Uiso   1.00
H234   H     0.03731   0.42419   0.24999   0.00000  Uiso   1.00
N235   N     0.16667   0.61736   0.25000   0.00000  Uiso   1.00
N236   N     0.16667   0.38264   0.25000   0.00000  Uiso   1.00
O237   O     0.10655   0.53958   0.25000   0.00000  Uiso   1.00
O238   O     0.06590   0.44826   0.40294   0.00000  Uiso   1.00
O239   O     0.26737   0.55206   0.40350   0.00000  Uiso   1.00
O240   O     0.26759   0.44865   0.09706   0.00000  Uiso   1.00
O241   O     0.22679   0.46042   0.25001   0.00000  Uiso   1.00
O242   O     0.22679   0.53958   0.25001   0.00000  Uiso   1.00
O243   O     0.10655   0.46042   0.25000   0.00000  Uiso   1.00
O244   O     0.16666   0.53959   0.18573   0.00000  Uiso   1.00
O245   O     0.16667   0.46041   0.31427   0.00000  Uiso   1.00
O246   O     0.16667   0.53959   0.31427   0.00000  Uiso   1.00
O247   O     0.16666   0.46041   0.18573   0.00000  Uiso   1.00
O248   O     0.06583   0.55171   0.09650   0.00000  Uiso   1.00
C249   C     0.42069   0.50000   0.24996   0.00000  Uiso   1.00
C250   C     0.64538   0.54254   0.25004   0.00000  Uiso   1.00
C251   C     0.64538   0.45746   0.25001   0.00000  Uiso   1.00
C252   C     0.35462   0.54254   0.24996   0.00000  Uiso   1.00
C253   C     0.46594   0.51737   0.04728   0.00000  Uiso   1.00
C254   C     0.46598   0.48274   0.45253   0.00000  Uiso   1.00
C255   C     0.53402   0.51748   0.45272   0.00000  Uiso   1.00
C256   C     0.53406   0.48285   0.04747   0.00000  Uiso   1.00
C257   C     0.46534   0.51746   0.09358   0.00000  Uiso   1.00
C258   C     0.46538   0.48259   0.40623   0.00000  Uiso   1.00
C259   C     0.53462   0.51757   0.40642   0.00000  Uiso   1.00
C260   C     0.57931   0.50000   0.25004   0.00000  Uiso   1.00
C261   C     0.53466   0.48270   0.09378   0.00000  Uiso   1.00
C262   C     0.49999   0.50003   0.11689   0.00000  Uiso   1.00
C263   C     0.50001   0.50003   0.38311   0.00000  Uiso   1.00
C264   C     0.50000   0.50012   0.02429   0.00000  Uiso   1.00
C265   C     0.50000   0.50012   0.47571   0.00000  Uiso   1.00
C266   C     0.62392   0.50000   0.25004   0.00000  Uiso   1.00
C267   C     0.37608   0.50000   0.24996   0.00000  Uiso   1.00
C268   C     0.42802   0.53479   0.11699   0.00000  Uiso   1.00
C269   C     0.42805   0.46525   0.38262   0.00000  Uiso   1.00
C270   C     0.57190   0.53501   0.38302   0.00000  Uiso   1.00
C271   C     0.49999   0.50000   0.16513   0.00000  Uiso   1.00
C272   C     0.57203   0.46547   0.11739   0.00000  Uiso   1.00
C273   C     0.50001   0.50000   0.33487   0.00000  Uiso   1.00
C274   C     0.47384   0.35813   0.22307   0.00000  Uiso   1.00
C275   C     0.52615   0.64186   0.27693   0.00000  Uiso   1.00
C276   C     0.52615   0.35813   0.27693   0.00000  Uiso   1.00
C277   C     0.47385   0.64186   0.22307   0.00000  Uiso   1.00
C278   C     0.35462   0.45746   0.24999   0.00000  Uiso   1.00
Cu279  Cu    0.50000   0.54689   0.25000   0.00000  Uiso   1.00
Cu280  Cu    0.50000   0.45311   0.25000   0.00000  Uiso   1.00
H281   H     0.45289   0.37682   0.20150   0.00000  Uiso   1.00
H282   H     0.62936   0.57581   0.25010   0.00000  Uiso   1.00
H283   H     0.62936   0.42419   0.25001   0.00000  Uiso   1.00
H284   H     0.37064   0.57581   0.24990   0.00000  Uiso   1.00
H285   H     0.42560   0.53255   0.15271   0.00000  Uiso   1.00
H286   H     0.42558   0.46755   0.34689   0.00000  Uiso   1.00
H287   H     0.57435   0.53273   0.34730   0.00000  Uiso   1.00
H288   H     0.57446   0.46770   0.15313   0.00000  Uiso   1.00
H289   H     0.54710   0.62316   0.29852   0.00000  Uiso   1.00
H290   H     0.54711   0.37682   0.29850   0.00000  Uiso   1.00
H291   H     0.45290   0.62316   0.20148   0.00000  Uiso   1.00
H292   H     0.43986   0.53092   0.02884   0.00000  Uiso   1.00
H293   H     0.43993   0.46916   0.47082   0.00000  Uiso   1.00
H294   H     0.56006   0.53111   0.47116   0.00000  Uiso   1.00
H295   H     0.56015   0.46935   0.02919   0.00000  Uiso   1.00
H296   H     0.37064   0.42419   0.24999   0.00000  Uiso   1.00
N297   N     0.50000   0.61736   0.25000   0.00000  Uiso   1.00
N298   N     0.50000   0.38264   0.25000   0.00000  Uiso   1.00
O299   O     0.43988   0.53958   0.25000   0.00000  Uiso   1.00
O300   O     0.39923   0.44826   0.40294   0.00000  Uiso   1.00
O301   O     0.60070   0.55206   0.40350   0.00000  Uiso   1.00
O302   O     0.60092   0.44865   0.09706   0.00000  Uiso   1.00
O303   O     0.56012   0.46042   0.25001   0.00000  Uiso   1.00
O304   O     0.56012   0.53958   0.25001   0.00000  Uiso   1.00
O305   O     0.43988   0.46042   0.25000   0.00000  Uiso   1.00
O306   O     0.50000   0.53959   0.18573   0.00000  Uiso   1.00
O307   O     0.50000   0.46041   0.31427   0.00000  Uiso   1.00
O308   O     0.50000   0.53959   0.31427   0.00000  Uiso   1.00
O309   O     0.50000   0.46041   0.18573   0.00000  Uiso   1.00
O310   O     0.39916   0.55171   0.09650   0.00000  Uiso   1.00
C311   C     0.75402   0.50000   0.24996   0.00000  Uiso   1.00
C312   C     0.97871   0.54254   0.25004   0.00000  Uiso   1.00
C313   C     0.97871   0.45746   0.25001   0.00000  Uiso   1.00
C314   C     0.68796   0.54254   0.24996   0.00000  Uiso   1.00
C315   C     0.79928   0.51737   0.04728   0.00000  Uiso   1.00
C316   C     0.79932   0.48274   0.45253   0.00000  Uiso   1.00
C317   C     0.86735   0.51748   0.45272   0.00000  Uiso   1.00
C318   C     0.86740   0.48285   0.04747   0.00000  Uiso   1.00
C319   C     0.79867   0.51746   0.09358   0.00000  Uiso   1.00
C320   C     0.79871   0.48259   0.40623   0.00000  Uiso   1.00
C321   C     0.86796   0.51757   0.40642   0.00000  Uiso   1.00
C322   C     0.91264   0.50000   0.25004   0.00000  Uiso   1.00
C323   C     0.86800   0.48270   0.09378   0.00000  Uiso   1.00
C324   C     0.83332   0.50003   0.11689   0.00000  Uiso   1.00
C325   C     0.83335   0.50003   0.38311   0.00000  Uiso   1.00
C326   C     0.83334   0.50012   0.02429   0.00000  Uiso   1.00
C327   C     0.83333   0.50012   0.47571   0.00000  Uiso   1.00
C328   C     0.95726   0.50000   0.25004   0.00000  Uiso   1.00
C329   C     0.70941   0.50000   0.24996   0.00000  Uiso   1.00
C330   C     0.76135   0.53479   0.11699   0.00000  Uiso   1.00
C331   C     0.76139   0.46525   0.38262   0.00000  Uiso   1.00
C332   C     0.90524   0.53501   0.38302   0.00000  Uiso   1.00
C333   C     0.83332   0.50000   0.16513   0.00000  Uiso   1.00
C334   C     0.90536   0.46547   0.11739   0.00000  Uiso   1.00
C335   C     0.83335   0.50000   0.33487   0.00000  Uiso   1.00
C336   C     0.80718   0.35813   0.22307   0.00000  Uiso   1.00
C337   C     0.85948   0.64186   0.27693   0.00000  Uiso   1.00
C338   C     0.85949   0.35813   0.27693   0.00000  Uiso   1.00
C339   C     0.80718   0.64186   0.22307   0.00000  Uiso   1.00
C340   C     0.68796   0.45746   0.24999   0.00000  Uiso   1.00
Cu341  Cu    0.83333   0.54689   0.25000   0.00000  Uiso   1.00
Cu342  Cu    0.83333   0.45311   0.25000   0.00000  Uiso   1.00
H343   H     0.78623   0.37682   0.20150   0.00000  Uiso   1.00
H344   H     0.96269   0.57581   0.25010   0.00000  Uiso   1.00
H345   H     0.96269   0.42419   0.25001   0.00000  Uiso   1.00
H346   H     0.70397   0.57581   0.24990   0.00000  Uiso   1.00
H347   H     0.75893   0.53255   0.15271   0.00000  Uiso   1.00
H348   H     0.75892   0.46755   0.34689   0.00000  Uiso   1.00
H349   H     0.90768   0.53273   0.34730   0.00000  Uiso   1.00
H350   H     0.90779   0.46770   0.15313   0.00000  Uiso   1.00
H351   H     0.88043   0.62316   0.29852   0.00000  Uiso   1.00
H352   H     0.88044   0.37682   0.29850   0.00000  Uiso   1.00
H353   H     0.78624   0.62316   0.20148   0.00000  Uiso   1.00
H354   H     0.77320   0.53092   0.02884   0.00000  Uiso   1.00
H355   H     0.77326   0.46916   0.47082   0.00000  Uiso   1.00
H356   H     0.89340   0.53111   0.47116   0.00000  Uiso   1.00
H357   H     0.89349   0.46935   0.02919   0.00000  Uiso   1.00
H358   H     0.70397   0.42419   0.24999   0.00000  Uiso   1.00
N359   N     0.83333   0.61736   0.25000   0.00000  Uiso   1.00
N360   N     0.83333   0.38264   0.25000   0.00000  Uiso   1.00
O361   O     0.77321   0.53958   0.25000   0.00000  Uiso   1.00
O362   O     0.73257   0.44826   0.40294   0.00000  Uiso   1.00
O363   O     0.93404   0.55206   0.40350   0.00000  Uiso   1.00
O364   O     0.93426   0.44865   0.09706   0.00000  Uiso   1.00
O365   O     0.89345   0.46042   0.25001   0.00000  Uiso   1.00
O366   O     0.89345   0.53958   0.25001   0.00000  Uiso   1.00
O367   O     0.77321   0.46042   0.25000   0.00000  Uiso   1.00
O368   O     0.83333   0.53959   0.18573   0.00000  Uiso   1.00
O369   O     0.83334   0.46041   0.31427   0.00000  Uiso   1.00
O370   O     0.83334   0.53959   0.31427   0.00000  Uiso   1.00
O371   O     0.83333   0.46041   0.18573   0.00000  Uiso   1.00
O372   O     0.73249   0.55171   0.09650   0.00000  Uiso   1.00
C373   C     0.08736   0.83333   0.24996   0.00000  Uiso   1.00
C374   C     0.31204   0.87588   0.25004   0.00000  Uiso   1.00
C375   C     0.31204   0.79079   0.25001   0.00000  Uiso   1.00
C376   C     0.02129   0.87588   0.24996   0.00000  Uiso   1.00
C377   C     0.13261   0.85071   0.04728   0.00000  Uiso   1.00
C378   C     0.13265   0.81608   0.45253   0.00000  Uiso   1.00
C379   C     0.20068   0.85082   0.45272   0.00000  Uiso   1.00
C380   C     0.20073   0.81619   0.04747   0.00000  Uiso   1.00
C381   C     0.13200   0.85079   0.09358   0.00000  Uiso   1.00
C382   C     0.13205   0.81592   0.40623   0.00000  Uiso   1.00
C383   C     0.20129   0.85090   0.40642   0.00000  Uiso   1.00
C384   C     0.24598   0.83333   0.25004   0.00000  Uiso   1.00
C385   C     0.20133   0.81603   0.09378   0.00000  Uiso   1.00
C386   C     0.16665   0.83336   0.11689   0.00000  Uiso   1.00
C387   C     0.16668   0.83337   0.38311   0.00000  Uiso   1.00
C388   C     0.16667   0.83345   0.02429   0.00000  Uiso   1.00
C389   C     0.16667   0.83345   0.47571   0.00000  Uiso   1.00
C390   C     0.29059   0.83333   0.25004   0.00000  Uiso   1.00
C391   C     0.04274   0.83333   0.24996   0.00000  Uiso   1.00
C392   C     0.09469   0.86812   0.11699   0.00000  Uiso   1.00
C393   C     0.09472   0.79858   0.38262   0.00000  Uiso   1.00
C394   C     0.23857   0.86834   0.38302   0.00000  Uiso   1.00
C395   C     0.16665   0.83334   0.16513   0.00000  Uiso   1.00
C396   C     0.23870   0.79880   0.11739   0.00000  Uiso   1.00
C397   C     0.16668   0.83334   0.33487   0.00000  Uiso   1.00
C398   C     0.14051   0.69147   0.22307   0.00000  Uiso   1.00
C399   C     0.19282   0.97519   0.27693   0.00000  Uiso   1.00
C400   C     0.19282   0.69147   0.27693   0.00000  Uiso   1.00
C401   C     0.14051   0.97519   0.22307   0.00000  Uiso   1.00
C402   C     0.02129   0.79079   0.24999   0.00000  Uiso   1.00
Cu403  Cu    0.16667   0.88022   0.25000   0.00000  Uiso   1.00
Cu404  Cu    0.16667   0.78645   0.25000   0.00000  Uiso   1.00
H405   H     0.11956   0.71016   0.20150   0.00000  Uiso   1.00
H406   H     0.29603   0.90914   0.25010   0.00000  Uiso   1.00
H407   H     0.29603   0.75753   0.25001   0.00000  Uiso   1.00
H408   H     0.03731   0.90914   0.24990   0.00000  Uiso   1.00
H409   H     0.09227   0.86589   0.15271   0.00000  Uiso   1.00
H410   H     0.09225   0.80089   0.34689   0.00000  Uiso   1.00
H411   H     0.24102   0.86607   0.34730   0.00000  Uiso   1.00
H412   H     0.24113   0.80104   0.15313   0.00000  Uiso   1.00
H413   H     0.21376   0.95650   0.29852   0.00000  Uiso   1.00
H414   H     0.21377   0.71016   0.29850   0.00000  Uiso   1.00
H415   H     0.11957   0.95649   0.20148   0.00000  Uiso   1.00
H416   H     0.10653   0.86425   0.02884   0.00000  Uiso   1.00
H417   H     0.10659   0.80249   0.47082   0.00000  Uiso   1.00
H418   H     0.22673   0.86445   0.47116   0.00000  Uiso   1.00
H419   H     0.22682   0.80268   0.02919   0.00000  Uiso   1.00
H420   H     0.03731   0.75753   0.24999   0.00000  Uiso   1.00
N421   N     0.16667   0.95069   0.25000   0.00000  Uiso   1.00
N422   N     0.16667   0.71598   0.25000   0.00000  Uiso   1.00
O423   O     0.10655   0.87291   0.25000   0.00000  Uiso   1.00
O424   O     0.06590   0.78159   0.40294   0.00000  Uiso   1.00
O425   O     0.26737   0.88540   0.40350   0.00000  Uiso   1.00
O426   O     0.26759   0.78198   0.09706   0.00000  Uiso   1.00
O427   O     0.22679   0.79375   0.25001   0.00000  Uiso   1.00
O428   O     0.22679   0.87291   0.25001   0.00000  Uiso   1.00
O429   O     0.10655   0.79375   0.25000   0.00000  Uiso   1.00
O430   O     0.16666   0.87293   0.18573   0.00000  Uiso   1.00
O431   O     0.16667   0.79374   0.31427   0.00000  Uiso   1.00
O432   O     0.16667   0.87293   0.31427   0.00000  Uiso   1.00
O433   O     0.16666   0.79374   0.18573   0.00000  Uiso   1.00
O434   O     0.06583   0.88504   0.09650   0.00000  Uiso   1.00
C435   C     0.42069   0.83333   0.24996   0.00000  Uiso   1.00
C436   C     0.64538   0.87588   0.25004   0.00000  Uiso   1.00
C437   C     0.64538   0.79079   0.25001   0.00000  Uiso   1.00
C438   C     0.35462   0.87588   0.24996   0.00000  Uiso   1.00
C439   C     0.46594   0.85071   0.04728   0.00000  Uiso   1.00
C440   C     0.46598   0.81608   0.45253   0.00000  Uiso   1.00
C441   C     0.53402   0.85082   0.45272   0.00000  Uiso   1.00
C442   C     0.53406   0.81619   0.04747   0.00000  Uiso   1.00
C443   C     0.46534   0.85079   0.09358   0.00000  Uiso   1.00
C444   C     0.46538   0.81592   0.40623   0.00000  Uiso   1.00
C445   C     0.53462   0.85090   0.40642   0.00000  Uiso   1.00
C446   C     0.57931   0.83333   0.25004   0.00000  Uiso   1.00
C447   C     0.53466   0.81603   0.09378   0.00000  Uiso   1.00
C448   C     0.49999   0.83336   0.11689   0.00000  Uiso   1.00
C449   C     0.50001   0.83337   0.38311   0.00000  Uiso   1.00
C450   C     0.50000   0.83345   0.02429   0.00000  Uiso   1.00
C451   C     0.50000   0.83345   0.47571   0.00000  Uiso   1.00
C452   C     0.62392   0.83333   0.25004   0.00000  Uiso   1.00
C453   C     0.37608   0.83333   0.24996   0.00000  Uiso   1.00
C454   C     0.42802   0.86812   0.11699   0.00000  Uiso   1.00
C455   C     0.42805   0.79858   0.38262   0.00000  Uiso   1.00
C456   C     0.57190   0.86834   0.38302   0.00000  Uiso   1.00
C457   C     0.49999   0.83334   0.16513   0.00000  Uiso   1.00
C458   C     0.57203   0.79880   0.11739   0.00000  Uiso   1.00
C459   C     0.50001   0.83334   0.33487   0.00000  Uiso   1.00
C460   C     0.47384   0.69147   0.22307   0.00000  Uiso   1.00
C461   C     0.52615   0.97519   0.27693   0.00000  Uiso   1.00
C462   C     0.52615   0.69147   0.27693   0.00000  Uiso   1.00
C463   C     0.47385   0.97519   0.22307   0.00000  Uiso   1.00
C464   C     0.35462   0.79079   0.24999   0.00000  Uiso   1.00
Cu465  Cu    0.50000   0.88022   0.25000   0.00000  Uiso   1.00
Cu466  Cu    0.50000   0.78645   0.25000   0.00000  Uiso   1.00
H467   H     0.45289   0.71016   0.20150   0.00000  Uiso   1.00
H468   H     0.62936   0.90914   0.25010   0.00000  Uiso   1.00
H469   H     0.62936   0.75753   0.25001   0.00000  Uiso   1.00
H470   H     0.37064   0.90914   0.24990   0.00000  Uiso   1.00
H471   H     0.42560   0.86589   0.15271   0.00000  Uiso   1.00
H472   H     0.42558   0.80089   0.34689   0.00000  Uiso   1.00
H473   H     0.57435   0.86607   0.34730   0.00000  Uiso   1.00
H474   H     0.57446   0.80104   0.15313   0.00000  Uiso   1.00
H475   H     0.54710   0.95650   0.29852   0.00000  Uiso   1.00
H476   H     0.54711   0.71016   0.29850   0.00000  Uiso   1.00
H477   H     0.45290   0.95649   0.20148   0.00000  Uiso   1.00
H478   H     0.43986   0.86425   0.02884   0.00000  Uiso   1.00
H479   H     0.43993   0.80249   0.47082   0.00000  Uiso   1.00
H480   H     0.56006   0.86445   0.47116   0.00000  Uiso   1.00
H481   H     0.56015   0.80268   0.02919   0.00000  Uiso   1.00
H482   H     0.37064   0.75753   0.24999   0.00000  Uiso   1.00
N483   N     0.50000   0.95069   0.25000   0.00000  Uiso   1.00
N484   N     0.50000   0.71598   0.25000   0.00000  Uiso   1.00
O485   O     0.43988   0.87291   0.25000   0.00000  Uiso   1.00
O486   O     0.39923   0.78159   0.40294   0.00000  Uiso   1.00
O487   O     0.60070   0.88540   0.40350   0.00000  Uiso   1.00
O488   O     0.60092   0.78198   0.09706   0.00000  Uiso   1.00
O489   O     0.56012   0.79375   0.25001   0.00000  Uiso   1.00
O490   O     0.56012   0.87291   0.25001   0.00000  Uiso   1.00
O491   O     0.43988   0.79375   0.25000   0.00000  Uiso   1.00
O492   O     0.50000   0.87293   0.18573   0.00000  Uiso   1.00
O493   O     0.50000   0.79374   0.31427   0.00000  Uiso   1.00
O494   O     0.50000   0.87293   0.31427   0.00000  Uiso   1.00
O495   O     0.50000   0.79374   0.18573   0.00000  Uiso   1.00
O496   O     0.39916   0.88504   0.09650   0.00000  Uiso   1.00
C497   C     0.75402   0.83333   0.24996   0.00000  Uiso   1.00
C498   C     0.97871   0.87588   0.25004   0.00000  Uiso   1.00
C499   C     0.97871   0.79079   0.25001   0.00000  Uiso   1.00
C500   C     0.68796   0.87588   0.24996   0.00000  Uiso   1.00
C501   C     0.79928   0.85071   0.04728   0.00000  Uiso   1.00
C502   C     0.79932   0.81608   0.45253   0.00000  Uiso   1.00
C503   C     0.86735   0.85082   0.45272   0.00000  Uiso   1.00
C504   C     0.86740   0.81619   0.04747   0.00000  Uiso   1.00
C505   C     0.79867   0.85079   0.09358   0.00000  Uiso   1.00
C506   C     0.79871   0.81592   0.40623   0.00000  Uiso   1.00
C507   C     0.86796   0.85090   0.40642   0.00000  Uiso   1.00
C508   C     0.91264   0.83333   0.25004   0.00000  Uiso   1.00
C509   C     0.86800   0.81603   0.09378   0.00000  Uiso   1.00
C510   C     0.83332   0.83336   0.11689   0.00000  Uiso   1.00
C511   C     0.83335   0.83337   0.38311   0.00000  Uiso   1.00
C512   C     0.83334   0.83345   0.02429   0.00000  Uiso   1.00
C513   C     0.83333   0.83345   0.47571   0.00000  Uiso   1.00
C514   C     0.95726   0.83333   0.25004   0.00000  Uiso   1.00
C515   C     0.70941   0.83333   0.24996   0.00000  Uiso   1.00
C516   C     0.76135   0.86812   0.11699   0.00000  Uiso   1.00
C517   C     0.76139   0.79858   0.38262   0.00000  Uiso   1.00
C518   C     0.90524   0.86834   0.38302   0.00000  Uiso   1.00
C519   C     0.83332   0.83334   0.16513   0.00000  Uiso   1.00
C520   C     0.90536   0.79880   0.11739   0.00000  Uiso   1.00
C521   C     0.83335   0.83334   0.33487   0.00000  Uiso   1.00
C522   C     0.80718   0.69147   0.22307   0.00000  Uiso   1.00
C523   C     0.85948   0.97519   0.27693   0.00000  Uiso   1.00
C524   C     0.85949   0.69147   0.27693   0.00000  Uiso   1.00
C525   C     0.80718   0.97519   0.22307   0.00000  Uiso   1.00
C526   C     0.68796   0.79079   0.24999   0.00000  Uiso   1.00
Cu527  Cu    0.83333   0.88022   0.25000   0.00000  Uiso   1.00
Cu528  Cu    0.83333   0.78645   0.25000   0.00000  Uiso   1.00
H529   H     0.78623   0.71016   0.20150   0.00000  Uiso   1.00
H530   H     0.96269   0.90914   0.25010   0.00000  Uiso   1.00
H531   H     0.96269   0.75753   0.25001   0.00000  Uiso   1.00
H532   H     0.70397   0.90914   0.24990   0.00000  Uiso   1.00
H533   H     0.75893   0.86589   0.15271   0.00000  Uiso   1.00
H534   H     0.75892   0.80089   0.34689   0.00000  Uiso   1.00
H535   H     0.90768   0.86607   0.34730   0.00000  Uiso   1.00
H536   H     0.90779   0.80104   0.15313   0.00000  Uiso   1.00
H537   H     0.88043   0.95650   0.29852   0.00000  Uiso   1.00
H538   H     0.88044   0.71016   0.29850   0.00000  Uiso   1.00
H539   H     0.78624   0.95649   0.20148   0.00000  Uiso   1.00
H540   H     0.77320   0.86425   0.02884   0.00000  Uiso   1.00
H541   H     0.77326   0.80249   0.47082   0.00000  Uiso   1.00
H542   H     0.89340   0.86445   0.47116   0.00000  Uiso   1.00
H543   H     0.89349   0.80268   0.02919   0.00000  Uiso   1.00
H544   H     0.70397   0.75753   0.24999   0.00000  Uiso   1.00
N545   N     0.83333   0.95069   0.25000   0.00000  Uiso   1.00
N546   N     0.83333   0.71598   0.25000   0.00000  Uiso   1.00
O547   O     0.77321   0.87291   0.25000   0.00000  Uiso   1.00
O548   O     0.73257   0.78159   0.40294   0.00000  Uiso   1.00
O549   O     0.93404   0.88540   0.40350   0.00000  Uiso   1.00
O550   O     0.93426   0.78198   0.09706   0.00000  Uiso   1.00
O551   O     0.89345   0.79375   0.25001   0.00000  Uiso   1.00
O552   O     0.89345   0.87291   0.25001   0.00000  Uiso   1.00
O553   O     0.77321   0.79375   0.25000   0.00000  Uiso   1.00
O554   O     0.83333   0.87293   0.18573   0.00000  Uiso   1.00
O555   O     0.83334   0.79374   0.31427   0.00000  Uiso   1.00
O556   O     0.83334   0.87293   0.31427   0.00000  Uiso   1.00
O557   O     0.83333   0.79374   0.18573   0.00000  Uiso   1.00
O558   O     0.73249   0.88504   0.09650   0.00000  Uiso   1.00
C559   C     0.08736   0.16667   0.74996   0.00000  Uiso   1.00
C560   C     0.31204   0.20921   0.75004   0.00000  Uiso   1.00
C561   C     0.31204   0.12412   0.75001   0.00000  Uiso   1.00
C562   C     0.02129   0.20921   0.74996   0.00000  Uiso   1.00
C563   C     0.13261   0.18404   0.54728   0.00000  Uiso   1.00
C564   C     0.13265   0.14941   0.95253   0.00000  Uiso   1.00
C565   C     0.20068   0.18415   0.95272   0.00000  Uiso   1.00
C566   C     0.20073   0.14952   0.54747   0.00000  Uiso   1.00
C567   C     0.13200   0.18413   0.59358   0.00000  Uiso   1.00
C568   C     0.13205   0.14926   0.90623   0.00000  Uiso   1.00
C569   C     0.20129   0.18424   0.90642   0.00000  Uiso   1.00
C570   C     0.24598   0.16667   0.75004   0.00000  Uiso   1.00
C571   C     0.20133   0.14937   0.59378   0.00000  Uiso   1.00
C572   C     0.16665   0.16670   0.61689   0.00000  Uiso   1.00
C573   C     0.16668   0.16670   0.88311   0.00000  Uiso   1.00
C574   C     0.16667   0.16679   0.52429   0.00000  Uiso   1.00
C575   C     0.16667   0.16679   0.97571   0.00000  Uiso   1.00
C576   C     0.29059   0.16667   0.75004   0.00000  Uiso   1.00
C577   C     0.04274   0.16667   0.74996   0.00000  Uiso   1.00
C578   C     0.09469   0.20146   0.61699   0.00000  Uiso   1.00
C579   C     0.09472   0.13191   0.88262   0.00000  Uiso   1.00
C580   C     0.23857   0.20168   0.88302   0.00000  Uiso   1.00
C581   C     0.16665   0.16667   0.66513   0.00000  Uiso   1.00
C582   C     0.23870   0.13213   0.61739   0.00000  Uiso   1.00
C583   C     0.16668   0.16667   0.83487   0.00000  Uiso   1.00
C584   C     0.14051   0.02480   0.72307   0.00000  Uiso   1.00
C585   C     0.19282   0.30853   0.77693   0.00000  Uiso   1.00
C586   C     0.19282   0.02480   0.77693   0.00000  Uiso   1.00
C587   C     0.14051   0.30853   0.72307   0.00000  Uiso   1.00
C588   C     0.02129   0.12412   0.74999   0.00000  Uiso   1.00
Cu589  Cu    0.16667   0.21355   0.75000   0.00000  Uiso   1.00
Cu590  Cu    0.16667   0.11978   0.75000   0.00000  Uiso   1.00
H591   H     0.11956   0.04349   0.70150   0.00000  Uiso   1.00
H592   H     0.29603   0.24247   0.75010   0.00000  Uiso   1.00
H593   H     0.29603   0.09086   0.75001   0.00000  Uiso   1.00
H594   H     0.03731   0.24247   0.74990   0.00000  Uiso   1.00
H595   H     0.09227   0.19922   0.65271   0.00000  Uiso   1.00
H596   H     0.09225   0.13422   0.84689   0.00000  Uiso   1.00
H597   H     0.24102   0.19940   0.84730   0.00000  Uiso   1.00
H598   H     0.24113   0.13437   0.65313   0.00000  Uiso   1.00
H599   H     0.21376   0.28983   0.79852   0.00000  Uiso   1.00
H600   H     0.21377   0.04349   0.79850   0.00000  Uiso   1.00
H601   H     0.11957   0.28983   0.70148   0.00000  Uiso   1.00
H602   H     0.10653   0.19759   0.52884   0.00000  Uiso   1.00
H603   H     0.10659   0.13583   0.97082   0.00000  Uiso   1.00
H604   H     0.22673   0.19778   0.97116   0.00000  Uiso   1.00
H605   H     0.22682   0.13602   0.52919   0.00000  Uiso   1.00
H606   H     0.03731   0.09086   0.74999   0.00000  Uiso   1.00
N607   N     0.16667   0.28402   0.75000   0.00000  Uiso   1.00
N608   N     0.16667   0.04931   0.75000   0.00000  Uiso   1.00
O609   O     0.10655   0.20625   0.75000   0.00000  Uiso   1.00
O610   O     0.06590   0.11492   0.90294   0.00000  Uiso   1.00
O611   O     0.26737   0.21873   0.90350   0.00000  Uiso   1.00
O612   O     0.26759   0.11531   0.59706   0.00000  Uiso   1.00
O613   O     0.22679   0.12709   0.75001   0.00000  Uiso   1.00
O614   O     0.22679   0.20625   0.75001   0.00000  Uiso   1.00
O615   O     0.10655   0.12709   0.75000   0.00000  Uiso   1.00
O616   O     0.16666   0.20626   0.68573   0.00000  Uiso   1.00
O617   O     0.16667   0.12707   0.81427   0.00000  Uiso   1.00
O618   O     0.16667   0.20626   0.81427   0.00000  Uiso   1.00
O619   O     0.16666   0.12707   0.68573   0.00000  Uiso   1.00
O620   O     0.06583   0.21838   0.59650   0.00000  Uiso   1.00
C621   C     0.42069   0.16667   0.74996   0.00000  Uiso   1.00
C622   C     0.64538   0.20921   0.75004   0.00000  Uiso   1.00
C623   C     0.64538   0.12412   0.75001   0.00000  Uiso   1.00
C624   C     0.35462   0.20921   0.74996   0.00000  Uiso   1.00
C625   C     0.46594   0.18404   0.54728   0.00000  Uiso   1.00
C626   C     0.46598   0.14941   0.95253   0.00000  Uiso   1.00
C627   C     0.53402   0.18415   0.95272   0.00000  Uiso   1.00
C628   C     0.53406   0.14952   0.54747   0.00000  Uiso   1.00
C629   C     0.46534   0.18413   0.59358   0.00000  Uiso   1.00
C630   C     0.46538   0.14926   0.90623   0.00000  Uiso   1.00
C631   C     0.53462   0.18424   0.90642   0.00000  Uiso   1.00
C632   C     0.57931   0.16667   0.75004   0.00000  Uiso   1.00
C633   C     0.53466   0.14937   0.59378   0.00000  Uiso   1.00
C634   C     0.49999   0.16670   0.61689   0.00000  Uiso   1.00
C635   C     0.50001   0.16670   0.88311   0.00000  Uiso   1.00
C636   C     0.50000   0.16679   0.52429   0.00000  Uiso   1.00
C637   C     0.50000   0.16679   0.97571   0.00000  Uiso   1.00
C638   C     0.62392   0.16667   0.75004   0.00000  Uiso   1.00
C639   C     0.37608   0.16667   0.74996   0.00000  Uiso   1.00
C640   C     0.42802   0.20146   0.61699   0.00000  Uiso   1.00
C641   C     0.42805   0.13191   0.88262   0.00000  Uiso   1.00
C642   C     0.57190   0.20168   0.88302   0.00000  Uiso   1.00
C643   C     0.49999   0.16667   0.66513   0.00000  Uiso   1.00
C644   C     0.57203   0.13213   0.61739   0.00000  Uiso   1.00
C645   C     0.50001   0.16667   0.83487   0.00000  Uiso   1.00
C646   C     0.47384   0.02480   0.72307   0.00000  Uiso   1.00
C647   C     0.52615   0.30853   0.77693   0.00000  Uiso   1.00
C648   C     0.52615   0.02480   0.77693   0.00000  Uiso   1.00
C649   C     0.47385   0.30853   0.72307   0.00000  Uiso   1.00
C650   C     0.35462   0.12412   0.74999   0.00000  Uiso   1.00
Cu651  Cu    0.50000   0.21355   0.75000   0.00000  Uiso   1.00
Cu652  Cu    0.50000   0.11978   0.75000   0.00000  Uiso   1.00
H653   H     0.45289   0.04349   0.70150   0.00000  Uiso   1.00
H654   H     0.62936   0.24247   0.75010   0.00000  Uiso   1.00
H655   H     0.62936   0.09086   0.75001   0.00000  Uiso   1.00
H656   H     0.37064   0.24247   0.74990   0.00000  Uiso   1.00
H657   H     0.42560   0.19922   0.65271   0.00000  Uiso   1.00
H658   H     0.42558   0.13422   0.84689   0.00000  Uiso   1.00
H659   H     0.57435   0.19940   0.84730   0.00000  Uiso   1.00
H660   H     0.57446   0.13437   0.65313   0.00000  Uiso   1.00
H661   H     0.54710   0.28983   0.79852   0.00000  Uiso   1.00
H662   H     0.54711   0.04349   0.79850   0.00000  Uiso   1.00
H663   H     0.45290   0.28983   0.70148   0.00000  Uiso   1.00
H664   H     0.43986   0.19759   0.52884   0.00000  Uiso   1.00
H665   H     0.43993   0.13583   0.97082   0.00000  Uiso   1.00
H666   H     0.56006   0.19778   0.97116   0.00000  Uiso   1.00
H667   H     0.56015   0.13602   0.52919   0.00000  Uiso   1.00
H668   H     0.37064   0.09086   0.74999   0.00000  Uiso   1.00
N669   N     0.50000   0.28402   0.75000   0.00000  Uiso   1.00
N670   N     0.50000   0.04931   0.75000   0.00000  Uiso   1.00
O671   O     0.43988   0.20625   0.75000   0.00000  Uiso   1.00
O672   O     0.39923   0.11492   0.90294   0.00000  Uiso   1.00
O673   O     0.60070   0.21873   0.90350   0.00000  Uiso   1.00
O674   O     0.60092   0.11531   0.59706   0.00000  Uiso   1.00
O675   O     0.56012   0.12709   0.75001   0.00000  Uiso   1.00
O676   O     0.56012   0.20625   0.75001   0.00000  Uiso   1.00
O677   O     0.43988   0.12709   0.75000   0.00000  Uiso   1.00
O678   O     0.50000   0.20626   0.68573   0.00000  Uiso   1.00
O679   O     0.50000   0.12707   0.81427   0.00000  Uiso   1.00
O680   O     0.50000   0.20626   0.81427   0.00000  Uiso   1.00
O681   O     0.50000   0.12707   0.68573   0.00000  Uiso   1.00
O682   O     0.39916   0.21838   0.59650   0.00000  Uiso   1.00
C683   C     0.75402   0.16667   0.74996   0.00000  Uiso   1.00
C684   C     0.97871   0.20921   0.75004   0.00000  Uiso   1.00
C685   C     0.97871   0.12412   0.75001   0.00000  Uiso   1.00
C686   C     0.68796   0.20921   0.74996   0.00000  Uiso   1.00
C687   C     0.79928   0.18404   0.54728   0.00000  Uiso   1.00
C688   C     0.79932   0.14941   0.95253   0.00000  Uiso   1.00
C689   C     0.86735   0.18415   0.95272   0.00000  Uiso   1.00
C690   C     0.86740   0.14952   0.54747   0.00000  Uiso   1.00
C691   C     0.79867   0.18413   0.59358   0.00000  Uiso   1.00
C692   C     0.79871   0.14926   0.90623   0.00000  Uiso   1.00
C693   C     0.86796   0.18424   0.90642   0.00000  Uiso   1.00
C694   C     0.91264   0.16667   0.75004   0.00000  Uiso   1.00
C695   C     0.86800   0.14937   0.59378   0.00000  Uiso   1.00
C696   C     0.83332   0.16670   0.61689   0.00000  Uiso   1.00
C697   C     0.83335   0.16670   0.88311   0.00000  Uiso   1.00
C698   C     0.83334   0.16679   0.52429   0.00000  Uiso   1.00
C699   C     0.83333   0.16679   0.97571   0.00000  Uiso   1.00
C700   C     0.95726   0.16667   0.75004   0.00000  Uiso   1.00
C701   C     0.70941   0.16667   0.74996   0.00000  Uiso   1.00
C702   C     0.76135   0.20146   0.61699   0.00000  Uiso   1.00
C703   C     0.76139   0.13191   0.88262   0.00000  Uiso   1.00
C704   C     0.90524   0.20168   0.88302   0.00000  Uiso   1.00
C705   C     0.83332   0.16667   0.66513   0.00000  Uiso   1.00
C706   C     0.90536   0.13213   0.61739   0.00000  Uiso   1.00
C707   C     0.83335   0.16667   0.83487   0.00000  Uiso   1.00
C708   C     0.80718   0.02480   0.72307   0.00000  Uiso   1.00
C709   C     0.85948   0.30853   0.77693   0.00000  Uiso   1.00
C710   C     0.85949   0.02480   0.77693   0.00000  Uiso   1.00
C711   C     0.80718   0.30853   0.72307   0.00000  Uiso   1.00
C712   C     0.68796   0.12412   0.74999   0.00000  Uiso   1.00
Cu713  Cu    0.83333   0.21355   0.75000   0.00000  Uiso   1.00
Cu714  Cu    0.83333   0.11978   0.75000   0.00000  Uiso   1.00
H715   H     0.78623   0.04349   0.70150   0.00000  Uiso   1.00
H716   H     0.96269   0.24247   0.75010   0.00000  Uiso   1.00
H717   H     0.96269   0.09086   0.75001   0.00000  Uiso   1.00
H718   H     0.70397   0.24247   0.74990   0.00000  Uiso   1.00
H719   H     0.75893   0.19922   0.65271   0.00000  Uiso   1.00
H720   H     0.75892   0.13422   0.84689   0.00000  Uiso   1.00
H721   H     0.90768   0.19940   0.84730   0.00000  Uiso   1.00
H722   H     0.90779   0.13437   0.65313   0.00000  Uiso   1.00
H723   H     0.88043   0.28983   0.79852   0.00000  Uiso   1.00
H724   H     0.88044   0.04349   0.79850   0.00000  Uiso   1.00
H725   H     0.78624   0.28983   0.70148   0.00000  Uiso   1.00
H726   H     0.77320   0.19759   0.52884   0.00000  Uiso   1.00
H727   H     0.77326   0.13583   0.97082   0.00000  Uiso   1.00
H728   H     0.89340   0.19778   0.97116   0.00000  Uiso   1.00
H729   H     0.89349   0.13602   0.52919   0.00000  Uiso   1.00
H730   H     0.70397   0.09086   0.74999   0.00000  Uiso   1.00
N731   N     0.83333   0.28402   0.75000   0.00000  Uiso   1.00
N732   N     0.83333   0.04931   0.75000   0.00000  Uiso   1.00
O733   O     0.77321   0.20625   0.75000   0.00000  Uiso   1.00
O734   O     0.73257   0.11492   0.90294   0.00000  Uiso   1.00
O735   O     0.93404   0.21873   0.90350   0.00000  Uiso   1.00
O736   O     0.93426   0.11531   0.59706   0.00000  Uiso   1.00
O737   O     0.89345   0.12709   0.75001   0.00000  Uiso   1.00
O738   O     0.89345   0.20625   0.75001   0.00000  Uiso   1.00
O739   O     0.77321   0.12709   0.75000   0.00000  Uiso   1.00
O740   O     0.83333   0.20626   0.68573   0.00000  Uiso   1.00
O741   O     0.83334   0.12707   0.81427   0.00000  Uiso   1.00
O742   O     0.83334   0.20626   0.81427   0.00000  Uiso   1.00
O743   O     0.83333   0.12707   0.68573   0.00000  Uiso   1.00
O744   O     0.73249   0.21838   0.59650   0.00000  Uiso   1.00
C745   C     0.08736   0.50000   0.74996   0.00000  Uiso   1.00
C746   C     0.31204   0.54254   0.75004   0.00000  Uiso   1.00
C747   C     0.31204   0.45746   0.75001   0.00000  Uiso   1.00
C748   C     0.02129   0.54254   0.74996   0.00000  Uiso   1.00
C749   C     0.13261   0.51737   0.54728   0.00000  Uiso   1.00
C750   C     0.13265   0.48274   0.95253   0.00000  Uiso   1.00
C751   C     0.20068   0.51748   0.95272   0.00000  Uiso   1.00
C752   C     0.20073   0.48285   0.54747   0.00000  Uiso   1.00
C753   C     0.13200   0.51746   0.59358   0.00000  Uiso   1.00
C754   C     0.13205   0.48259   0.90623   0.00000  Uiso   1.00
C755   C     0.20129   0.51757   0.90642   0.00000  Uiso   1.00
C756   C     0.24598   0.50000   0.75004   0.00000  Uiso   1.00
C757   C     0.20133   0.48270   0.59378   0.00000  Uiso   1.00
C758   C     0.16665   0.50003   0.61689   0.00000  Uiso   1.00
C759   C     0.16668   0.50003   0.88311   0.00000  Uiso   1.00
C760   C     0.16667   0.50012   0.52429   0.00000  Uiso   1.00
C761   C     0.16667   0.50012   0.97571   0.00000  Uiso   1.00
C762   C     0.29059   0.50000   0.75004   0.00000  Uiso   1.00
C763   C     0.04274   0.50000   0.74996   0.00000  Uiso   1.00
C764   C     0.09469   0.53479   0.61699   0.00000  Uiso   1.00
C765   C     0.09472   0.46525   0.88262   0.00000  Uiso   1.00
C766   C     0.23857   0.53501   0.88302   0.00000  Uiso   1.00
C767   C     0.16665   0.50000   0.66513   0.00000  Uiso   1.00
C768   C     0.23870   0.46547   0.61739   0.00000  Uiso   1.00
C769   C     0.16668   0.50000   0.83487   0.00000  Uiso   1.00
C770   C     0.14051   0.35813   0.72307   0.00000  Uiso   1.00
C771   C     0.19282   0.64186   0.77693   0.00000  Uiso   1.00
C772   C     0.19282   0.35813   0.77693   0.00000  Uiso   1.00
C773   C     0.14051   0.64186   0.72307   0.00000  Uiso   1.00
C774   C     0.02129   0.45746   0.74999   0.00000  Uiso   1.00
Cu775  Cu    0.16667   0.54689   0.75000   0.00000  Uiso   1.00
Cu776  Cu    0.16667   0.45311   0.75000   0.00000  Uiso   1.00
H777   H     0.11956   0.37682   0.70150   0.00000  Uiso   1.00
H778   H     0.29603   0.57581   0.75010   0.00000  Uiso   1.00
H779   H     0.29603   0.42419   0.75001   0.00000  Uiso   1.00
H780   H     0.03731   0.57581   0.74990   0.00000  Uiso   1.00
H781   H     0.09227   0.53255   0.65271   0.00000  Uiso   1.00
H782   H     0.09225   0.46755   0.84689   0.00000  Uiso   1.00
H783   H     0.24102   0.53273   0.84730   0.00000  Uiso   1.00
H784   H     0.24113   0.46770   0.65313   0.00000  Uiso   1.00
H785   H     0.21376   0.62316   0.79852   0.00000  Uiso   1.00
H786   H     0.21377   0.37682   0.79850   0.00000  Uiso   1.00
H787   H     0.11957   0.62316   0.70148   0.00000  Uiso   1.00
H788   H     0.10653   0.53092   0.52884   0.00000  Uiso   1.00
H789   H     0.10659   0.46916   0.97082   0.00000  Uiso   1.00
H790   H     0.22673   0.53111   0.97116   0.00000  Uiso   1.00
H791   H     0.22682   0.46935   0.52919   0.00000  Uiso   1.00
H792   H     0.03731   0.42419   0.74999   0.00000  Uiso   1.00
N793   N     0.16667   0.61736   0.75000   0.00000  Uiso   1.00
N794   N     0.16667   0.38264   0.75000   0.00000  Uiso   1.00
O795   O     0.10655   0.53958   0.75000   0.00000  Uiso   1.00
O796   O     0.06590   0.44826   0.90294   0.00000  Uiso   1.00
O797   O     0.26737   0.55206   0.90350   0.00000  Uiso   1.00
O798   O     0.26759   0.44865   0.59706   0.00000  Uiso   1.00
O799   O     0.22679   0.46042   0.75001   0.00000  Uiso   1.00
O800   O     0.22679   0.53958   0.75001   0.00000  Uiso   1.00
O801   O     0.10655   0.46042   0.75000   0.00000  Uiso   1.00
O802   O     0.16666   0.53959   0.68573   0.00000  Uiso   1.00
O803   O     0.16667   0.46041   0.81427   0.00000  Uiso   1.00
O804   O     0.16667   0.53959   0.81427   0.00000  Uiso   1.00
O805   O     0.16666   0.46041   0.68573   0.00000  Uiso   1.00
O806   O     0.06583   0.55171   0.59650   0.00000  Uiso   1.00
C807   C     0.42069   0.50000   0.74996   0.00000  Uiso   1.00
C808   C     0.64538   0.54254   0.75004   0.00000  Uiso   1.00
C809   C     0.64538   0.45746   0.75001   0.00000  Uiso   1.00
C810   C     0.35462   0.54254   0.74996   0.00000  Uiso   1.00
C811   C     0.46594   0.51737   0.54728   0.00000  Uiso   1.00
C812   C     0.46598   0.48274   0.95253   0.00000  Uiso   1.00
C813   C     0.53402   0.51748   0.95272   0.00000  Uiso   1.00
C814   C     0.53406   0.48285   0.54747   0.00000  Uiso   1.00
C815   C     0.46534   0.51746   0.59358   0.00000  Uiso   1.00
C816   C     0.46538   0.48259   0.90623   0.00000  Uiso   1.00
C817   C     0.53462   0.51757   0.90642   0.00000  Uiso   1.00
C818   C     0.57931   0.50000   0.75004   0.00000  Uiso   1.00
C819   C     0.53466   0.48270   0.59378   0.00000  Uiso   1.00
C820   C     0.49999   0.50003   0.61689   0.00000  Uiso   1.00
C821   C     0.50001   0.50003   0.88311   0.00000  Uiso   1.00
C822   C     0.50000   0.50012   0.52429   0.00000  Uiso   1.00
C823   C     0.50000   0.50012   0.97571   0.00000  Uiso   1.00
C824   C     0.62392   0.50000   0.75004   0.00000  Uiso   1.00
C825   C     0.37608   0.50000   0.74996   0.00000  Uiso   1.00
C826   C     0.42802   0.53479   0.61699   0.00000  Uiso   1.00
C827   C     0.42805   0.46525   0.88262   0.00000  Uiso   1.00
C828   C     0.57190   0.53501   0.88302   0.00000  Uiso   1.00
C829   C     0.49999   0.50000   0.66513   0.00000  Uiso   1.00
C830   C     0.57203   0.46547   0.61739   0.00000  Uiso   1.00
C831   C     0.50001   0.50000   0.83487   0.00000  Uiso   1.00
C832   C     0.47384   0.35813   0.72307   0.00000  Uiso   1.00
C833   C     0.52615   0.64186   0.77693   0.00000  Uiso   1.00
C834   C     0.52615   0.35813   0.77693   0.00000  Uiso   1.00
C835   C     0.47385   0.64186   0.72307   0.00000  Uiso   1.00
C836   C     0.35462   0.45746   0.74999   0.00000  Uiso   1.00
Cu837  Cu    0.50000   0.54689   0.75000   0.00000  Uiso   1.00
Cu838  Cu    0.50000   0.45311   0.75000   0.00000  Uiso   1.00
H839   H     0.45289   0.37682   0.70150   0.00000  Uiso   1.00
H840   H     0.62936   0.57581   0.75010   0.00000  Uiso   1.00
H841   H     0.62936   0.42419   0.75001   0.00000  Uiso   1.00
H842   H     0.37064   0.57581   0.74990   0.00000  Uiso   1.00
H843   H     0.42560   0.53255   0.65271   0.00000  Uiso   1.00
H844   H     0.42558   0.46755   0.84689   0.00000  Uiso   1.00
H845   H     0.57435   0.53273   0.84730   0.00000  Uiso   1.00
H846   H     0.57446   0.46770   0.65313   0.00000  Uiso   1.00
H847   H     0.54710   0.62316   0.79852   0.00000  Uiso   1.00
H848   H     0.54711   0.37682   0.79850   0.00000  Uiso   1.00
H849   H     0.45290   0.62316   0.70148   0.00000  Uiso   1.00
H850   H     0.43986   0.53092   0.52884   0.00000  Uiso   1.00
H851   H     0.43993   0.46916   0.97082   0.00000  Uiso   1.00
H852   H     0.56006   0.53111   0.97116   0.00000  Uiso   1.00
H853   H     0.56015   0.46935   0.52919   0.00000  Uiso   1.00
H854   H     0.37064   0.42419   0.74999   0.00000  Uiso   1.00
N855   N     0.50000   0.61736   0.75000   0.00000  Uiso   1.00
N856   N     0.50000   0.38264   0.75000   0.00000  Uiso   1.00
O857   O     0.43988   0.53958   0.75000   0.00000  Uiso   1.00
O858   O     0.39923   0.44826   0.90294   0.00000  Uiso   1.00
O859   O     0.60070   0.55206   0.90350   0.00000  Uiso   1.00
O860   O     0.60092   0.44865   0.59706   0.00000  Uiso   1.00
O861   O     0.56012   0.46042   0.75001   0.00000  Uiso   1.00
O862   O     0.56012   0.53958   0.75001   0.00000  Uiso   1.00
O863   O     0.43988   0.46042   0.75000   0.00000  Uiso   1.00
O864   O     0.50000   0.53959   0.68573   0.00000  Uiso   1.00
O865   O     0.50000   0.46041   0.81427   0.00000  Uiso   1.00
O866   O     0.50000   0.53959   0.81427   0.00000  Uiso   1.00
O867   O     0.50000   0.46041   0.68573   0.00000  Uiso   1.00
O868   O     0.39916   0.55171   0.59650   0.00000  Uiso   1.00
C869   C     0.75402   0.50000   0.74996   0.00000  Uiso   1.00
C870   C     0.97871   0.54254   0.75004   0.00000  Uiso   1.00
C871   C     0.97871   0.45746   0.75001   0.00000  Uiso   1.00
C872   C     0.68796   0.54254   0.74996   0.00000  Uiso   1.00
C873   C     0.79928   0.51737   0.54728   0.00000  Uiso   1.00
C874   C     0.79932   0.48274   0.95253   0.00000  Uiso   1.00
C875   C     0.86735   0.51748   0.95272   0.00000  Uiso   1.00
C876   C     0.86740   0.48285   0.54747   0.00000  Uiso   1.00
C877   C     0.79867   0.51746   0.59358   0.00000  Uiso   1.00
C878   C     0.79871   0.48259   0.90623   0.00000  Uiso   1.00
C879   C     0.86796   0.51757   0.90642   0.00000  Uiso   1.00
C880   C     0.91264   0.50000   0.75004   0.00000  Uiso   1.00
C881   C     0.86800   0.48270   0.59378   0.00000  Uiso   1.00
C882   C     0.83332   0.50003   0.61689   0.00000  Uiso   1.00
C883   C     0.83335   0.50003   0.88311   0.00000  Uiso   1.00
C884   C     0.83334   0.50012   0.52429   0.00000  Uiso   1.00
C885   C     0.83333   0.50012   0.97571   0.00000  Uiso   1.00
C886   C     0.95726   0.50000   0.75004   0.00000  Uiso   1.00
C887   C     0.70941   0.50000   0.74996   0.00000  Uiso   1.00
C888   C     0.76135   0.53479   0.61699   0.00000  Uiso   1.00
C889   C     0.76139   0.46525   0.88262   0.00000  Uiso   1.00
C890   C     0.90524   0.53501   0.88302   0.00000  Uiso   1.00
C891   C     0.83332   0.50000   0.66513   0.00000  Uiso   1.00
C892   C     0.90536   0.46547   0.61739   0.00000  Uiso   1.00
C893   C     0.83335   0.50000   0.83487   0.00000  Uiso   1.00
C894   C     0.80718   0.35813   0.72307   0.00000  Uiso   1.00
C895   C     0.85948   0.64186   0.77693   0.00000  Uiso   1.00
C896   C     0.85949   0.35813   0.77693   0.00000  Uiso   1.00
C897   C     0.80718   0.64186   0.72307   0.00000  Uiso   1.00
C898   C     0.68796   0.45746   0.74999   0.00000  Uiso   1.00
Cu899  Cu    0.83333   0.54689   0.75000   0.00000  Uiso   1.00
Cu900  Cu    0.83333   0.45311   0.75000   0.00000  Uiso   1.00
H901   H     0.78623   0.37682   0.70150   0.00000  Uiso   1.00
H902   H     0.96269   0.57581   0.75010   0.00000  Uiso   1.00
H903   H     0.96269   0.42419   0.75001   0.00000  Uiso   1.00
H904   H     0.70397   0.57581   0.74990   0.00000  Uiso   1.00
H905   H     0.75893   0.53255   0.65271   0.00000  Uiso   1.00
H906   H     0.75892   0.46755   0.84689   0.00000  Uiso   1.00
H907   H     0.90768   0.53273   0.84730   0.00000  Uiso   1.00
H908   H     0.90779   0.46770   0.65313   0.00000  Uiso   1.00
H909   H     0.88043   0.62316   0.79852   0.00000  Uiso   1.00
H910   H     0.88044   0.37682   0.79850   0.00000  Uiso   1.00
H911   H     0.78624   0.62316   0.70148   0.00000  Uiso   1.00
H912   H     0.77320   0.53092   0.52884   0.00000  Uiso   1.00
H913   H     0.77326   0.46916   0.97082   0.00000  Uiso   1.00
H914   H     0.89340   0.53111   0.97116   0.00000  Uiso   1.00
H915   H     0.89349   0.46935   0.52919   0.00000  Uiso   1.00
H916   H     0.70397   0.42419   0.74999   0.00000  Uiso   1.00
N917   N     0.83333   0.61736   0.75000   0.00000  Uiso   1.00
N918   N     0.83333   0.38264   0.75000   0.00000  Uiso   1.00
O919   O     0.77321   0.53958   0.75000   0.00000  Uiso   1.00
O920   O     0.73257   0.44826   0.90294   0.00000  Uiso   1.00
O921   O     0.93404   0.55206   0.90350   0.00000  Uiso   1.00
O922   O     0.93426   0.44865   0.59706   0.00000  Uiso   1.00
O923   O     0.89345   0.46042   0.75001   0.00000  Uiso   1.00
O924   O     0.89345   0.53958   0.75001   0.00000  Uiso   1.00
O925   O     0.77321   0.46042   0.75000   0.00000  Uiso   1.00
O926   O     0.83333   0.53959   0.68573   0.00000  Uiso   1.00
O927   O     0.83334   0.46041   0.81427   0.00000  Uiso   1.00
O928   O     0.83334   0.53959   0.81427   0.00000  Uiso   1.00
O929   O     0.83333   0.46041   0.68573   0.00000  Uiso   1.00
O930   O     0.73249   0.55171   0.59650   0.00000  Uiso   1.00
C931   C     0.08736   0.83333   0.74996   0.00000  Uiso   1.00
C932   C     0.31204   0.87588   0.75004   0.00000  Uiso   1.00
C933   C     0.31204   0.79079   0.75001   0.00000  Uiso   1.00
C934   C     0.02129   0.87588   0.74996   0.00000  Uiso   1.00
C935   C     0.13261   0.85071   0.54728   0.00000  Uiso   1.00
C936   C     0.13265   0.81608   0.95253   0.00000  Uiso   1.00
C937   C     0.20068   0.85082   0.95272   0.00000  Uiso   1.00
C938   C     0.20073   0.81619   0.54747   0.00000  Uiso   1.00
C939   C     0.13200   0.85079   0.59358   0.00000  Uiso   1.00
C940   C     0.13205   0.81592   0.90623   0.00000  Uiso   1.00
C941   C     0.20129   0.85090   0.90642   0.00000  Uiso   1.00
C942   C     0.24598   0.83333   0.75004   0.00000  Uiso   1.00
C943   C     0.20133   0.81603   0.59378   0.00000  Uiso   1.00
C944   C     0.16665   0.83336   0.61689   0.00000  Uiso   1.00
C945   C     0.16668   0.83337   0.88311   0.00000  Uiso   1.00
C946   C     0.16667   0.83345   0.52429   0.00000  Uiso   1.00
C947   C     0.16667   0.83345   0.97571   0.00000  Uiso   1.00
C948   C     0.29059   0.83333   0.75004   0.00000  Uiso   1.00
C949   C     0.04274   0.83333   0.74996   0.00000  Uiso   1.00
C950   C     0.09469   0.86812   0.61699   0.00000  Uiso   1.00
C951   C     0.09472   0.79858   0.88262   0.00000  Uiso   1.00
C952   C     0.23857   0.86834   0.88302   0.00000  Uiso   1.00
C953   C     0.16665   0.83334   0.66513   0.00000  Uiso   1.00
C954   C     0.23870   0.79880   0.61739   0.00000  Uiso   1.00
C955   C     0.16668   0.83334   0.83487   0.00000  Uiso   1.00
C956   C     0.14051   0.69147   0.72307   0.00000  Uiso   1.00
C957   C     0.19282   0.97519   0.77693   0.00000  Uiso   1.00
C958   C     0.19282   0.69147   0.77693   0.00000  Uiso   1.00
C959   C     0.14051   0.97519   0.72307   0.00000  Uiso   1.00
C960   C     0.02129   0.79079   0.74999   0.00000  Uiso   1.00
Cu961  Cu    0.16667   0.88022   0.75000   0.00000  Uiso   1.00
Cu962  Cu    0.16667   0.78645   0.75000   0.00000  Uiso   1.00
H963   H     0.11956   0.71016   0.70150   0.00000  Uiso   1.00
H964   H     0.29603   0.90914   0.75010   0.00000  Uiso   1.00
H965   H     0.29603   0.75753   0.75001   0.00000  Uiso   1.00
H966   H     0.03731   0.90914   0.74990   0.00000  Uiso   1.00
H967   H     0.09227   0.86589   0.65271   0.00000  Uiso   1.00
H968   H     0.09225   0.80089   0.84689   0.00000  Uiso   1.00
H969   H     0.24102   0.86607   0.84730   0.00000  Uiso   1.00
H970   H     0.24113   0.80104   0.65313   0.00000  Uiso   1.00
H971   H     0.21376   0.95650   0.79852   0.00000  Uiso   1.00
H972   H     0.21377   0.71016   0.79850   0.00000  Uiso   1.00
H973   H     0.11957   0.95649   0.70148   0.00000  Uiso   1.00
H974   H     0.10653   0.86425   0.52884   0.00000  Uiso   1.00
H975   H     0.10659   0.80249   0.97082   0.00000  Uiso   1.00
H976   H     0.22673   0.86445   0.97116   0.00000  Uiso   1.00
H977   H     0.22682   0.80268   0.52919   0.00000  Uiso   1.00
H978   H     0.03731   0.75753   0.74999   0.00000  Uiso   1.00
N979   N     0.16667   0.95069   0.75000   0.00000  Uiso   1.00
N980   N     0.16667   0.71598   0.75000   0.00000  Uiso   1.00
O981   O     0.10655   0.87291   0.75000   0.00000  Uiso   1.00
O982   O     0.06590   0.78159   0.90294   0.00000  Uiso   1.00
O983   O     0.26737   0.88540   0.90350   0.00000  Uiso   1.00
O984   O     0.26759   0.78198   0.59706   0.00000  Uiso   1.00
O985   O     0.22679   0.79375   0.75001   0.00000  Uiso   1.00
O986   O     0.22679   0.87291   0.75001   0.00000  Uiso   1.00
O987   O     0.10655   0.79375   0.75000   0.00000  Uiso   1.00
O988   O     0.16666   0.87293   0.68573   0.00000  Uiso   1.00
O989   O     0.16667   0.79374   0.81427   0.00000  Uiso   1.00
O990   O     0.16667   0.87293   0.81427   0.00000  Uiso   1.00
O991   O     0.16666   0.79374   0.68573   0.00000  Uiso   1.00
O992   O     0.06583   0.88504   0.59650   0.00000  Uiso   1.00
C993   C     0.42069   0.83333   0.74996   0.00000  Uiso   1.00
C994   C     0.64538   0.87588   0.75004   0.00000  Uiso   1.00
C995   C     0.64538   0.79079   0.75001   0.00000  Uiso   1.00
C996   C     0.35462   0.87588   0.74996   0.00000  Uiso   1.00
C997   C     0.46594   0.85071   0.54728   0.00000  Uiso   1.00
C998   C     0.46598   0.81608   0.95253   0.00000  Uiso   1.00
C999   C     0.53402   0.85082   0.95272   0.00000  Uiso   1.00
C1000  C     0.53406   0.81619   0.54747   0.00000  Uiso   1.00
C1001  C     0.46534   0.85079   0.59358   0.00000  Uiso   1.00
C1002  C     0.46538   0.81592   0.90623   0.00000  Uiso   1.00
C1003  C     0.53462   0.85090   0.90642   0.00000  Uiso   1.00
C1004  C     0.57931   0.83333   0.75004   0.00000  Uiso   1.00
C1005  C     0.53466   0.81603   0.59378   0.00000  Uiso   1.00
C1006  C     0.49999   0.83336   0.61689   0.00000  Uiso   1.00
C1007  C     0.50001   0.83337   0.88311   0.00000  Uiso   1.00
C1008  C     0.50000   0.83345   0.52429   0.00000  Uiso   1.00
C1009  C     0.50000   0.83345   0.97571   0.00000  Uiso   1.00
C1010  C     0.62392   0.83333   0.75004   0.00000  Uiso   1.00
C1011  C     0.37608   0.83333   0.74996   0.00000  Uiso   1.00
C1012  C     0.42802   0.86812   0.61699   0.00000  Uiso   1.00
C1013  C     0.42805   0.79858   0.88262   0.00000  Uiso   1.00
C1014  C     0.57190   0.86834   0.88302   0.00000  Uiso   1.00
C1015  C     0.49999   0.83334   0.66513   0.00000  Uiso   1.00
C1016  C     0.57203   0.79880   0.61739   0.00000  Uiso   1.00
C1017  C     0.50001   0.83334   0.83487   0.00000  Uiso   1.00
C1018  C     0.47384   0.69147   0.72307   0.00000  Uiso   1.00
C1019  C     0.52615   0.97519   0.77693   0.00000  Uiso   1.00
C1020  C     0.52615   0.69147   0.77693   0.00000  Uiso   1.00
C1021  C     0.47385   0.97519   0.72307   0.00000  Uiso   1.00
C1022  C     0.35462   0.79079   0.74999   0.00000  Uiso   1.00
Cu1023 Cu    0.50000   0.88022   0.75000   0.00000  Uiso   1.00
Cu1024 Cu    0.50000   0.78645   0.75000   0.00000  Uiso   1.00
H1025  H     0.45289   0.71016   0.70150   0.00000  Uiso   1.00
H1026  H     0.62936   0.90914   0.75010   0.00000  Uiso   1.00
H1027  H     0.62936   0.75753   0.75001   0.00000  Uiso   1.00
H1028  H     0.37064   0.90914   0.74990   0.00000  Uiso   1.00
H1029  H     0.42560   0.86589   0.65271   0.00000  Uiso   1.00
H1030  H     0.42558   0.80089   0.84689   0.00000  Uiso   1.00
H1031  H     0.57435   0.86607   0.84730   0.00000  Uiso   1.00
H1032  H     0.57446   0.80104   0.65313   0.00000  Uiso   1.00
H1033  H     0.54710   0.95650   0.79852   0.00000  Uiso   1.00
H1034  H     0.54711   0.71016   0.79850   0.00000  Uiso   1.00
H1035  H     0.45290   0.95649   0.70148   0.00000  Uiso   1.00
H1036  H     0.43986   0.86425   0.52884   0.00000  Uiso   1.00
H1037  H     0.43993   0.80249   0.97082   0.00000  Uiso   1.00
H1038  H     0.56006   0.86445   0.97116   0.00000  Uiso   1.00
H1039  H     0.56015   0.80268   0.52919   0.00000  Uiso   1.00
H1040  H     0.37064   0.75753   0.74999   0.00000  Uiso   1.00
N1041  N     0.50000   0.95069   0.75000   0.00000  Uiso   1.00
N1042  N     0.50000   0.71598   0.75000   0.00000  Uiso   1.00
O1043  O     0.43988   0.87291   0.75000   0.00000  Uiso   1.00
O1044  O     0.39923   0.78159   0.90294   0.00000  Uiso   1.00
O1045  O     0.60070   0.88540   0.90350   0.00000  Uiso   1.00
O1046  O     0.60092   0.78198   0.59706   0.00000  Uiso   1.00
O1047  O     0.56012   0.79375   0.75001   0.00000  Uiso   1.00
O1048  O     0.56012   0.87291   0.75001   0.00000  Uiso   1.00
O1049  O     0.43988   0.79375   0.75000   0.00000  Uiso   1.00
O1050  O     0.50000   0.87293   0.68573   0.00000  Uiso   1.00
O1051  O     0.50000   0.79374   0.81427   0.00000  Uiso   1.00
O1052  O     0.50000   0.87293   0.81427   0.00000  Uiso   1.00
O1053  O     0.50000   0.79374   0.68573   0.00000  Uiso   1.00
O1054  O     0.39916   0.88504   0.59650   0.00000  Uiso   1.00
C1055  C     0.75402   0.83333   0.74996   0.00000  Uiso   1.00
C1056  C     0.97871   0.87588   0.75004   0.00000  Uiso   1.00
C1057  C     0.97871   0.79079   0.75001   0.00000  Uiso   1.00
C1058  C     0.68796   0.87588   0.74996   0.00000  Uiso   1.00
C1059  C     0.79928   0.85071   0.54728   0.00000  Uiso   1.00
C1060  C     0.79932   0.81608   0.95253   0.00000  Uiso   1.00
C1061  C     0.86735   0.85082   0.95272   0.00000  Uiso   1.00
C1062  C     0.86740   0.81619   0.54747   0.00000  Uiso   1.00
C1063  C     0.79867   0.85079   0.59358   0.00000  Uiso   1.00
C1064  C     0.79871   0.81592   0.90623   0.00000  Uiso   1.00
C1065  C     0.86796   0.85090   0.90642   0.00000  Uiso   1.00
C1066  C     0.91264   0.83333   0.75004   0.00000  Uiso   1.00
C1067  C     0.86800   0.81603   0.59378   0.00000  Uiso   1.00
C1068  C     0.83332   0.83336   0.61689   0.00000  Uiso   1.00
C1069  C     0.83335   0.83337   0.88311   0.00000  Uiso   1.00
C1070  C     0.83334   0.83345   0.52429   0.00000  Uiso   1.00
C1071  C     0.83333   0.83345   0.97571   0.00000  Uiso   1.00
C1072  C     0.95726   0.83333   0.75004   0.00000  Uiso   1.00
C1073  C     0.70941   0.83333   0.74996   0.00000  Uiso   1.00
C1074  C     0.76135   0.86812   0.61699   0.00000  Uiso   1.00
C1075  C     0.76139   0.79858   0.88262   0.00000  Uiso   1.00
C1076  C     0.90524   0.86834   0.88302   0.00000  Uiso   1.00
C1077  C     0.83332   0.83334   0.66513   0.00000  Uiso   1.00
C1078  C     0.90536   0.79880   0.61739   0.00000  Uiso   1.00
C1079  C     0.83335   0.83334   0.83487   0.00000  Uiso   1.00
C1080  C     0.80718   0.69147   0.72307   0.00000  Uiso   1.00
C1081  C     0.85948   0.97519   0.77693   0.00000  Uiso   1.00
C1082  C     0.85949   0.69147   0.77693   0.00000  Uiso   1.00
C1083  C     0.80718   0.97519   0.72307   0.00000  Uiso   1.00
C1084  C     0.68796   0.79079   0.74999   0.00000  Uiso   1.00
Cu1085 Cu    0.83333   0.88022   0.75000   0.00000  Uiso   1.00
Cu1086 Cu    0.83333   0.78645   0.75000   0.00000  Uiso   1.00
H1087  H     0.78623   0.71016   0.70150   0.00000  Uiso   1.00
H1088  H     0.96269   0.90914   0.75010   0.00000  Uiso   1.00
H1089  H     0.96269   0.75753   0.75001   0.00000  Uiso   1.00
H1090  H     0.70397   0.90914   0.74990   0.00000  Uiso   1.00
H1091  H     0.75893   0.86589   0.65271   0.00000  Uiso   1.00
H1092  H     0.75892   0.80089   0.84689   0.00000  Uiso   1.00
H1093  H     0.90768   0.86607   0.84730   0.00000  Uiso   1.00
H1094  H     0.90779   0.80104   0.65313   0.00000  Uiso   1.00
H1095  H     0.88043   0.95650   0.79852   0.00000  Uiso   1.00
H1096  H     0.88044   0.71016   0.79850   0.00000  Uiso   1.00
H1097  H     0.78624   0.95649   0.70148   0.00000  Uiso   1.00
H1098  H     0.77320   0.86425   0.52884   0.00000  Uiso   1.00
H1099  H     0.77326   0.80249   0.97082   0.00000  Uiso   1.00
H1100  H     0.89340   0.86445   0.97116   0.00000  Uiso   1.00
H1101  H     0.89349   0.80268   0.52919   0.00000  Uiso   1.00
H1102  H     0.70397   0.75753   0.74999   0.00000  Uiso   1.00
N1103  N     0.83333   0.95069   0.75000   0.00000  Uiso   1.00
N1104  N     0.83333   0.71598   0.75000   0.00000  Uiso   1.00
O1105  O     0.77321   0.87291   0.75000   0.00000  Uiso   1.00
O1106  O     0.73257   0.78159   0.90294   0.00000  Uiso   1.00
O1107  O     0.93404   0.88540   0.90350   0.00000  Uiso   1.00
O1108  O     0.93426   0.78198   0.59706   0.00000  Uiso   1.00
O1109  O     0.89345   0.79375   0.75001   0.00000  Uiso   1.00
O1110  O     0.89345   0.87291   0.75001   0.00000  Uiso   1.00
O1111  O     0.77321   0.79375   0.75000   0.00000  Uiso   1.00
O1112  O     0.83333   0.87293   0.68573   0.00000  Uiso   1.00
O1113  O     0.83334   0.79374   0.81427   0.00000  Uiso   1.00
O1114  O     0.83334   0.87293   0.81427   0.00000  Uiso   1.00
O1115  O     0.83333   0.79374   0.68573   0.00000  Uiso   1.00
O1116  O     0.73249   0.88504   0.59650   0.00000  Uiso   1.00
loop_
_geom_bond_atom_site_label_1
_geom_bond_atom_site_label_2
_geom_bond_distance
_geom_bond_site_symmetry_2
_ccdc_geom_bond_type
C1     O57     1.291   .     A
C1     O51     1.291   .     A
C1     C19     1.449   .     S
C2     C18     1.401   .     A
C2     H34     1.083   .     S
C2     C66     1.383   .     S
C3     H35     1.083   .     S
C3     C18     1.401   .     A
C3     C92     1.383   .     S
C4     H36     1.083   .     S
C4     C19     1.401   .     A
C4     C126    1.383   1_455 S
C5     C9      1.398   .     A
C5     H44     1.084   .     S
C5     C16     1.398   .     A
C6     C10     1.398   .     A
C6     H45     1.084   .     S
C6     C17     1.398   .     A
C7     C11     1.398   .     A
C7     H46     1.084   .     S
C7     C17     1.398   .     A
C8     C13     1.398   .     A
C8     H47     1.084   .     S
C8     C16     1.398   .     A
C9     C14     1.416   .     A
C9     C20     1.490   .     S
C10    C15     1.416   .     A
C10    C21     1.490   .     S
C11    C15     1.416   .     A
C11    C22     1.490   .     S
C12    C18     1.449   .     S
C12    O56     1.291   .     A
C12    O55     1.291   .     A
C13    C14     1.416   .     A
C13    C24     1.490   .     S
C14    C23     1.457   .     S
C15    C25     1.457   .     S
C16    C575    1.467   1_554 S
C17    C574    1.467   .     S
C19    C30     1.401   .     A
C20    H37     1.084   .     S
C20    O62     1.221   .     D
C21    O52     1.221   .     D
C21    H38     1.084   .     S
C22    H39     1.084   .     S
C22    O53     1.221   .     D
C23    O58     1.291   .     A
C23    O61     1.291   .     A
C24    H40     1.084   .     S
C24    O54     1.221   .     D
C25    O59     1.291   .     A
C25    O60     1.291   .     A
C26    H33     1.082   .     S
C26    N50     1.367   .     A
C26    C401    1.417   1_545 S
C27    H41     1.082   .     S
C27    N49     1.367   .     A
C27    C214    1.417   .     S
C28    H42     1.082   .     S
C28    N50     1.367   .     A
C28    C399    1.417   1_545 S
C29    N49     1.367   .     A
C29    H43     1.082   .     S
C29    C212    1.417   .     S
C30    H48     1.083   .     S
C30    C127    1.383   1_455 S
Cu31   O56     1.964   .     S
Cu31   O60     1.952   .     S
Cu31   Cu32    2.679   .     S
Cu31   N49     2.013   .     S
Cu31   O58     1.952   .     S
Cu31   O51     1.964   .     S
Cu32   N50     2.013   .     S
Cu32   O57     1.964   .     S
Cu32   O55     1.964   .     S
Cu32   O61     1.952   .     S
Cu32   O59     1.952   .     S
C63    O119    1.291   .     A
C63    O113    1.291   .     A
C63    C81     1.449   .     S
C64    C80     1.401   .     A
C64    H96     1.083   .     S
C64    C128    1.383   .     S
C65    H97     1.083   .     S
C65    C80     1.401   .     A
C65    C154    1.383   .     S
C66    H98     1.083   .     S
C66    C81     1.401   .     A
C67    C71     1.398   .     A
C67    H106    1.084   .     S
C67    C78     1.398   .     A
C68    C72     1.398   .     A
C68    H107    1.084   .     S
C68    C79     1.398   .     A
C69    C73     1.398   .     A
C69    H108    1.084   .     S
C69    C79     1.398   .     A
C70    C75     1.398   .     A
C70    H109    1.084   .     S
C70    C78     1.398   .     A
C71    C76     1.416   .     A
C71    C82     1.490   .     S
C72    C77     1.416   .     A
C72    C83     1.490   .     S
C73    C77     1.416   .     A
C73    C84     1.490   .     S
C74    C80     1.449   .     S
C74    O118    1.291   .     A
C74    O117    1.291   .     A
C75    C76     1.416   .     A
C75    C86     1.490   .     S
C76    C85     1.457   .     S
C77    C87     1.457   .     S
C78    C637    1.467   1_554 S
C79    C636    1.467   .     S
C81    C92     1.401   .     A
C82    H99     1.084   .     S
C82    O124    1.221   .     D
C83    O114    1.221   .     D
C83    H100    1.084   .     S
C84    H101    1.084   .     S
C84    O115    1.221   .     D
C85    O120    1.291   .     A
C85    O123    1.291   .     A
C86    H102    1.084   .     S
C86    O116    1.221   .     D
C87    O121    1.291   .     A
C87    O122    1.291   .     A
C88    H95     1.082   .     S
C88    N112    1.367   .     A
C88    C463    1.417   1_545 S
C89    H103    1.082   .     S
C89    N111    1.367   .     A
C89    C276    1.417   .     S
C90    H104    1.082   .     S
C90    N112    1.367   .     A
C90    C461    1.417   1_545 S
C91    N111    1.367   .     A
C91    H105    1.082   .     S
C91    C274    1.417   .     S
C92    H110    1.083   .     S
Cu93   O118    1.964   .     S
Cu93   O122    1.952   .     S
Cu93   Cu94    2.679   .     S
Cu93   N111    2.013   .     S
Cu93   O120    1.952   .     S
Cu93   O113    1.964   .     S
Cu94   N112    2.013   .     S
Cu94   O119    1.964   .     S
Cu94   O117    1.964   .     S
Cu94   O123    1.952   .     S
Cu94   O121    1.952   .     S
C125   O181    1.291   .     A
C125   O175    1.291   .     A
C125   C143    1.449   .     S
C126   C142    1.401   .     A
C126   H158    1.083   .     S
C126   C4      1.383   1_655 S
C127   H159    1.083   .     S
C127   C142    1.401   .     A
C127   C30     1.383   1_655 S
C128   H160    1.083   .     S
C128   C143    1.401   .     A
C129   C133    1.398   .     A
C129   H168    1.084   .     S
C129   C140    1.398   .     A
C130   C134    1.398   .     A
C130   H169    1.084   .     S
C130   C141    1.398   .     A
C131   C135    1.398   .     A
C131   H170    1.084   .     S
C131   C141    1.398   .     A
C132   C137    1.398   .     A
C132   H171    1.084   .     S
C132   C140    1.398   .     A
C133   C138    1.416   .     A
C133   C144    1.490   .     S
C134   C139    1.416   .     A
C134   C145    1.490   .     S
C135   C139    1.416   .     A
C135   C146    1.490   .     S
C136   C142    1.449   .     S
C136   O180    1.291   .     A
C136   O179    1.291   .     A
C137   C138    1.416   .     A
C137   C148    1.490   .     S
C138   C147    1.457   .     S
C139   C149    1.457   .     S
C140   C699    1.467   1_554 S
C141   C698    1.467   .     S
C143   C154    1.401   .     A
C144   H161    1.084   .     S
C144   O186    1.221   .     D
C145   O176    1.221   .     D
C145   H162    1.084   .     S
C146   H163    1.084   .     S
C146   O177    1.221   .     D
C147   O182    1.291   .     A
C147   O185    1.291   .     A
C148   H164    1.084   .     S
C148   O178    1.221   .     D
C149   O183    1.291   .     A
C149   O184    1.291   .     A
C150   H157    1.082   .     S
C150   N174    1.367   .     A
C150   C525    1.417   1_545 S
C151   H165    1.082   .     S
C151   N173    1.367   .     A
C151   C338    1.417   .     S
C152   H166    1.082   .     S
C152   N174    1.367   .     A
C152   C523    1.417   1_545 S
C153   N173    1.367   .     A
C153   H167    1.082   .     S
C153   C336    1.417   .     S
C154   H172    1.083   .     S
Cu155  O180    1.964   .     S
Cu155  O184    1.952   .     S
Cu155  Cu156   2.679   .     S
Cu155  N173    2.013   .     S
Cu155  O182    1.952   .     S
Cu155  O175    1.964   .     S
Cu156  N174    2.013   .     S
Cu156  O181    1.964   .     S
Cu156  O179    1.964   .     S
Cu156  O185    1.952   .     S
Cu156  O183    1.952   .     S
C187   O243    1.291   .     A
C187   O237    1.291   .     A
C187   C205    1.449   .     S
C188   C204    1.401   .     A
C188   H220    1.083   .     S
C188   C252    1.383   .     S
C189   H221    1.083   .     S
C189   C204    1.401   .     A
C189   C278    1.383   .     S
C190   H222    1.083   .     S
C190   C205    1.401   .     A
C190   C312    1.383   1_455 S
C191   C195    1.398   .     A
C191   H230    1.084   .     S
C191   C202    1.398   .     A
C192   C196    1.398   .     A
C192   H231    1.084   .     S
C192   C203    1.398   .     A
C193   C197    1.398   .     A
C193   H232    1.084   .     S
C193   C203    1.398   .     A
C194   C199    1.398   .     A
C194   H233    1.084   .     S
C194   C202    1.398   .     A
C195   C200    1.416   .     A
C195   C206    1.490   .     S
C196   C201    1.416   .     A
C196   C207    1.490   .     S
C197   C201    1.416   .     A
C197   C208    1.490   .     S
C198   C204    1.449   .     S
C198   O242    1.291   .     A
C198   O241    1.291   .     A
C199   C200    1.416   .     A
C199   C210    1.490   .     S
C200   C209    1.457   .     S
C201   C211    1.457   .     S
C202   C761    1.467   1_554 S
C203   C760    1.467   .     S
C205   C216    1.401   .     A
C206   H223    1.084   .     S
C206   O248    1.221   .     D
C207   O238    1.221   .     D
C207   H224    1.084   .     S
C208   H225    1.084   .     S
C208   O239    1.221   .     D
C209   O244    1.291   .     A
C209   O247    1.291   .     A
C210   H226    1.084   .     S
C210   O240    1.221   .     D
C211   O245    1.291   .     A
C211   O246    1.291   .     A
C212   H219    1.082   .     S
C212   N236    1.367   .     A
C213   H227    1.082   .     S
C213   N235    1.367   .     A
C213   C400    1.417   .     S
C214   H228    1.082   .     S
C214   N236    1.367   .     A
C215   N235    1.367   .     A
C215   H229    1.082   .     S
C215   C398    1.417   .     S
C216   H234    1.083   .     S
C216   C313    1.383   1_455 S
Cu217  O242    1.964   .     S
Cu217  O246    1.952   .     S
Cu217  Cu218   2.679   .     S
Cu217  N235    2.013   .     S
Cu217  O244    1.952   .     S
Cu217  O237    1.964   .     S
Cu218  N236    2.013   .     S
Cu218  O243    1.964   .     S
Cu218  O241    1.964   .     S
Cu218  O247    1.952   .     S
Cu218  O245    1.952   .     S
C249   O305    1.291   .     A
C249   O299    1.291   .     A
C249   C267    1.449   .     S
C250   C266    1.401   .     A
C250   H282    1.083   .     S
C250   C314    1.383   .     S
C251   H283    1.083   .     S
C251   C266    1.401   .     A
C251   C340    1.383   .     S
C252   H284    1.083   .     S
C252   C267    1.401   .     A
C253   C257    1.398   .     A
C253   H292    1.084   .     S
C253   C264    1.398   .     A
C254   C258    1.398   .     A
C254   H293    1.084   .     S
C254   C265    1.398   .     A
C255   C259    1.398   .     A
C255   H294    1.084   .     S
C255   C265    1.398   .     A
C256   C261    1.398   .     A
C256   H295    1.084   .     S
C256   C264    1.398   .     A
C257   C262    1.416   .     A
C257   C268    1.490   .     S
C258   C263    1.416   .     A
C258   C269    1.490   .     S
C259   C263    1.416   .     A
C259   C270    1.490   .     S
C260   C266    1.449   .     S
C260   O304    1.291   .     A
C260   O303    1.291   .     A
C261   C262    1.416   .     A
C261   C272    1.490   .     S
C262   C271    1.457   .     S
C263   C273    1.457   .     S
C264   C823    1.467   1_554 S
C265   C822    1.467   .     S
C267   C278    1.401   .     A
C268   H285    1.084   .     S
C268   O310    1.221   .     D
C269   O300    1.221   .     D
C269   H286    1.084   .     S
C270   H287    1.084   .     S
C270   O301    1.221   .     D
C271   O306    1.291   .     A
C271   O309    1.291   .     A
C272   H288    1.084   .     S
C272   O302    1.221   .     D
C273   O307    1.291   .     A
C273   O308    1.291   .     A
C274   H281    1.082   .     S
C274   N298    1.367   .     A
C275   H289    1.082   .     S
C275   N297    1.367   .     A
C275   C462    1.417   .     S
C276   H290    1.082   .     S
C276   N298    1.367   .     A
C277   N297    1.367   .     A
C277   H291    1.082   .     S
C277   C460    1.417   .     S
C278   H296    1.083   .     S
Cu279  O304    1.964   .     S
Cu279  O308    1.952   .     S
Cu279  Cu280   2.679   .     S
Cu279  N297    2.013   .     S
Cu279  O306    1.952   .     S
Cu279  O299    1.964   .     S
Cu280  N298    2.013   .     S
Cu280  O305    1.964   .     S
Cu280  O303    1.964   .     S
Cu280  O309    1.952   .     S
Cu280  O307    1.952   .     S
C311   O367    1.291   .     A
C311   O361    1.291   .     A
C311   C329    1.449   .     S
C312   C328    1.401   .     A
C312   H344    1.083   .     S
C312   C190    1.383   1_655 S
C313   H345    1.083   .     S
C313   C328    1.401   .     A
C313   C216    1.383   1_655 S
C314   H346    1.083   .     S
C314   C329    1.401   .     A
C315   C319    1.398   .     A
C315   H354    1.084   .     S
C315   C326    1.398   .     A
C316   C320    1.398   .     A
C316   H355    1.084   .     S
C316   C327    1.398   .     A
C317   C321    1.398   .     A
C317   H356    1.084   .     S
C317   C327    1.398   .     A
C318   C323    1.398   .     A
C318   H357    1.084   .     S
C318   C326    1.398   .     A
C319   C324    1.416   .     A
C319   C330    1.490   .     S
C320   C325    1.416   .     A
C320   C331    1.490   .     S
C321   C325    1.416   .     A
C321   C332    1.490   .     S
C322   C328    1.449   .     S
C322   O366    1.291   .     A
C322   O365    1.291   .     A
C323   C324    1.416   .     A
C323   C334    1.490   .     S
C324   C333    1.457   .     S
C325   C335    1.457   .     S
C326   C885    1.467   1_554 S
C327   C884    1.467   .     S
C329   C340    1.401   .     A
C330   H347    1.084   .     S
C330   O372    1.221   .     D
C331   O362    1.221   .     D
C331   H348    1.084   .     S
C332   H349    1.084   .     S
C332   O363    1.221   .     D
C333   O368    1.291   .     A
C333   O371    1.291   .     A
C334   H350    1.084   .     S
C334   O364    1.221   .     D
C335   O369    1.291   .     A
C335   O370    1.291   .     A
C336   H343    1.082   .     S
C336   N360    1.367   .     A
C337   H351    1.082   .     S
C337   N359    1.367   .     A
C337   C524    1.417   .     S
C338   H352    1.082   .     S
C338   N360    1.367   .     A
C339   N359    1.367   .     A
C339   H353    1.082   .     S
C339   C522    1.417   .     S
C340   H358    1.083   .     S
Cu341  O366    1.964   .     S
Cu341  O370    1.952   .     S
Cu341  Cu342   2.679   .     S
Cu341  N359    2.013   .     S
Cu341  O368    1.952   .     S
Cu341  O361    1.964   .     S
Cu342  N360    2.013   .     S
Cu342  O367    1.964   .     S
Cu342  O365    1.964   .     S
Cu342  O371    1.952   .     S
Cu342  O369    1.952   .     S
C373   O429    1.291   .     A
C373   O423    1.291   .     A
C373   C391    1.449   .     S
C374   C390    1.401   .     A
C374   H406    1.083   .     S
C374   C438    1.383   .     S
C375   H407    1.083   .     S
C375   C390    1.401   .     A
C375   C464    1.383   .     S
C376   H408    1.083   .     S
C376   C391    1.401   .     A
C376   C498    1.383   1_455 S
C377   C381    1.398   .     A
C377   H416    1.084   .     S
C377   C388    1.398   .     A
C378   C382    1.398   .     A
C378   H417    1.084   .     S
C378   C389    1.398   .     A
C379   C383    1.398   .     A
C379   H418    1.084   .     S
C379   C389    1.398   .     A
C380   C385    1.398   .     A
C380   H419    1.084   .     S
C380   C388    1.398   .     A
C381   C386    1.416   .     A
C381   C392    1.490   .     S
C382   C387    1.416   .     A
C382   C393    1.490   .     S
C383   C387    1.416   .     A
C383   C394    1.490   .     S
C384   C390    1.449   .     S
C384   O428    1.291   .     A
C384   O427    1.291   .     A
C385   C386    1.416   .     A
C385   C396    1.490   .     S
C386   C395    1.457   .     S
C387   C397    1.457   .     S
C388   C947    1.467   1_554 S
C389   C946    1.467   .     S
C391   C402    1.401   .     A
C392   H409    1.084   .     S
C392   O434    1.221   .     D
C393   O424    1.221   .     D
C393   H410    1.084   .     S
C394   H411    1.084   .     S
C394   O425    1.221   .     D
C395   O430    1.291   .     A
C395   O433    1.291   .     A
C396   H412    1.084   .     S
C396   O426    1.221   .     D
C397   O431    1.291   .     A
C397   O432    1.291   .     A
C398   H405    1.082   .     S
C398   N422    1.367   .     A
C399   H413    1.082   .     S
C399   N421    1.367   .     A
C399   C28     1.417   1_565 S
C400   H414    1.082   .     S
C400   N422    1.367   .     A
C401   N421    1.367   .     A
C401   H415    1.082   .     S
C401   C26     1.417   1_565 S
C402   H420    1.083   .     S
C402   C499    1.383   1_455 S
Cu403  O428    1.964   .     S
Cu403  O432    1.952   .     S
Cu403  Cu404   2.679   .     S
Cu403  N421    2.013   .     S
Cu403  O430    1.952   .     S
Cu403  O423    1.964   .     S
Cu404  N422    2.013   .     S
Cu404  O429    1.964   .     S
Cu404  O427    1.964   .     S
Cu404  O433    1.952   .     S
Cu404  O431    1.952   .     S
C435   O491    1.291   .     A
C435   O485    1.291   .     A
C435   C453    1.449   .     S
C436   C452    1.401   .     A
C436   H468    1.083   .     S
C436   C500    1.383   .     S
C437   H469    1.083   .     S
C437   C452    1.401   .     A
C437   C526    1.383   .     S
C438   H470    1.083   .     S
C438   C453    1.401   .     A
C439   C443    1.398   .     A
C439   H478    1.084   .     S
C439   C450    1.398   .     A
C440   C444    1.398   .     A
C440   H479    1.084   .     S
C440   C451    1.398   .     A
C441   C445    1.398   .     A
C441   H480    1.084   .     S
C441   C451    1.398   .     A
C442   C447    1.398   .     A
C442   H481    1.084   .     S
C442   C450    1.398   .     A
C443   C448    1.416   .     A
C443   C454    1.490   .     S
C444   C449    1.416   .     A
C444   C455    1.490   .     S
C445   C449    1.416   .     A
C445   C456    1.490   .     S
C446   C452    1.449   .     S
C446   O490    1.291   .     A
C446   O489    1.291   .     A
C447   C448    1.416   .     A
C447   C458    1.490   .     S
C448   C457    1.457   .     S
C449   C459    1.457   .     S
C450   C1009   1.467   1_554 S
C451   C1008   1.467   .     S
C453   C464    1.401   .     A
C454   H471    1.084   .     S
C454   O496    1.221   .     D
C455   O486    1.221   .     D
C455   H472    1.084   .     S
C456   H473    1.084   .     S
C456   O487    1.221   .     D
C457   O492    1.291   .     A
C457   O495    1.291   .     A
C458   H474    1.084   .     S
C458   O488    1.221   .     D
C459   O493    1.291   .     A
C459   O494    1.291   .     A
C460   H467    1.082   .     S
C460   N484    1.367   .     A
C461   H475    1.082   .     S
C461   N483    1.367   .     A
C461   C90     1.417   1_565 S
C462   H476    1.082   .     S
C462   N484    1.367   .     A
C463   N483    1.367   .     A
C463   H477    1.082   .     S
C463   C88     1.417   1_565 S
C464   H482    1.083   .     S
Cu465  O490    1.964   .     S
Cu465  O494    1.952   .     S
Cu465  Cu466   2.679   .     S
Cu465  N483    2.013   .     S
Cu465  O492    1.952   .     S
Cu465  O485    1.964   .     S
Cu466  N484    2.013   .     S
Cu466  O491    1.964   .     S
Cu466  O489    1.964   .     S
Cu466  O495    1.952   .     S
Cu466  O493    1.952   .     S
C497   O553    1.291   .     A
C497   O547    1.291   .     A
C497   C515    1.449   .     S
C498   C514    1.401   .     A
C498   H530    1.083   .     S
C498   C376    1.383   1_655 S
C499   H531    1.083   .     S
C499   C514    1.401   .     A
C499   C402    1.383   1_655 S
C500   H532    1.083   .     S
C500   C515    1.401   .     A
C501   C505    1.398   .     A
C501   H540    1.084   .     S
C501   C512    1.398   .     A
C502   C506    1.398   .     A
C502   H541    1.084   .     S
C502   C513    1.398   .     A
C503   C507    1.398   .     A
C503   H542    1.084   .     S
C503   C513    1.398   .     A
C504   C509    1.398   .     A
C504   H543    1.084   .     S
C504   C512    1.398   .     A
C505   C510    1.416   .     A
C505   C516    1.490   .     S
C506   C511    1.416   .     A
C506   C517    1.490   .     S
C507   C511    1.416   .     A
C507   C518    1.490   .     S
C508   C514    1.449   .     S
C508   O552    1.291   .     A
C508   O551    1.291   .     A
C509   C510    1.416   .     A
C509   C520    1.490   .     S
C510   C519    1.457   .     S
C511   C521    1.457   .     S
C512   C1071   1.467   1_554 S
C513   C1070   1.467   .     S
C515   C526    1.401   .     A
C516   H533    1.084   .     S
C516   O558    1.221   .     D
C517   O548    1.221   .     D
C517   H534    1.084   .     S
C518   H535    1.084   .     S
C518   O549    1.221   .     D
C519   O554    1.291   .     A
C519   O557    1.291   .     A
C520   H536    1.084   .     S
C520   O550    1.221   .     D
C521   O555    1.291   .     A
C521   O556    1.291   .     A
C522   H529    1.082   .     S
C522   N546    1.367   .     A
C523   H537    1.082   .     S
C523   N545    1.367   .     A
C523   C152    1.417   1_565 S
C524   H538    1.082   .     S
C524   N546    1.367   .     A
C525   N545    1.367   .     A
C525   H539    1.082   .     S
C525   C150    1.417   1_565 S
C526   H544    1.083   .     S
Cu527  O552    1.964   .     S
Cu527  O556    1.952   .     S
Cu527  Cu528   2.679   .     S
Cu527  N545    2.013   .     S
Cu527  O554    1.952   .     S
Cu527  O547    1.964   .     S
Cu528  N546    2.013   .     S
Cu528  O553    1.964   .     S
Cu528  O551    1.964   .     S
Cu528  O557    1.952   .     S
Cu528  O555    1.952   .     S
C559   O615    1.291   .     A
C559   O609    1.291   .     A
C559   C577    1.449   .     S
C560   C576    1.401   .     A
C560   H592    1.083   .     S
C560   C624    1.383   .     S
C561   H593    1.083   .     S
C561   C576    1.401   .     A
C561   C650    1.383   .     S
C562   H594    1.083   .     S
C562   C577    1.401   .     A
C562   C684    1.383   1_455 S
C563   C567    1.398   .     A
C563   H602    1.084   .     S
C563   C574    1.398   .     A
C564   C568    1.398   .     A
C564   H603    1.084   .     S
C564   C575    1.398   .     A
C565   C569    1.398   .     A
C565   H604    1.084   .     S
C565   C575    1.398   .     A
C566   C571    1.398   .     A
C566   H605    1.084   .     S
C566   C574    1.398   .     A
C567   C572    1.416   .     A
C567   C578    1.490   .     S
C568   C573    1.416   .     A
C568   C579    1.490   .     S
C569   C573    1.416   .     A
C569   C580    1.490   .     S
C570   C576    1.449   .     S
C570   O614    1.291   .     A
C570   O613    1.291   .     A
C571   C572    1.416   .     A
C571   C582    1.490   .     S
C572   C581    1.457   .     S
C573   C583    1.457   .     S
C575   C16     1.467   1_556 S
C577   C588    1.401   .     A
C578   H595    1.084   .     S
C578   O620    1.221   .     D
C579   O610    1.221   .     D
C579   H596    1.084   .     S
C580   H597    1.084   .     S
C580   O611    1.221   .     D
C581   O616    1.291   .     A
C581   O619    1.291   .     A
C582   H598    1.084   .     S
C582   O612    1.221   .     D
C583   O617    1.291   .     A
C583   O618    1.291   .     A
C584   H591    1.082   .     S
C584   N608    1.367   .     A
C584   C959    1.417   1_545 S
C585   H599    1.082   .     S
C585   N607    1.367   .     A
C585   C772    1.417   .     S
C586   H600    1.082   .     S
C586   N608    1.367   .     A
C586   C957    1.417   1_545 S
C587   N607    1.367   .     A
C587   H601    1.082   .     S
C587   C770    1.417   .     S
C588   H606    1.083   .     S
C588   C685    1.383   1_455 S
Cu589  O614    1.964   .     S
Cu589  O618    1.952   .     S
Cu589  Cu590   2.679   .     S
Cu589  N607    2.013   .     S
Cu589  O616    1.952   .     S
Cu589  O609    1.964   .     S
Cu590  N608    2.013   .     S
Cu590  O615    1.964   .     S
Cu590  O613    1.964   .     S
Cu590  O619    1.952   .     S
Cu590  O617    1.952   .     S
C621   O677    1.291   .     A
C621   O671    1.291   .     A
C621   C639    1.449   .     S
C622   C638    1.401   .     A
C622   H654    1.083   .     S
C622   C686    1.383   .     S
C623   H655    1.083   .     S
C623   C638    1.401   .     A
C623   C712    1.383   .     S
C624   H656    1.083   .     S
C624   C639    1.401   .     A
C625   C629    1.398   .     A
C625   H664    1.084   .     S
C625   C636    1.398   .     A
C626   C630    1.398   .     A
C626   H665    1.084   .     S
C626   C637    1.398   .     A
C627   C631    1.398   .     A
C627   H666    1.084   .     S
C627   C637    1.398   .     A
C628   C633    1.398   .     A
C628   H667    1.084   .     S
C628   C636    1.398   .     A
C629   C634    1.416   .     A
C629   C640    1.490   .     S
C630   C635    1.416   .     A
C630   C641    1.490   .     S
C631   C635    1.416   .     A
C631   C642    1.490   .     S
C632   C638    1.449   .     S
C632   O676    1.291   .     A
C632   O675    1.291   .     A
C633   C634    1.416   .     A
C633   C644    1.490   .     S
C634   C643    1.457   .     S
C635   C645    1.457   .     S
C637   C78     1.467   1_556 S
C639   C650    1.401   .     A
C640   H657    1.084   .     S
C640   O682    1.221   .     D
C641   O672    1.221   .     D
C641   H658    1.084   .     S
C642   H659    1.084   .     S
C642   O673    1.221   .     D
C643   O678    1.291   .     A
C643   O681    1.291   .     A
C644   H660    1.084   .     S
C644   O674    1.221   .     D
C645   O679    1.291   .     A
C645   O680    1.291   .     A
C646   H653    1.082   .     S
C646   N670    1.367   .     A
C646   C1021   1.417   1_545 S
C647   H661    1.082   .     S
C647   N669    1.367   .     A
C647   C834    1.417   .     S
C648   H662    1.082   .     S
C648   N670    1.367   .     A
C648   C1019   1.417   1_545 S
C649   N669    1.367   .     A
C649   H663    1.082   .     S
C649   C832    1.417   .     S
C650   H668    1.083   .     S
Cu651  O676    1.964   .     S
Cu651  O680    1.952   .     S
Cu651  Cu652   2.679   .     S
Cu651  N669    2.013   .     S
Cu651  O678    1.952   .     S
Cu651  O671    1.964   .     S
Cu652  N670    2.013   .     S
Cu652  O677    1.964   .     S
Cu652  O675    1.964   .     S
Cu652  O681    1.952   .     S
Cu652  O679    1.952   .     S
C683   O739    1.291   .     A
C683   O733    1.291   .     A
C683   C701    1.449   .     S
C684   C700    1.401   .     A
C684   H716    1.083   .     S
C684   C562    1.383   1_655 S
C685   H717    1.083   .     S
C685   C700    1.401   .     A
C685   C588    1.383   1_655 S
C686   H718    1.083   .     S
C686   C701    1.401   .     A
C687   C691    1.398   .     A
C687   H726    1.084   .     S
C687   C698    1.398   .     A
C688   C692    1.398   .     A
C688   H727    1.084   .     S
C688   C699    1.398   .     A
C689   C693    1.398   .     A
C689   H728    1.084   .     S
C689   C699    1.398   .     A
C690   C695    1.398   .     A
C690   H729    1.084   .     S
C690   C698    1.398   .     A
C691   C696    1.416   .     A
C691   C702    1.490   .     S
C692   C697    1.416   .     A
C692   C703    1.490   .     S
C693   C697    1.416   .     A
C693   C704    1.490   .     S
C694   C700    1.449   .     S
C694   O738    1.291   .     A
C694   O737    1.291   .     A
C695   C696    1.416   .     A
C695   C706    1.490   .     S
C696   C705    1.457   .     S
C697   C707    1.457   .     S
C699   C140    1.467   1_556 S
C701   C712    1.401   .     A
C702   H719    1.084   .     S
C702   O744    1.221   .     D
C703   O734    1.221   .     D
C703   H720    1.084   .     S
C704   H721    1.084   .     S
C704   O735    1.221   .     D
C705   O740    1.291   .     A
C705   O743    1.291   .     A
C706   H722    1.084   .     S
C706   O736    1.221   .     D
C707   O741    1.291   .     A
C707   O742    1.291   .     A
C708   H715    1.082   .     S
C708   N732    1.367   .     A
C708   C1083   1.417   1_545 S
C709   H723    1.082   .     S
C709   N731    1.367   .     A
C709   C896    1.417   .     S
C710   H724    1.082   .     S
C710   N732    1.367   .     A
C710   C1081   1.417   1_545 S
C711   N731    1.367   .     A
C711   H725    1.082   .     S
C711   C894    1.417   .     S
C712   H730    1.083   .     S
Cu713  O738    1.964   .     S
Cu713  O742    1.952   .     S
Cu713  Cu714   2.679   .     S
Cu713  N731    2.013   .     S
Cu713  O740    1.952   .     S
Cu713  O733    1.964   .     S
Cu714  N732    2.013   .     S
Cu714  O739    1.964   .     S
Cu714  O737    1.964   .     S
Cu714  O743    1.952   .     S
Cu714  O741    1.952   .     S
C745   O801    1.291   .     A
C745   O795    1.291   .     A
C745   C763    1.449   .     S
C746   C762    1.401   .     A
C746   H778    1.083   .     S
C746   C810    1.383   .     S
C747   H779    1.083   .     S
C747   C762    1.401   .     A
C747   C836    1.383   .     S
C748   H780    1.083   .     S
C748   C763    1.401   .     A
C748   C870    1.383   1_455 S
C749   C753    1.398   .     A
C749   H788    1.084   .     S
C749   C760    1.398   .     A
C750   C754    1.398   .     A
C750   H789    1.084   .     S
C750   C761    1.398   .     A
C751   C755    1.398   .     A
C751   H790    1.084   .     S
C751   C761    1.398   .     A
C752   C757    1.398   .     A
C752   H791    1.084   .     S
C752   C760    1.398   .     A
C753   C758    1.416   .     A
C753   C764    1.490   .     S
C754   C759    1.416   .     A
C754   C765    1.490   .     S
C755   C759    1.416   .     A
C755   C766    1.490   .     S
C756   C762    1.449   .     S
C756   O800    1.291   .     A
C756   O799    1.291   .     A
C757   C758    1.416   .     A
C757   C768    1.490   .     S
C758   C767    1.457   .     S
C759   C769    1.457   .     S
C761   C202    1.467   1_556 S
C763   C774    1.401   .     A
C764   H781    1.084   .     S
C764   O806    1.221   .     D
C765   O796    1.221   .     D
C765   H782    1.084   .     S
C766   H783    1.084   .     S
C766   O797    1.221   .     D
C767   O802    1.291   .     A
C767   O805    1.291   .     A
C768   H784    1.084   .     S
C768   O798    1.221   .     D
C769   O803    1.291   .     A
C769   O804    1.291   .     A
C770   H777    1.082   .     S
C770   N794    1.367   .     A
C771   H785    1.082   .     S
C771   N793    1.367   .     A
C771   C958    1.417   .     S
C772   H786    1.082   .     S
C772   N794    1.367   .     A
C773   N793    1.367   .     A
C773   H787    1.082   .     S
C773   C956    1.417   .     S
C774   H792    1.083   .     S
C774   C871    1.383   1_455 S
Cu775  O800    1.964   .     S
Cu775  O804    1.952   .     S
Cu775  Cu776   2.679   .     S
Cu775  N793    2.013   .     S
Cu775  O802    1.952   .     S
Cu775  O795    1.964   .     S
Cu776  N794    2.013   .     S
Cu776  O801    1.964   .     S
Cu776  O799    1.964   .     S
Cu776  O805    1.952   .     S
Cu776  O803    1.952   .     S
C807   O863    1.291   .     A
C807   O857    1.291   .     A
C807   C825    1.449   .     S
C808   C824    1.401   .     A
C808   H840    1.083   .     S
C808   C872    1.383   .     S
C809   H841    1.083   .     S
C809   C824    1.401   .     A
C809   C898    1.383   .     S
C810   H842    1.083   .     S
C810   C825    1.401   .     A
C811   C815    1.398   .     A
C811   H850    1.084   .     S
C811   C822    1.398   .     A
C812   C816    1.398   .     A
C812   H851    1.084   .     S
C812   C823    1.398   .     A
C813   C817    1.398   .     A
C813   H852    1.084   .     S
C813   C823    1.398   .     A
C814   C819    1.398   .     A
C814   H853    1.084   .     S
C814   C822    1.398   .     A
C815   C820    1.416   .     A
C815   C826    1.490   .     S
C816   C821    1.416   .     A
C816   C827    1.490   .     S
C817   C821    1.416   .     A
C817   C828    1.490   .     S
C818   C824    1.449   .     S
C818   O862    1.291   .     A
C818   O861    1.291   .     A
C819   C820    1.416   .     A
C819   C830    1.490   .     S
C820   C829    1.457   .     S
C821   C831    1.457   .     S
C823   C264    1.467   1_556 S
C825   C836    1.401   .     A
C826   H843    1.084   .     S
C826   O868    1.221   .     D
C827   O858    1.221   .     D
C827   H844    1.084   .     S
C828   H845    1.084   .     S
C828   O859    1.221   .     D
C829   O864    1.291   .     A
C829   O867    1.291   .     A
C830   H846    1.084   .     S
C830   O860    1.221   .     D
C831   O865    1.291   .     A
C831   O866    1.291   .     A
C832   H839    1.082   .     S
C832   N856    1.367   .     A
C833   H847    1.082   .     S
C833   N855    1.367   .     A
C833   C1020   1.417   .     S
C834   H848    1.082   .     S
C834   N856    1.367   .     A
C835   N855    1.367   .     A
C835   H849    1.082   .     S
C835   C1018   1.417   .     S
C836   H854    1.083   .     S
Cu837  O862    1.964   .     S
Cu837  O866    1.952   .     S
Cu837  Cu838   2.679   .     S
Cu837  N855    2.013   .     S
Cu837  O864    1.952   .     S
Cu837  O857    1.964   .     S
Cu838  N856    2.013   .     S
Cu838  O863    1.964   .     S
Cu838  O861    1.964   .     S
Cu838  O867    1.952   .     S
Cu838  O865    1.952   .     S
C869   O925    1.291   .     A
C869   O919    1.291   .     A
C869   C887    1.449   .     S
C870   C886    1.401   .     A
C870   H902    1.083   .     S
C870   C748    1.383   1_655 S
C871   H903    1.083   .     S
C871   C886    1.401   .     A
C871   C774    1.383   1_655 S
C872   H904    1.083   .     S
C872   C887    1.401   .     A
C873   C877    1.398   .     A
C873   H912    1.084   .     S
C873   C884    1.398   .     A
C874   C878    1.398   .     A
C874   H913    1.084   .     S
C874   C885    1.398   .     A
C875   C879    1.398   .     A
C875   H914    1.084   .     S
C875   C885    1.398   .     A
C876   C881    1.398   .     A
C876   H915    1.084   .     S
C876   C884    1.398   .     A
C877   C882    1.416   .     A
C877   C888    1.490   .     S
C878   C883    1.416   .     A
C878   C889    1.490   .     S
C879   C883    1.416   .     A
C879   C890    1.490   .     S
C880   C886    1.449   .     S
C880   O924    1.291   .     A
C880   O923    1.291   .     A
C881   C882    1.416   .     A
C881   C892    1.490   .     S
C882   C891    1.457   .     S
C883   C893    1.457   .     S
C885   C326    1.467   1_556 S
C887   C898    1.401   .     A
C888   H905    1.084   .     S
C888   O930    1.221   .     D
C889   O920    1.221   .     D
C889   H906    1.084   .     S
C890   H907    1.084   .     S
C890   O921    1.221   .     D
C891   O926    1.291   .     A
C891   O929    1.291   .     A
C892   H908    1.084   .     S
C892   O922    1.221   .     D
C893   O927    1.291   .     A
C893   O928    1.291   .     A
C894   H901    1.082   .     S
C894   N918    1.367   .     A
C895   H909    1.082   .     S
C895   N917    1.367   .     A
C895   C1082   1.417   .     S
C896   H910    1.082   .     S
C896   N918    1.367   .     A
C897   N917    1.367   .     A
C897   H911    1.082   .     S
C897   C1080   1.417   .     S
C898   H916    1.083   .     S
Cu899  O924    1.964   .     S
Cu899  O928    1.952   .     S
Cu899  Cu900   2.679   .     S
Cu899  N917    2.013   .     S
Cu899  O926    1.952   .     S
Cu899  O919    1.964   .     S
Cu900  N918    2.013   .     S
Cu900  O925    1.964   .     S
Cu900  O923    1.964   .     S
Cu900  O929    1.952   .     S
Cu900  O927    1.952   .     S
C931   O987    1.291   .     A
C931   O981    1.291   .     A
C931   C949    1.449   .     S
C932   C948    1.401   .     A
C932   H964    1.083   .     S
C932   C996    1.383   .     S
C933   H965    1.083   .     S
C933   C948    1.401   .     A
C933   C1022   1.383   .     S
C934   H966    1.083   .     S
C934   C949    1.401   .     A
C934   C1056   1.383   1_455 S
C935   C939    1.398   .     A
C935   H974    1.084   .     S
C935   C946    1.398   .     A
C936   C940    1.398   .     A
C936   H975    1.084   .     S
C936   C947    1.398   .     A
C937   C941    1.398   .     A
C937   H976    1.084   .     S
C937   C947    1.398   .     A
C938   C943    1.398   .     A
C938   H977    1.084   .     S
C938   C946    1.398   .     A
C939   C944    1.416   .     A
C939   C950    1.490   .     S
C940   C945    1.416   .     A
C940   C951    1.490   .     S
C941   C945    1.416   .     A
C941   C952    1.490   .     S
C942   C948    1.449   .     S
C942   O986    1.291   .     A
C942   O985    1.291   .     A
C943   C944    1.416   .     A
C943   C954    1.490   .     S
C944   C953    1.457   .     S
C945   C955    1.457   .     S
C947   C388    1.467   1_556 S
C949   C960    1.401   .     A
C950   H967    1.084   .     S
C950   O992    1.221   .     D
C951   O982    1.221   .     D
C951   H968    1.084   .     S
C952   H969    1.084   .     S
C952   O983    1.221   .     D
C953   O988    1.291   .     A
C953   O991    1.291   .     A
C954   H970    1.084   .     S
C954   O984    1.221   .     D
C955   O989    1.291   .     A
C955   O990    1.291   .     A
C956   H963    1.082   .     S
C956   N980    1.367   .     A
C957   H971    1.082   .     S
C957   N979    1.367   .     A
C957   C586    1.417   1_565 S
C958   H972    1.082   .     S
C958   N980    1.367   .     A
C959   N979    1.367   .     A
C959   H973    1.082   .     S
C959   C584    1.417   1_565 S
C960   H978    1.083   .     S
C960   C1057   1.383   1_455 S
Cu961  O986    1.964   .     S
Cu961  O990    1.952   .     S
Cu961  Cu962   2.679   .     S
Cu961  N979    2.013   .     S
Cu961  O988    1.952   .     S
Cu961  O981    1.964   .     S
Cu962  N980    2.013   .     S
Cu962  O987    1.964   .     S
Cu962  O985    1.964   .     S
Cu962  O991    1.952   .     S
Cu962  O989    1.952   .     S
C993   O1049   1.291   .     A
C993   O1043   1.291   .     A
C993   C1011   1.449   .     S
C994   C1010   1.401   .     A
C994   H1026   1.083   .     S
C994   C1058   1.383   .     S
C995   H1027   1.083   .     S
C995   C1010   1.401   .     A
C995   C1084   1.383   .     S
C996   H1028   1.083   .     S
C996   C1011   1.401   .     A
C997   C1001   1.398   .     A
C997   H1036   1.084   .     S
C997   C1008   1.398   .     A
C998   C1002   1.398   .     A
C998   H1037   1.084   .     S
C998   C1009   1.398   .     A
C999   C1003   1.398   .     A
C999   H1038   1.084   .     S
C999   C1009   1.398   .     A
C1000  C1005   1.398   .     A
C1000  H1039   1.084   .     S
C1000  C1008   1.398   .     A
C1001  C1006   1.416   .     A
C1001  C1012   1.490   .     S
C1002  C1007   1.416   .     A
C1002  C1013   1.490   .     S
C1003  C1007   1.416   .     A
C1003  C1014   1.490   .     S
C1004  C1010   1.449   .     S
C1004  O1048   1.291   .     A
C1004  O1047   1.291   .     A
C1005  C1006   1.416   .     A
C1005  C1016   1.490   .     S
C1006  C1015   1.457   .     S
C1007  C1017   1.457   .     S
C1009  C450    1.467   1_556 S
C1011  C1022   1.401   .     A
C1012  H1029   1.084   .     S
C1012  O1054   1.221   .     D
C1013  O1044   1.221   .     D
C1013  H1030   1.084   .     S
C1014  H1031   1.084   .     S
C1014  O1045   1.221   .     D
C1015  O1050   1.291   .     A
C1015  O1053   1.291   .     A
C1016  H1032   1.084   .     S
C1016  O1046   1.221   .     D
C1017  O1051   1.291   .     A
C1017  O1052   1.291   .     A
C1018  H1025   1.082   .     S
C1018  N1042   1.367   .     A
C1019  H1033   1.082   .     S
C1019  N1041   1.367   .     A
C1019  C648    1.417   1_565 S
C1020  H1034   1.082   .     S
C1020  N1042   1.367   .     A
C1021  N1041   1.367   .     A
C1021  H1035   1.082   .     S
C1021  C646    1.417   1_565 S
C1022  H1040   1.083   .     S
Cu1023 O1048   1.964   .     S
Cu1023 O1052   1.952   .     S
Cu1023 Cu1024  2.679   .     S
Cu1023 N1041   2.013   .     S
Cu1023 O1050   1.952   .     S
Cu1023 O1043   1.964   .     S
Cu1024 N1042   2.013   .     S
Cu1024 O1049   1.964   .     S
Cu1024 O1047   1.964   .     S
Cu1024 O1053   1.952   .     S
Cu1024 O1051   1.952   .     S
C1055  O1111   1.291   .     A
C1055  O1105   1.291   .     A
C1055  C1073   1.449   .     S
C1056  C1072   1.401   .     A
C1056  H1088   1.083   .     S
C1056  C934    1.383   1_655 S
C1057  H1089   1.083   .     S
C1057  C1072   1.401   .     A
C1057  C960    1.383   1_655 S
C1058  H1090   1.083   .     S
C1058  C1073   1.401   .     A
C1059  C1063   1.398   .     A
C1059  H1098   1.084   .     S
C1059  C1070   1.398   .     A
C1060  C1064   1.398   .     A
C1060  H1099   1.084   .     S
C1060  C1071   1.398   .     A
C1061  C1065   1.398   .     A
C1061  H1100   1.084   .     S
C1061  C1071   1.398   .     A
C1062  C1067   1.398   .     A
C1062  H1101   1.084   .     S
C1062  C1070   1.398   .     A
C1063  C1068   1.416   .     A
C1063  C1074   1.490   .     S
C1064  C1069   1.416   .     A
C1064  C1075   1.490   .     S
C1065  C1069   1.416   .     A
C1065  C1076   1.490   .     S
C1066  C1072   1.449   .     S
C1066  O1110   1.291   .     A
C1066  O1109   1.291   .     A
C1067  C1068   1.416   .     A
C1067  C1078   1.490   .     S
C1068  C1077   1.457   .     S
C1069  C1079   1.457   .     S
C1071  C512    1.467   1_556 S
C1073  C1084   1.401   .     A
C1074  H1091   1.084   .     S
C1074  O1116   1.221   .     D
C1075  O1106   1.221   .     D
C1075  H1092   1.084   .     S
C1076  H1093   1.084   .     S
C1076  O1107   1.221   .     D
C1077  O1112   1.291   .     A
C1077  O1115   1.291   .     A
C1078  H1094   1.084   .     S
C1078  O1108   1.221   .     D
C1079  O1113   1.291   .     A
C1079  O1114   1.291   .     A
C1080  H1087   1.082   .     S
C1080  N1104   1.367   .     A
C1081  H1095   1.082   .     S
C1081  N1103   1.367   .     A
C1081  C710    1.417   1_565 S
C1082  H1096   1.082   .     S
C1082  N1104   1.367   .     A
C1083  N1103   1.367   .     A
C1083  H1097   1.082   .     S
C1083  C708    1.417   1_565 S
C1084  H1102   1.083   .     S
Cu1085 O1110   1.964   .     S
Cu1085 O1114   1.952   .     S
Cu1085 Cu1086  2.679   .     S
Cu1085 N1103   2.013   .     S
Cu1085 O1112   1.952   .     S
Cu1085 O1105   1.964   .     S
Cu1086 N1104   2.013   .     S
Cu1086 O1111   1.964   .     S
Cu1086 O1109   1.964   .     S
Cu1086 O1115   1.952   .     S
Cu1086 O1113   1.952   .     S
