data_str_m2_o10_o18_pcu_sym.136
_audit_creation_date              2020-01-03
_audit_creation_method            'Materials Studio'
_symmetry_space_group_name_H-M    'P1'
_symmetry_Int_Tables_number       1
_symmetry_cell_setting            triclinic
loop_
_symmetry_equiv_pos_as_xyz
  x,y,z
_cell_length_a                    22.6305
_cell_length_b                    26.0355
_cell_length_c                    31.4548
_cell_angle_alpha                 94.3544
_cell_angle_beta                  76.3168
_cell_angle_gamma                 103.1939
loop_
_atom_site_label
_atom_site_type_symbol
_atom_site_fract_x
_atom_site_fract_y
_atom_site_fract_z
_atom_site_U_iso_or_equiv
_atom_site_adp_type
_atom_site_occupancy
C1     C     0.18165   0.26660   0.25131   0.00000  Uiso   1.00
C2     C     0.15168   0.06674   0.24869   0.00000  Uiso   1.00
C3     C     0.09715   0.13062   0.04013   0.00000  Uiso   1.00
C4     C     0.23615   0.20275   0.45988   0.00000  Uiso   1.00
C5     C     0.05258   0.11931   0.01434   0.00000  Uiso   1.00
C6     C     0.28072   0.21408   0.48567   0.00000  Uiso   1.00
C7     C     0.18992   0.32269   0.25197   0.00000  Uiso   1.00
C8     C     0.14341   0.01065   0.24803   0.00000  Uiso   1.00
C9     C     0.12864   0.16146   0.33306   0.00000  Uiso   1.00
C10    C     0.20469   0.17187   0.16694   0.00000  Uiso   1.00
C11    C     0.10651   0.15410   0.38088   0.00000  Uiso   1.00
C12    C     0.22682   0.17925   0.11912   0.00000  Uiso   1.00
C13    C     0.02433   0.12949   0.44576   0.00000  Uiso   1.00
C14    C     0.30899   0.20393   0.05424   0.00000  Uiso   1.00
C15    C     0.04309   0.14725   0.40265   0.00000  Uiso   1.00
C16    C     0.29024   0.18615   0.09735   0.00000  Uiso   1.00
C17    C     0.14906   0.14883   0.40539   0.00000  Uiso   1.00
C18    C     0.18426   0.18451   0.09462   0.00000  Uiso   1.00
C19    C     0.13214   0.15284   0.45100   0.00000  Uiso   1.00
C20    C     0.20118   0.18051   0.04900   0.00000  Uiso   1.00
C21    C     0.06910   0.13377   0.47069   0.00000  Uiso   1.00
C22    C     0.26421   0.19961   0.02932   0.00000  Uiso   1.00
C23    C     0.17598   0.17151   0.47720   0.00000  Uiso   1.00
C24    C     0.15733   0.16184   0.02280   0.00000  Uiso   1.00
Cu25   Cu    0.10737   0.16108   0.24517   0.00000  Uiso   1.00
Cu26   Cu    0.22596   0.17225   0.25484   0.00000  Uiso   1.00
H27    H     0.00507   0.09945   0.02842   0.00000  Uiso   1.00
H28    H     0.32823   0.23396   0.47158   0.00000  Uiso   1.00
H29    H     0.30852   0.11716   0.46071   0.00000  Uiso   1.00
H30    H     0.02480   0.21628   0.03928   0.00000  Uiso   1.00
H31    H     0.23465   0.01322   0.25570   0.00000  Uiso   1.00
H32    H     0.09868   0.32011   0.24430   0.00000  Uiso   1.00
H33    H     0.00127   0.20565   0.28448   0.00000  Uiso   1.00
H34    H     0.33206   0.12769   0.21552   0.00000  Uiso   1.00
N35    N     0.31506   0.18068   0.26212   0.00000  Uiso   1.00
N36    N     0.01827   0.15265   0.23788   0.00000  Uiso   1.00
O37    O     0.12815   0.23809   0.24686   0.00000  Uiso   1.00
O38    O     0.20518   0.09524   0.25314   0.00000  Uiso   1.00
O39    O     0.22829   0.24753   0.25503   0.00000  Uiso   1.00
O40    O     0.10504   0.08580   0.24498   0.00000  Uiso   1.00
O41    O     0.08851   0.15930   0.30855   0.00000  Uiso   1.00
O42    O     0.24482   0.17403   0.19146   0.00000  Uiso   1.00
O43    O     0.18866   0.16874   0.31671   0.00000  Uiso   1.00
O44    O     0.14468   0.16460   0.18329   0.00000  Uiso   1.00
Br45   Br    0.12792   0.23024   0.11777   0.00000  Uiso   1.00
Br46   Br    0.20544   0.10313   0.38222   0.00000  Uiso   1.00
O47    O     0.00122   0.17767   0.11735   0.00000  Uiso   1.00
H48    H     0.31679   0.14484   0.13409   0.00000  Uiso   1.00
O49    O     0.33214   0.15576   0.38263   0.00000  Uiso   1.00
H50    H     0.01656   0.18861   0.36592   0.00000  Uiso   1.00
O51    O     0.08348   0.11009   0.08144   0.00000  Uiso   1.00
H52    H     0.04196   0.08569   0.08664   0.00000  Uiso   1.00
O53    O     0.24983   0.22328   0.41856   0.00000  Uiso   1.00
H54    H     0.29130   0.24775   0.41339   0.00000  Uiso   1.00
C55    C     0.51498   0.26660   0.25131   0.00000  Uiso   1.00
C56    C     0.48502   0.06674   0.24869   0.00000  Uiso   1.00
C57    C     0.43049   0.13062   0.04013   0.00000  Uiso   1.00
C58    C     0.56949   0.20275   0.45988   0.00000  Uiso   1.00
C59    C     0.38591   0.11931   0.01434   0.00000  Uiso   1.00
C60    C     0.61406   0.21408   0.48567   0.00000  Uiso   1.00
C61    C     0.52325   0.32269   0.25197   0.00000  Uiso   1.00
C62    C     0.47675   0.01065   0.24803   0.00000  Uiso   1.00
C63    C     0.46197   0.16146   0.33306   0.00000  Uiso   1.00
C64    C     0.53803   0.17187   0.16694   0.00000  Uiso   1.00
C65    C     0.43985   0.15410   0.38088   0.00000  Uiso   1.00
C66    C     0.56015   0.17925   0.11912   0.00000  Uiso   1.00
C67    C     0.35766   0.12949   0.44576   0.00000  Uiso   1.00
C68    C     0.64232   0.20393   0.05424   0.00000  Uiso   1.00
C69    C     0.37643   0.14725   0.40265   0.00000  Uiso   1.00
C70    C     0.62357   0.18615   0.09735   0.00000  Uiso   1.00
C71    C     0.48239   0.14883   0.40539   0.00000  Uiso   1.00
C72    C     0.51760   0.18451   0.09462   0.00000  Uiso   1.00
C73    C     0.46547   0.15284   0.45100   0.00000  Uiso   1.00
C74    C     0.53451   0.18051   0.04900   0.00000  Uiso   1.00
C75    C     0.40244   0.13377   0.47069   0.00000  Uiso   1.00
C76    C     0.59754   0.19961   0.02932   0.00000  Uiso   1.00
C77    C     0.50932   0.17151   0.47720   0.00000  Uiso   1.00
C78    C     0.49067   0.16184   0.02280   0.00000  Uiso   1.00
Cu79   Cu    0.44071   0.16108   0.24517   0.00000  Uiso   1.00
Cu80   Cu    0.55929   0.17225   0.25484   0.00000  Uiso   1.00
H81    H     0.33840   0.09945   0.02842   0.00000  Uiso   1.00
H82    H     0.66156   0.23396   0.47158   0.00000  Uiso   1.00
H83    H     0.64185   0.11716   0.46071   0.00000  Uiso   1.00
H84    H     0.35813   0.21628   0.03928   0.00000  Uiso   1.00
H85    H     0.56799   0.01322   0.25570   0.00000  Uiso   1.00
H86    H     0.43201   0.32011   0.24430   0.00000  Uiso   1.00
H87    H     0.33461   0.20565   0.28448   0.00000  Uiso   1.00
H88    H     0.66540   0.12769   0.21552   0.00000  Uiso   1.00
N89    N     0.64839   0.18068   0.26212   0.00000  Uiso   1.00
N90    N     0.35161   0.15265   0.23788   0.00000  Uiso   1.00
O91    O     0.46148   0.23809   0.24686   0.00000  Uiso   1.00
O92    O     0.53852   0.09524   0.25314   0.00000  Uiso   1.00
O93    O     0.56163   0.24753   0.25503   0.00000  Uiso   1.00
O94    O     0.43837   0.08580   0.24498   0.00000  Uiso   1.00
O95    O     0.42185   0.15930   0.30855   0.00000  Uiso   1.00
O96    O     0.57815   0.17403   0.19146   0.00000  Uiso   1.00
O97    O     0.52199   0.16874   0.31671   0.00000  Uiso   1.00
O98    O     0.47801   0.16460   0.18329   0.00000  Uiso   1.00
Br99   Br    0.46126   0.23024   0.11777   0.00000  Uiso   1.00
Br100  Br    0.53877   0.10313   0.38222   0.00000  Uiso   1.00
O101   O     0.33455   0.17767   0.11735   0.00000  Uiso   1.00
H102   H     0.65012   0.14484   0.13409   0.00000  Uiso   1.00
O103   O     0.66547   0.15576   0.38263   0.00000  Uiso   1.00
H104   H     0.34990   0.18861   0.36592   0.00000  Uiso   1.00
O105   O     0.41681   0.11009   0.08144   0.00000  Uiso   1.00
H106   H     0.37529   0.08569   0.08664   0.00000  Uiso   1.00
O107   O     0.58316   0.22328   0.41856   0.00000  Uiso   1.00
H108   H     0.62463   0.24775   0.41339   0.00000  Uiso   1.00
C109   C     0.84832   0.26660   0.25131   0.00000  Uiso   1.00
C110   C     0.81835   0.06674   0.24869   0.00000  Uiso   1.00
C111   C     0.76382   0.13062   0.04013   0.00000  Uiso   1.00
C112   C     0.90282   0.20275   0.45988   0.00000  Uiso   1.00
C113   C     0.71925   0.11931   0.01434   0.00000  Uiso   1.00
C114   C     0.94739   0.21408   0.48567   0.00000  Uiso   1.00
C115   C     0.85659   0.32269   0.25197   0.00000  Uiso   1.00
C116   C     0.81008   0.01065   0.24803   0.00000  Uiso   1.00
C117   C     0.79531   0.16146   0.33306   0.00000  Uiso   1.00
C118   C     0.87136   0.17187   0.16694   0.00000  Uiso   1.00
C119   C     0.77318   0.15410   0.38088   0.00000  Uiso   1.00
C120   C     0.89349   0.17925   0.11912   0.00000  Uiso   1.00
C121   C     0.69099   0.12949   0.44576   0.00000  Uiso   1.00
C122   C     0.97565   0.20393   0.05424   0.00000  Uiso   1.00
C123   C     0.70976   0.14725   0.40265   0.00000  Uiso   1.00
C124   C     0.95690   0.18615   0.09735   0.00000  Uiso   1.00
C125   C     0.81572   0.14883   0.40539   0.00000  Uiso   1.00
C126   C     0.85093   0.18451   0.09462   0.00000  Uiso   1.00
C127   C     0.79881   0.15284   0.45100   0.00000  Uiso   1.00
C128   C     0.86785   0.18051   0.04900   0.00000  Uiso   1.00
C129   C     0.73577   0.13377   0.47069   0.00000  Uiso   1.00
C130   C     0.93088   0.19961   0.02932   0.00000  Uiso   1.00
C131   C     0.84265   0.17151   0.47720   0.00000  Uiso   1.00
C132   C     0.82400   0.16184   0.02280   0.00000  Uiso   1.00
Cu133  Cu    0.77404   0.16108   0.24517   0.00000  Uiso   1.00
Cu134  Cu    0.89263   0.17225   0.25484   0.00000  Uiso   1.00
H135   H     0.67174   0.09945   0.02842   0.00000  Uiso   1.00
H136   H     0.99489   0.23396   0.47158   0.00000  Uiso   1.00
H137   H     0.97518   0.11716   0.46071   0.00000  Uiso   1.00
H138   H     0.69146   0.21628   0.03928   0.00000  Uiso   1.00
H139   H     0.90132   0.01322   0.25570   0.00000  Uiso   1.00
H140   H     0.76535   0.32011   0.24430   0.00000  Uiso   1.00
H141   H     0.66794   0.20565   0.28448   0.00000  Uiso   1.00
H142   H     0.99873   0.12769   0.21552   0.00000  Uiso   1.00
N143   N     0.98173   0.18068   0.26212   0.00000  Uiso   1.00
N144   N     0.68494   0.15265   0.23788   0.00000  Uiso   1.00
O145   O     0.79482   0.23809   0.24686   0.00000  Uiso   1.00
O146   O     0.87185   0.09524   0.25314   0.00000  Uiso   1.00
O147   O     0.89496   0.24753   0.25503   0.00000  Uiso   1.00
O148   O     0.77171   0.08580   0.24498   0.00000  Uiso   1.00
O149   O     0.75518   0.15930   0.30855   0.00000  Uiso   1.00
O150   O     0.91149   0.17403   0.19146   0.00000  Uiso   1.00
O151   O     0.85532   0.16874   0.31671   0.00000  Uiso   1.00
O152   O     0.81134   0.16460   0.18329   0.00000  Uiso   1.00
Br153  Br    0.79459   0.23024   0.11777   0.00000  Uiso   1.00
Br154  Br    0.87211   0.10313   0.38222   0.00000  Uiso   1.00
O155   O     0.66788   0.17767   0.11735   0.00000  Uiso   1.00
H156   H     0.98346   0.14484   0.13409   0.00000  Uiso   1.00
O157   O     0.99881   0.15576   0.38263   0.00000  Uiso   1.00
H158   H     0.68323   0.18861   0.36592   0.00000  Uiso   1.00
O159   O     0.75014   0.11009   0.08144   0.00000  Uiso   1.00
H160   H     0.70863   0.08569   0.08664   0.00000  Uiso   1.00
O161   O     0.91649   0.22328   0.41856   0.00000  Uiso   1.00
H162   H     0.95797   0.24775   0.41339   0.00000  Uiso   1.00
C163   C     0.18165   0.59993   0.25131   0.00000  Uiso   1.00
C164   C     0.15168   0.40007   0.24869   0.00000  Uiso   1.00
C165   C     0.09715   0.46395   0.04013   0.00000  Uiso   1.00
C166   C     0.23615   0.53608   0.45988   0.00000  Uiso   1.00
C167   C     0.05258   0.45265   0.01434   0.00000  Uiso   1.00
C168   C     0.28072   0.54741   0.48567   0.00000  Uiso   1.00
C169   C     0.18992   0.65602   0.25197   0.00000  Uiso   1.00
C170   C     0.14341   0.34398   0.24803   0.00000  Uiso   1.00
C171   C     0.12864   0.49480   0.33306   0.00000  Uiso   1.00
C172   C     0.20469   0.50520   0.16694   0.00000  Uiso   1.00
C173   C     0.10651   0.48743   0.38088   0.00000  Uiso   1.00
C174   C     0.22682   0.51258   0.11912   0.00000  Uiso   1.00
C175   C     0.02433   0.46282   0.44576   0.00000  Uiso   1.00
C176   C     0.30899   0.53726   0.05424   0.00000  Uiso   1.00
C177   C     0.04309   0.48059   0.40265   0.00000  Uiso   1.00
C178   C     0.29024   0.51949   0.09735   0.00000  Uiso   1.00
C179   C     0.14906   0.48216   0.40539   0.00000  Uiso   1.00
C180   C     0.18426   0.51784   0.09462   0.00000  Uiso   1.00
C181   C     0.13214   0.48617   0.45100   0.00000  Uiso   1.00
C182   C     0.20118   0.51385   0.04900   0.00000  Uiso   1.00
C183   C     0.06910   0.46711   0.47069   0.00000  Uiso   1.00
C184   C     0.26421   0.53295   0.02932   0.00000  Uiso   1.00
C185   C     0.17598   0.50484   0.47720   0.00000  Uiso   1.00
C186   C     0.15733   0.49518   0.02280   0.00000  Uiso   1.00
Cu187  Cu    0.10737   0.49441   0.24517   0.00000  Uiso   1.00
Cu188  Cu    0.22596   0.50559   0.25484   0.00000  Uiso   1.00
H189   H     0.00507   0.43279   0.02842   0.00000  Uiso   1.00
H190   H     0.32823   0.56729   0.47158   0.00000  Uiso   1.00
H191   H     0.30852   0.45050   0.46071   0.00000  Uiso   1.00
H192   H     0.02480   0.54961   0.03928   0.00000  Uiso   1.00
H193   H     0.23465   0.34656   0.25570   0.00000  Uiso   1.00
H194   H     0.09868   0.65344   0.24430   0.00000  Uiso   1.00
H195   H     0.00127   0.53898   0.28448   0.00000  Uiso   1.00
H196   H     0.33206   0.46102   0.21552   0.00000  Uiso   1.00
N197   N     0.31506   0.51401   0.26212   0.00000  Uiso   1.00
N198   N     0.01827   0.48599   0.23788   0.00000  Uiso   1.00
O199   O     0.12815   0.57142   0.24686   0.00000  Uiso   1.00
O200   O     0.20518   0.42858   0.25314   0.00000  Uiso   1.00
O201   O     0.22829   0.58086   0.25503   0.00000  Uiso   1.00
O202   O     0.10504   0.41914   0.24498   0.00000  Uiso   1.00
O203   O     0.08851   0.49263   0.30855   0.00000  Uiso   1.00
O204   O     0.24482   0.50737   0.19146   0.00000  Uiso   1.00
O205   O     0.18866   0.50207   0.31671   0.00000  Uiso   1.00
O206   O     0.14468   0.49793   0.18329   0.00000  Uiso   1.00
Br207  Br    0.12792   0.56357   0.11777   0.00000  Uiso   1.00
Br208  Br    0.20544   0.43646   0.38222   0.00000  Uiso   1.00
O209   O     0.00122   0.51100   0.11735   0.00000  Uiso   1.00
H210   H     0.31679   0.47817   0.13409   0.00000  Uiso   1.00
O211   O     0.33214   0.48909   0.38263   0.00000  Uiso   1.00
H212   H     0.01656   0.52194   0.36592   0.00000  Uiso   1.00
O213   O     0.08348   0.44342   0.08144   0.00000  Uiso   1.00
H214   H     0.04196   0.41902   0.08664   0.00000  Uiso   1.00
O215   O     0.24983   0.55661   0.41856   0.00000  Uiso   1.00
H216   H     0.29130   0.58109   0.41339   0.00000  Uiso   1.00
C217   C     0.51498   0.59993   0.25131   0.00000  Uiso   1.00
C218   C     0.48502   0.40007   0.24869   0.00000  Uiso   1.00
C219   C     0.43049   0.46395   0.04013   0.00000  Uiso   1.00
C220   C     0.56949   0.53608   0.45988   0.00000  Uiso   1.00
C221   C     0.38591   0.45265   0.01434   0.00000  Uiso   1.00
C222   C     0.61406   0.54741   0.48567   0.00000  Uiso   1.00
C223   C     0.52325   0.65602   0.25197   0.00000  Uiso   1.00
C224   C     0.47675   0.34398   0.24803   0.00000  Uiso   1.00
C225   C     0.46197   0.49480   0.33306   0.00000  Uiso   1.00
C226   C     0.53803   0.50520   0.16694   0.00000  Uiso   1.00
C227   C     0.43985   0.48743   0.38088   0.00000  Uiso   1.00
C228   C     0.56015   0.51258   0.11912   0.00000  Uiso   1.00
C229   C     0.35766   0.46282   0.44576   0.00000  Uiso   1.00
C230   C     0.64232   0.53726   0.05424   0.00000  Uiso   1.00
C231   C     0.37643   0.48059   0.40265   0.00000  Uiso   1.00
C232   C     0.62357   0.51949   0.09735   0.00000  Uiso   1.00
C233   C     0.48239   0.48216   0.40539   0.00000  Uiso   1.00
C234   C     0.51760   0.51784   0.09462   0.00000  Uiso   1.00
C235   C     0.46547   0.48617   0.45100   0.00000  Uiso   1.00
C236   C     0.53451   0.51385   0.04900   0.00000  Uiso   1.00
C237   C     0.40244   0.46711   0.47069   0.00000  Uiso   1.00
C238   C     0.59754   0.53295   0.02932   0.00000  Uiso   1.00
C239   C     0.50932   0.50484   0.47720   0.00000  Uiso   1.00
C240   C     0.49067   0.49518   0.02280   0.00000  Uiso   1.00
Cu241  Cu    0.44071   0.49441   0.24517   0.00000  Uiso   1.00
Cu242  Cu    0.55929   0.50559   0.25484   0.00000  Uiso   1.00
H243   H     0.33840   0.43279   0.02842   0.00000  Uiso   1.00
H244   H     0.66156   0.56729   0.47158   0.00000  Uiso   1.00
H245   H     0.64185   0.45050   0.46071   0.00000  Uiso   1.00
H246   H     0.35813   0.54961   0.03928   0.00000  Uiso   1.00
H247   H     0.56799   0.34656   0.25570   0.00000  Uiso   1.00
H248   H     0.43201   0.65344   0.24430   0.00000  Uiso   1.00
H249   H     0.33461   0.53898   0.28448   0.00000  Uiso   1.00
H250   H     0.66540   0.46102   0.21552   0.00000  Uiso   1.00
N251   N     0.64839   0.51401   0.26212   0.00000  Uiso   1.00
N252   N     0.35161   0.48599   0.23788   0.00000  Uiso   1.00
O253   O     0.46148   0.57142   0.24686   0.00000  Uiso   1.00
O254   O     0.53852   0.42858   0.25314   0.00000  Uiso   1.00
O255   O     0.56163   0.58086   0.25503   0.00000  Uiso   1.00
O256   O     0.43837   0.41914   0.24498   0.00000  Uiso   1.00
O257   O     0.42185   0.49263   0.30855   0.00000  Uiso   1.00
O258   O     0.57815   0.50737   0.19146   0.00000  Uiso   1.00
O259   O     0.52199   0.50207   0.31671   0.00000  Uiso   1.00
O260   O     0.47801   0.49793   0.18329   0.00000  Uiso   1.00
Br261  Br    0.46126   0.56357   0.11777   0.00000  Uiso   1.00
Br262  Br    0.53877   0.43646   0.38222   0.00000  Uiso   1.00
O263   O     0.33455   0.51100   0.11735   0.00000  Uiso   1.00
H264   H     0.65012   0.47817   0.13409   0.00000  Uiso   1.00
O265   O     0.66547   0.48909   0.38263   0.00000  Uiso   1.00
H266   H     0.34990   0.52194   0.36592   0.00000  Uiso   1.00
O267   O     0.41681   0.44342   0.08144   0.00000  Uiso   1.00
H268   H     0.37529   0.41902   0.08664   0.00000  Uiso   1.00
O269   O     0.58316   0.55661   0.41856   0.00000  Uiso   1.00
H270   H     0.62463   0.58109   0.41339   0.00000  Uiso   1.00
C271   C     0.84832   0.59993   0.25131   0.00000  Uiso   1.00
C272   C     0.81835   0.40007   0.24869   0.00000  Uiso   1.00
C273   C     0.76382   0.46395   0.04013   0.00000  Uiso   1.00
C274   C     0.90282   0.53608   0.45988   0.00000  Uiso   1.00
C275   C     0.71925   0.45265   0.01434   0.00000  Uiso   1.00
C276   C     0.94739   0.54741   0.48567   0.00000  Uiso   1.00
C277   C     0.85659   0.65602   0.25197   0.00000  Uiso   1.00
C278   C     0.81008   0.34398   0.24803   0.00000  Uiso   1.00
C279   C     0.79531   0.49480   0.33306   0.00000  Uiso   1.00
C280   C     0.87136   0.50520   0.16694   0.00000  Uiso   1.00
C281   C     0.77318   0.48743   0.38088   0.00000  Uiso   1.00
C282   C     0.89349   0.51258   0.11912   0.00000  Uiso   1.00
C283   C     0.69099   0.46282   0.44576   0.00000  Uiso   1.00
C284   C     0.97565   0.53726   0.05424   0.00000  Uiso   1.00
C285   C     0.70976   0.48059   0.40265   0.00000  Uiso   1.00
C286   C     0.95690   0.51949   0.09735   0.00000  Uiso   1.00
C287   C     0.81572   0.48216   0.40539   0.00000  Uiso   1.00
C288   C     0.85093   0.51784   0.09462   0.00000  Uiso   1.00
C289   C     0.79881   0.48617   0.45100   0.00000  Uiso   1.00
C290   C     0.86785   0.51385   0.04900   0.00000  Uiso   1.00
C291   C     0.73577   0.46711   0.47069   0.00000  Uiso   1.00
C292   C     0.93088   0.53295   0.02932   0.00000  Uiso   1.00
C293   C     0.84265   0.50484   0.47720   0.00000  Uiso   1.00
C294   C     0.82400   0.49518   0.02280   0.00000  Uiso   1.00
Cu295  Cu    0.77404   0.49441   0.24517   0.00000  Uiso   1.00
Cu296  Cu    0.89263   0.50559   0.25484   0.00000  Uiso   1.00
H297   H     0.67174   0.43279   0.02842   0.00000  Uiso   1.00
H298   H     0.99489   0.56729   0.47158   0.00000  Uiso   1.00
H299   H     0.97518   0.45050   0.46071   0.00000  Uiso   1.00
H300   H     0.69146   0.54961   0.03928   0.00000  Uiso   1.00
H301   H     0.90132   0.34656   0.25570   0.00000  Uiso   1.00
H302   H     0.76535   0.65344   0.24430   0.00000  Uiso   1.00
H303   H     0.66794   0.53898   0.28448   0.00000  Uiso   1.00
H304   H     0.99873   0.46102   0.21552   0.00000  Uiso   1.00
N305   N     0.98173   0.51401   0.26212   0.00000  Uiso   1.00
N306   N     0.68494   0.48599   0.23788   0.00000  Uiso   1.00
O307   O     0.79482   0.57142   0.24686   0.00000  Uiso   1.00
O308   O     0.87185   0.42858   0.25314   0.00000  Uiso   1.00
O309   O     0.89496   0.58086   0.25503   0.00000  Uiso   1.00
O310   O     0.77171   0.41914   0.24498   0.00000  Uiso   1.00
O311   O     0.75518   0.49263   0.30855   0.00000  Uiso   1.00
O312   O     0.91149   0.50737   0.19146   0.00000  Uiso   1.00
O313   O     0.85532   0.50207   0.31671   0.00000  Uiso   1.00
O314   O     0.81134   0.49793   0.18329   0.00000  Uiso   1.00
Br315  Br    0.79459   0.56357   0.11777   0.00000  Uiso   1.00
Br316  Br    0.87211   0.43646   0.38222   0.00000  Uiso   1.00
O317   O     0.66788   0.51100   0.11735   0.00000  Uiso   1.00
H318   H     0.98346   0.47817   0.13409   0.00000  Uiso   1.00
O319   O     0.99881   0.48909   0.38263   0.00000  Uiso   1.00
H320   H     0.68323   0.52194   0.36592   0.00000  Uiso   1.00
O321   O     0.75014   0.44342   0.08144   0.00000  Uiso   1.00
H322   H     0.70863   0.41902   0.08664   0.00000  Uiso   1.00
O323   O     0.91649   0.55661   0.41856   0.00000  Uiso   1.00
H324   H     0.95797   0.58109   0.41339   0.00000  Uiso   1.00
C325   C     0.18165   0.93327   0.25131   0.00000  Uiso   1.00
C326   C     0.15168   0.73340   0.24869   0.00000  Uiso   1.00
C327   C     0.09715   0.79728   0.04013   0.00000  Uiso   1.00
C328   C     0.23615   0.86942   0.45988   0.00000  Uiso   1.00
C329   C     0.05258   0.78598   0.01434   0.00000  Uiso   1.00
C330   C     0.28072   0.88075   0.48567   0.00000  Uiso   1.00
C331   C     0.18992   0.98935   0.25197   0.00000  Uiso   1.00
C332   C     0.14341   0.67731   0.24803   0.00000  Uiso   1.00
C333   C     0.12864   0.82813   0.33306   0.00000  Uiso   1.00
C334   C     0.20469   0.83854   0.16694   0.00000  Uiso   1.00
C335   C     0.10651   0.82077   0.38088   0.00000  Uiso   1.00
C336   C     0.22682   0.84591   0.11912   0.00000  Uiso   1.00
C337   C     0.02433   0.79615   0.44576   0.00000  Uiso   1.00
C338   C     0.30899   0.87059   0.05424   0.00000  Uiso   1.00
C339   C     0.04309   0.81392   0.40265   0.00000  Uiso   1.00
C340   C     0.29024   0.85282   0.09735   0.00000  Uiso   1.00
C341   C     0.14906   0.81549   0.40539   0.00000  Uiso   1.00
C342   C     0.18426   0.85118   0.09462   0.00000  Uiso   1.00
C343   C     0.13214   0.81950   0.45100   0.00000  Uiso   1.00
C344   C     0.20118   0.84718   0.04900   0.00000  Uiso   1.00
C345   C     0.06910   0.80044   0.47069   0.00000  Uiso   1.00
C346   C     0.26421   0.86628   0.02932   0.00000  Uiso   1.00
C347   C     0.17598   0.83817   0.47720   0.00000  Uiso   1.00
C348   C     0.15733   0.82851   0.02280   0.00000  Uiso   1.00
Cu349  Cu    0.10737   0.82775   0.24517   0.00000  Uiso   1.00
Cu350  Cu    0.22596   0.83892   0.25484   0.00000  Uiso   1.00
H351   H     0.00507   0.76612   0.02842   0.00000  Uiso   1.00
H352   H     0.32823   0.90063   0.47158   0.00000  Uiso   1.00
H353   H     0.30852   0.78383   0.46071   0.00000  Uiso   1.00
H354   H     0.02480   0.88295   0.03928   0.00000  Uiso   1.00
H355   H     0.23465   0.67989   0.25570   0.00000  Uiso   1.00
H356   H     0.09868   0.98678   0.24430   0.00000  Uiso   1.00
H357   H     0.00127   0.87232   0.28448   0.00000  Uiso   1.00
H358   H     0.33206   0.79435   0.21552   0.00000  Uiso   1.00
N359   N     0.31506   0.84735   0.26212   0.00000  Uiso   1.00
N360   N     0.01827   0.81932   0.23788   0.00000  Uiso   1.00
O361   O     0.12815   0.90476   0.24686   0.00000  Uiso   1.00
O362   O     0.20518   0.76191   0.25314   0.00000  Uiso   1.00
O363   O     0.22829   0.91420   0.25503   0.00000  Uiso   1.00
O364   O     0.10504   0.75247   0.24498   0.00000  Uiso   1.00
O365   O     0.08851   0.82597   0.30855   0.00000  Uiso   1.00
O366   O     0.24482   0.84070   0.19146   0.00000  Uiso   1.00
O367   O     0.18866   0.83540   0.31671   0.00000  Uiso   1.00
O368   O     0.14468   0.83126   0.18329   0.00000  Uiso   1.00
Br369  Br    0.12792   0.89691   0.11777   0.00000  Uiso   1.00
Br370  Br    0.20544   0.76979   0.38222   0.00000  Uiso   1.00
O371   O     0.00122   0.84434   0.11735   0.00000  Uiso   1.00
H372   H     0.31679   0.81150   0.13409   0.00000  Uiso   1.00
O373   O     0.33214   0.82242   0.38263   0.00000  Uiso   1.00
H374   H     0.01656   0.85527   0.36592   0.00000  Uiso   1.00
O375   O     0.08348   0.77675   0.08144   0.00000  Uiso   1.00
H376   H     0.04196   0.75235   0.08664   0.00000  Uiso   1.00
O377   O     0.24983   0.88994   0.41856   0.00000  Uiso   1.00
H378   H     0.29130   0.91442   0.41339   0.00000  Uiso   1.00
C379   C     0.51498   0.93327   0.25131   0.00000  Uiso   1.00
C380   C     0.48502   0.73340   0.24869   0.00000  Uiso   1.00
C381   C     0.43049   0.79728   0.04013   0.00000  Uiso   1.00
C382   C     0.56949   0.86942   0.45988   0.00000  Uiso   1.00
C383   C     0.38591   0.78598   0.01434   0.00000  Uiso   1.00
C384   C     0.61406   0.88075   0.48567   0.00000  Uiso   1.00
C385   C     0.52325   0.98935   0.25197   0.00000  Uiso   1.00
C386   C     0.47675   0.67731   0.24803   0.00000  Uiso   1.00
C387   C     0.46197   0.82813   0.33306   0.00000  Uiso   1.00
C388   C     0.53803   0.83854   0.16694   0.00000  Uiso   1.00
C389   C     0.43985   0.82077   0.38088   0.00000  Uiso   1.00
C390   C     0.56015   0.84591   0.11912   0.00000  Uiso   1.00
C391   C     0.35766   0.79615   0.44576   0.00000  Uiso   1.00
C392   C     0.64232   0.87059   0.05424   0.00000  Uiso   1.00
C393   C     0.37643   0.81392   0.40265   0.00000  Uiso   1.00
C394   C     0.62357   0.85282   0.09735   0.00000  Uiso   1.00
C395   C     0.48239   0.81549   0.40539   0.00000  Uiso   1.00
C396   C     0.51760   0.85118   0.09462   0.00000  Uiso   1.00
C397   C     0.46547   0.81950   0.45100   0.00000  Uiso   1.00
C398   C     0.53451   0.84718   0.04900   0.00000  Uiso   1.00
C399   C     0.40244   0.80044   0.47069   0.00000  Uiso   1.00
C400   C     0.59754   0.86628   0.02932   0.00000  Uiso   1.00
C401   C     0.50932   0.83817   0.47720   0.00000  Uiso   1.00
C402   C     0.49067   0.82851   0.02280   0.00000  Uiso   1.00
Cu403  Cu    0.44071   0.82775   0.24517   0.00000  Uiso   1.00
Cu404  Cu    0.55929   0.83892   0.25484   0.00000  Uiso   1.00
H405   H     0.33840   0.76612   0.02842   0.00000  Uiso   1.00
H406   H     0.66156   0.90063   0.47158   0.00000  Uiso   1.00
H407   H     0.64185   0.78383   0.46071   0.00000  Uiso   1.00
H408   H     0.35813   0.88295   0.03928   0.00000  Uiso   1.00
H409   H     0.56799   0.67989   0.25570   0.00000  Uiso   1.00
H410   H     0.43201   0.98678   0.24430   0.00000  Uiso   1.00
H411   H     0.33461   0.87232   0.28448   0.00000  Uiso   1.00
H412   H     0.66540   0.79435   0.21552   0.00000  Uiso   1.00
N413   N     0.64839   0.84735   0.26212   0.00000  Uiso   1.00
N414   N     0.35161   0.81932   0.23788   0.00000  Uiso   1.00
O415   O     0.46148   0.90476   0.24686   0.00000  Uiso   1.00
O416   O     0.53852   0.76191   0.25314   0.00000  Uiso   1.00
O417   O     0.56163   0.91420   0.25503   0.00000  Uiso   1.00
O418   O     0.43837   0.75247   0.24498   0.00000  Uiso   1.00
O419   O     0.42185   0.82597   0.30855   0.00000  Uiso   1.00
O420   O     0.57815   0.84070   0.19146   0.00000  Uiso   1.00
O421   O     0.52199   0.83540   0.31671   0.00000  Uiso   1.00
O422   O     0.47801   0.83126   0.18329   0.00000  Uiso   1.00
Br423  Br    0.46126   0.89691   0.11777   0.00000  Uiso   1.00
Br424  Br    0.53877   0.76979   0.38222   0.00000  Uiso   1.00
O425   O     0.33455   0.84434   0.11735   0.00000  Uiso   1.00
H426   H     0.65012   0.81150   0.13409   0.00000  Uiso   1.00
O427   O     0.66547   0.82242   0.38263   0.00000  Uiso   1.00
H428   H     0.34990   0.85527   0.36592   0.00000  Uiso   1.00
O429   O     0.41681   0.77675   0.08144   0.00000  Uiso   1.00
H430   H     0.37529   0.75235   0.08664   0.00000  Uiso   1.00
O431   O     0.58316   0.88994   0.41856   0.00000  Uiso   1.00
H432   H     0.62463   0.91442   0.41339   0.00000  Uiso   1.00
C433   C     0.84832   0.93327   0.25131   0.00000  Uiso   1.00
C434   C     0.81835   0.73340   0.24869   0.00000  Uiso   1.00
C435   C     0.76382   0.79728   0.04013   0.00000  Uiso   1.00
C436   C     0.90282   0.86942   0.45988   0.00000  Uiso   1.00
C437   C     0.71925   0.78598   0.01434   0.00000  Uiso   1.00
C438   C     0.94739   0.88075   0.48567   0.00000  Uiso   1.00
C439   C     0.85659   0.98935   0.25197   0.00000  Uiso   1.00
C440   C     0.81008   0.67731   0.24803   0.00000  Uiso   1.00
C441   C     0.79531   0.82813   0.33306   0.00000  Uiso   1.00
C442   C     0.87136   0.83854   0.16694   0.00000  Uiso   1.00
C443   C     0.77318   0.82077   0.38088   0.00000  Uiso   1.00
C444   C     0.89349   0.84591   0.11912   0.00000  Uiso   1.00
C445   C     0.69099   0.79615   0.44576   0.00000  Uiso   1.00
C446   C     0.97565   0.87059   0.05424   0.00000  Uiso   1.00
C447   C     0.70976   0.81392   0.40265   0.00000  Uiso   1.00
C448   C     0.95690   0.85282   0.09735   0.00000  Uiso   1.00
C449   C     0.81572   0.81549   0.40539   0.00000  Uiso   1.00
C450   C     0.85093   0.85118   0.09462   0.00000  Uiso   1.00
C451   C     0.79881   0.81950   0.45100   0.00000  Uiso   1.00
C452   C     0.86785   0.84718   0.04900   0.00000  Uiso   1.00
C453   C     0.73577   0.80044   0.47069   0.00000  Uiso   1.00
C454   C     0.93088   0.86628   0.02932   0.00000  Uiso   1.00
C455   C     0.84265   0.83817   0.47720   0.00000  Uiso   1.00
C456   C     0.82400   0.82851   0.02280   0.00000  Uiso   1.00
Cu457  Cu    0.77404   0.82775   0.24517   0.00000  Uiso   1.00
Cu458  Cu    0.89263   0.83892   0.25484   0.00000  Uiso   1.00
H459   H     0.67174   0.76612   0.02842   0.00000  Uiso   1.00
H460   H     0.99489   0.90063   0.47158   0.00000  Uiso   1.00
H461   H     0.97518   0.78383   0.46071   0.00000  Uiso   1.00
H462   H     0.69146   0.88295   0.03928   0.00000  Uiso   1.00
H463   H     0.90132   0.67989   0.25570   0.00000  Uiso   1.00
H464   H     0.76535   0.98678   0.24430   0.00000  Uiso   1.00
H465   H     0.66794   0.87232   0.28448   0.00000  Uiso   1.00
H466   H     0.99873   0.79435   0.21552   0.00000  Uiso   1.00
N467   N     0.98173   0.84735   0.26212   0.00000  Uiso   1.00
N468   N     0.68494   0.81932   0.23788   0.00000  Uiso   1.00
O469   O     0.79482   0.90476   0.24686   0.00000  Uiso   1.00
O470   O     0.87185   0.76191   0.25314   0.00000  Uiso   1.00
O471   O     0.89496   0.91420   0.25503   0.00000  Uiso   1.00
O472   O     0.77171   0.75247   0.24498   0.00000  Uiso   1.00
O473   O     0.75518   0.82597   0.30855   0.00000  Uiso   1.00
O474   O     0.91149   0.84070   0.19146   0.00000  Uiso   1.00
O475   O     0.85532   0.83540   0.31671   0.00000  Uiso   1.00
O476   O     0.81134   0.83126   0.18329   0.00000  Uiso   1.00
Br477  Br    0.79459   0.89691   0.11777   0.00000  Uiso   1.00
Br478  Br    0.87211   0.76979   0.38222   0.00000  Uiso   1.00
O479   O     0.66788   0.84434   0.11735   0.00000  Uiso   1.00
H480   H     0.98346   0.81150   0.13409   0.00000  Uiso   1.00
O481   O     0.99881   0.82242   0.38263   0.00000  Uiso   1.00
H482   H     0.68323   0.85527   0.36592   0.00000  Uiso   1.00
O483   O     0.75014   0.77675   0.08144   0.00000  Uiso   1.00
H484   H     0.70863   0.75235   0.08664   0.00000  Uiso   1.00
O485   O     0.91649   0.88994   0.41856   0.00000  Uiso   1.00
H486   H     0.95797   0.91442   0.41339   0.00000  Uiso   1.00
C487   C     0.18165   0.26660   0.75131   0.00000  Uiso   1.00
C488   C     0.15168   0.06674   0.74869   0.00000  Uiso   1.00
C489   C     0.09715   0.13062   0.54013   0.00000  Uiso   1.00
C490   C     0.23615   0.20275   0.95988   0.00000  Uiso   1.00
C491   C     0.05258   0.11931   0.51434   0.00000  Uiso   1.00
C492   C     0.28072   0.21408   0.98567   0.00000  Uiso   1.00
C493   C     0.18992   0.32269   0.75197   0.00000  Uiso   1.00
C494   C     0.14341   0.01065   0.74803   0.00000  Uiso   1.00
C495   C     0.12864   0.16146   0.83306   0.00000  Uiso   1.00
C496   C     0.20469   0.17187   0.66694   0.00000  Uiso   1.00
C497   C     0.10651   0.15410   0.88088   0.00000  Uiso   1.00
C498   C     0.22682   0.17925   0.61912   0.00000  Uiso   1.00
C499   C     0.02433   0.12949   0.94576   0.00000  Uiso   1.00
C500   C     0.30899   0.20393   0.55424   0.00000  Uiso   1.00
C501   C     0.04309   0.14725   0.90265   0.00000  Uiso   1.00
C502   C     0.29024   0.18615   0.59735   0.00000  Uiso   1.00
C503   C     0.14906   0.14883   0.90539   0.00000  Uiso   1.00
C504   C     0.18426   0.18451   0.59462   0.00000  Uiso   1.00
C505   C     0.13214   0.15284   0.95100   0.00000  Uiso   1.00
C506   C     0.20118   0.18051   0.54900   0.00000  Uiso   1.00
C507   C     0.06910   0.13377   0.97069   0.00000  Uiso   1.00
C508   C     0.26421   0.19961   0.52932   0.00000  Uiso   1.00
C509   C     0.17598   0.17151   0.97720   0.00000  Uiso   1.00
C510   C     0.15733   0.16184   0.52280   0.00000  Uiso   1.00
Cu511  Cu    0.10737   0.16108   0.74517   0.00000  Uiso   1.00
Cu512  Cu    0.22596   0.17225   0.75484   0.00000  Uiso   1.00
H513   H     0.00507   0.09945   0.52842   0.00000  Uiso   1.00
H514   H     0.32823   0.23396   0.97158   0.00000  Uiso   1.00
H515   H     0.30852   0.11716   0.96071   0.00000  Uiso   1.00
H516   H     0.02480   0.21628   0.53928   0.00000  Uiso   1.00
H517   H     0.23465   0.01322   0.75570   0.00000  Uiso   1.00
H518   H     0.09868   0.32011   0.74430   0.00000  Uiso   1.00
H519   H     0.00127   0.20565   0.78448   0.00000  Uiso   1.00
H520   H     0.33206   0.12769   0.71552   0.00000  Uiso   1.00
N521   N     0.31506   0.18068   0.76212   0.00000  Uiso   1.00
N522   N     0.01827   0.15265   0.73788   0.00000  Uiso   1.00
O523   O     0.12815   0.23809   0.74686   0.00000  Uiso   1.00
O524   O     0.20518   0.09524   0.75314   0.00000  Uiso   1.00
O525   O     0.22829   0.24753   0.75503   0.00000  Uiso   1.00
O526   O     0.10504   0.08580   0.74498   0.00000  Uiso   1.00
O527   O     0.08851   0.15930   0.80855   0.00000  Uiso   1.00
O528   O     0.24482   0.17403   0.69146   0.00000  Uiso   1.00
O529   O     0.18866   0.16874   0.81671   0.00000  Uiso   1.00
O530   O     0.14468   0.16460   0.68329   0.00000  Uiso   1.00
Br531  Br    0.12792   0.23024   0.61777   0.00000  Uiso   1.00
Br532  Br    0.20544   0.10313   0.88222   0.00000  Uiso   1.00
O533   O     0.00122   0.17767   0.61735   0.00000  Uiso   1.00
H534   H     0.31679   0.14484   0.63409   0.00000  Uiso   1.00
O535   O     0.33214   0.15576   0.88263   0.00000  Uiso   1.00
H536   H     0.01656   0.18861   0.86592   0.00000  Uiso   1.00
O537   O     0.08348   0.11009   0.58144   0.00000  Uiso   1.00
H538   H     0.04196   0.08569   0.58664   0.00000  Uiso   1.00
O539   O     0.24983   0.22328   0.91856   0.00000  Uiso   1.00
H540   H     0.29130   0.24775   0.91339   0.00000  Uiso   1.00
C541   C     0.51498   0.26660   0.75131   0.00000  Uiso   1.00
C542   C     0.48502   0.06674   0.74869   0.00000  Uiso   1.00
C543   C     0.43049   0.13062   0.54013   0.00000  Uiso   1.00
C544   C     0.56949   0.20275   0.95988   0.00000  Uiso   1.00
C545   C     0.38591   0.11931   0.51434   0.00000  Uiso   1.00
C546   C     0.61406   0.21408   0.98567   0.00000  Uiso   1.00
C547   C     0.52325   0.32269   0.75197   0.00000  Uiso   1.00
C548   C     0.47675   0.01065   0.74803   0.00000  Uiso   1.00
C549   C     0.46197   0.16146   0.83306   0.00000  Uiso   1.00
C550   C     0.53803   0.17187   0.66694   0.00000  Uiso   1.00
C551   C     0.43985   0.15410   0.88088   0.00000  Uiso   1.00
C552   C     0.56015   0.17925   0.61912   0.00000  Uiso   1.00
C553   C     0.35766   0.12949   0.94576   0.00000  Uiso   1.00
C554   C     0.64232   0.20393   0.55424   0.00000  Uiso   1.00
C555   C     0.37643   0.14725   0.90265   0.00000  Uiso   1.00
C556   C     0.62357   0.18615   0.59735   0.00000  Uiso   1.00
C557   C     0.48239   0.14883   0.90539   0.00000  Uiso   1.00
C558   C     0.51760   0.18451   0.59462   0.00000  Uiso   1.00
C559   C     0.46547   0.15284   0.95100   0.00000  Uiso   1.00
C560   C     0.53451   0.18051   0.54900   0.00000  Uiso   1.00
C561   C     0.40244   0.13377   0.97069   0.00000  Uiso   1.00
C562   C     0.59754   0.19961   0.52932   0.00000  Uiso   1.00
C563   C     0.50932   0.17151   0.97720   0.00000  Uiso   1.00
C564   C     0.49067   0.16184   0.52280   0.00000  Uiso   1.00
Cu565  Cu    0.44071   0.16108   0.74517   0.00000  Uiso   1.00
Cu566  Cu    0.55929   0.17225   0.75484   0.00000  Uiso   1.00
H567   H     0.33840   0.09945   0.52842   0.00000  Uiso   1.00
H568   H     0.66156   0.23396   0.97158   0.00000  Uiso   1.00
H569   H     0.64185   0.11716   0.96071   0.00000  Uiso   1.00
H570   H     0.35813   0.21628   0.53928   0.00000  Uiso   1.00
H571   H     0.56799   0.01322   0.75570   0.00000  Uiso   1.00
H572   H     0.43201   0.32011   0.74430   0.00000  Uiso   1.00
H573   H     0.33461   0.20565   0.78448   0.00000  Uiso   1.00
H574   H     0.66540   0.12769   0.71552   0.00000  Uiso   1.00
N575   N     0.64839   0.18068   0.76212   0.00000  Uiso   1.00
N576   N     0.35161   0.15265   0.73788   0.00000  Uiso   1.00
O577   O     0.46148   0.23809   0.74686   0.00000  Uiso   1.00
O578   O     0.53852   0.09524   0.75314   0.00000  Uiso   1.00
O579   O     0.56163   0.24753   0.75503   0.00000  Uiso   1.00
O580   O     0.43837   0.08580   0.74498   0.00000  Uiso   1.00
O581   O     0.42185   0.15930   0.80855   0.00000  Uiso   1.00
O582   O     0.57815   0.17403   0.69146   0.00000  Uiso   1.00
O583   O     0.52199   0.16874   0.81671   0.00000  Uiso   1.00
O584   O     0.47801   0.16460   0.68329   0.00000  Uiso   1.00
Br585  Br    0.46126   0.23024   0.61777   0.00000  Uiso   1.00
Br586  Br    0.53877   0.10313   0.88222   0.00000  Uiso   1.00
O587   O     0.33455   0.17767   0.61735   0.00000  Uiso   1.00
H588   H     0.65012   0.14484   0.63409   0.00000  Uiso   1.00
O589   O     0.66547   0.15576   0.88263   0.00000  Uiso   1.00
H590   H     0.34990   0.18861   0.86592   0.00000  Uiso   1.00
O591   O     0.41681   0.11009   0.58144   0.00000  Uiso   1.00
H592   H     0.37529   0.08569   0.58664   0.00000  Uiso   1.00
O593   O     0.58316   0.22328   0.91856   0.00000  Uiso   1.00
H594   H     0.62463   0.24775   0.91339   0.00000  Uiso   1.00
C595   C     0.84832   0.26660   0.75131   0.00000  Uiso   1.00
C596   C     0.81835   0.06674   0.74869   0.00000  Uiso   1.00
C597   C     0.76382   0.13062   0.54013   0.00000  Uiso   1.00
C598   C     0.90282   0.20275   0.95988   0.00000  Uiso   1.00
C599   C     0.71925   0.11931   0.51434   0.00000  Uiso   1.00
C600   C     0.94739   0.21408   0.98567   0.00000  Uiso   1.00
C601   C     0.85659   0.32269   0.75197   0.00000  Uiso   1.00
C602   C     0.81008   0.01065   0.74803   0.00000  Uiso   1.00
C603   C     0.79531   0.16146   0.83306   0.00000  Uiso   1.00
C604   C     0.87136   0.17187   0.66694   0.00000  Uiso   1.00
C605   C     0.77318   0.15410   0.88088   0.00000  Uiso   1.00
C606   C     0.89349   0.17925   0.61912   0.00000  Uiso   1.00
C607   C     0.69099   0.12949   0.94576   0.00000  Uiso   1.00
C608   C     0.97565   0.20393   0.55424   0.00000  Uiso   1.00
C609   C     0.70976   0.14725   0.90265   0.00000  Uiso   1.00
C610   C     0.95690   0.18615   0.59735   0.00000  Uiso   1.00
C611   C     0.81572   0.14883   0.90539   0.00000  Uiso   1.00
C612   C     0.85093   0.18451   0.59462   0.00000  Uiso   1.00
C613   C     0.79881   0.15284   0.95100   0.00000  Uiso   1.00
C614   C     0.86785   0.18051   0.54900   0.00000  Uiso   1.00
C615   C     0.73577   0.13377   0.97069   0.00000  Uiso   1.00
C616   C     0.93088   0.19961   0.52932   0.00000  Uiso   1.00
C617   C     0.84265   0.17151   0.97720   0.00000  Uiso   1.00
C618   C     0.82400   0.16184   0.52280   0.00000  Uiso   1.00
Cu619  Cu    0.77404   0.16108   0.74517   0.00000  Uiso   1.00
Cu620  Cu    0.89263   0.17225   0.75484   0.00000  Uiso   1.00
H621   H     0.67174   0.09945   0.52842   0.00000  Uiso   1.00
H622   H     0.99489   0.23396   0.97158   0.00000  Uiso   1.00
H623   H     0.97518   0.11716   0.96071   0.00000  Uiso   1.00
H624   H     0.69146   0.21628   0.53928   0.00000  Uiso   1.00
H625   H     0.90132   0.01322   0.75570   0.00000  Uiso   1.00
H626   H     0.76535   0.32011   0.74430   0.00000  Uiso   1.00
H627   H     0.66794   0.20565   0.78448   0.00000  Uiso   1.00
H628   H     0.99873   0.12769   0.71552   0.00000  Uiso   1.00
N629   N     0.98173   0.18068   0.76212   0.00000  Uiso   1.00
N630   N     0.68494   0.15265   0.73788   0.00000  Uiso   1.00
O631   O     0.79482   0.23809   0.74686   0.00000  Uiso   1.00
O632   O     0.87185   0.09524   0.75314   0.00000  Uiso   1.00
O633   O     0.89496   0.24753   0.75503   0.00000  Uiso   1.00
O634   O     0.77171   0.08580   0.74498   0.00000  Uiso   1.00
O635   O     0.75518   0.15930   0.80855   0.00000  Uiso   1.00
O636   O     0.91149   0.17403   0.69146   0.00000  Uiso   1.00
O637   O     0.85532   0.16874   0.81671   0.00000  Uiso   1.00
O638   O     0.81134   0.16460   0.68329   0.00000  Uiso   1.00
Br639  Br    0.79459   0.23024   0.61777   0.00000  Uiso   1.00
Br640  Br    0.87211   0.10313   0.88222   0.00000  Uiso   1.00
O641   O     0.66788   0.17767   0.61735   0.00000  Uiso   1.00
H642   H     0.98346   0.14484   0.63409   0.00000  Uiso   1.00
O643   O     0.99881   0.15576   0.88263   0.00000  Uiso   1.00
H644   H     0.68323   0.18861   0.86592   0.00000  Uiso   1.00
O645   O     0.75014   0.11009   0.58144   0.00000  Uiso   1.00
H646   H     0.70863   0.08569   0.58664   0.00000  Uiso   1.00
O647   O     0.91649   0.22328   0.91856   0.00000  Uiso   1.00
H648   H     0.95797   0.24775   0.91339   0.00000  Uiso   1.00
C649   C     0.18165   0.59993   0.75131   0.00000  Uiso   1.00
C650   C     0.15168   0.40007   0.74869   0.00000  Uiso   1.00
C651   C     0.09715   0.46395   0.54013   0.00000  Uiso   1.00
C652   C     0.23615   0.53608   0.95988   0.00000  Uiso   1.00
C653   C     0.05258   0.45265   0.51434   0.00000  Uiso   1.00
C654   C     0.28072   0.54741   0.98567   0.00000  Uiso   1.00
C655   C     0.18992   0.65602   0.75197   0.00000  Uiso   1.00
C656   C     0.14341   0.34398   0.74803   0.00000  Uiso   1.00
C657   C     0.12864   0.49480   0.83306   0.00000  Uiso   1.00
C658   C     0.20469   0.50520   0.66694   0.00000  Uiso   1.00
C659   C     0.10651   0.48743   0.88088   0.00000  Uiso   1.00
C660   C     0.22682   0.51258   0.61912   0.00000  Uiso   1.00
C661   C     0.02433   0.46282   0.94576   0.00000  Uiso   1.00
C662   C     0.30899   0.53726   0.55424   0.00000  Uiso   1.00
C663   C     0.04309   0.48059   0.90265   0.00000  Uiso   1.00
C664   C     0.29024   0.51949   0.59735   0.00000  Uiso   1.00
C665   C     0.14906   0.48216   0.90539   0.00000  Uiso   1.00
C666   C     0.18426   0.51784   0.59462   0.00000  Uiso   1.00
C667   C     0.13214   0.48617   0.95100   0.00000  Uiso   1.00
C668   C     0.20118   0.51385   0.54900   0.00000  Uiso   1.00
C669   C     0.06910   0.46711   0.97069   0.00000  Uiso   1.00
C670   C     0.26421   0.53295   0.52932   0.00000  Uiso   1.00
C671   C     0.17598   0.50484   0.97720   0.00000  Uiso   1.00
C672   C     0.15733   0.49518   0.52280   0.00000  Uiso   1.00
Cu673  Cu    0.10737   0.49441   0.74517   0.00000  Uiso   1.00
Cu674  Cu    0.22596   0.50559   0.75484   0.00000  Uiso   1.00
H675   H     0.00507   0.43279   0.52842   0.00000  Uiso   1.00
H676   H     0.32823   0.56729   0.97158   0.00000  Uiso   1.00
H677   H     0.30852   0.45050   0.96071   0.00000  Uiso   1.00
H678   H     0.02480   0.54961   0.53928   0.00000  Uiso   1.00
H679   H     0.23465   0.34656   0.75570   0.00000  Uiso   1.00
H680   H     0.09868   0.65344   0.74430   0.00000  Uiso   1.00
H681   H     0.00127   0.53898   0.78448   0.00000  Uiso   1.00
H682   H     0.33206   0.46102   0.71552   0.00000  Uiso   1.00
N683   N     0.31506   0.51401   0.76212   0.00000  Uiso   1.00
N684   N     0.01827   0.48599   0.73788   0.00000  Uiso   1.00
O685   O     0.12815   0.57142   0.74686   0.00000  Uiso   1.00
O686   O     0.20518   0.42858   0.75314   0.00000  Uiso   1.00
O687   O     0.22829   0.58086   0.75503   0.00000  Uiso   1.00
O688   O     0.10504   0.41914   0.74498   0.00000  Uiso   1.00
O689   O     0.08851   0.49263   0.80855   0.00000  Uiso   1.00
O690   O     0.24482   0.50737   0.69146   0.00000  Uiso   1.00
O691   O     0.18866   0.50207   0.81671   0.00000  Uiso   1.00
O692   O     0.14468   0.49793   0.68329   0.00000  Uiso   1.00
Br693  Br    0.12792   0.56357   0.61777   0.00000  Uiso   1.00
Br694  Br    0.20544   0.43646   0.88222   0.00000  Uiso   1.00
O695   O     0.00122   0.51100   0.61735   0.00000  Uiso   1.00
H696   H     0.31679   0.47817   0.63409   0.00000  Uiso   1.00
O697   O     0.33214   0.48909   0.88263   0.00000  Uiso   1.00
H698   H     0.01656   0.52194   0.86592   0.00000  Uiso   1.00
O699   O     0.08348   0.44342   0.58144   0.00000  Uiso   1.00
H700   H     0.04196   0.41902   0.58664   0.00000  Uiso   1.00
O701   O     0.24983   0.55661   0.91856   0.00000  Uiso   1.00
H702   H     0.29130   0.58109   0.91339   0.00000  Uiso   1.00
C703   C     0.51498   0.59993   0.75131   0.00000  Uiso   1.00
C704   C     0.48502   0.40007   0.74869   0.00000  Uiso   1.00
C705   C     0.43049   0.46395   0.54013   0.00000  Uiso   1.00
C706   C     0.56949   0.53608   0.95988   0.00000  Uiso   1.00
C707   C     0.38591   0.45265   0.51434   0.00000  Uiso   1.00
C708   C     0.61406   0.54741   0.98567   0.00000  Uiso   1.00
C709   C     0.52325   0.65602   0.75197   0.00000  Uiso   1.00
C710   C     0.47675   0.34398   0.74803   0.00000  Uiso   1.00
C711   C     0.46197   0.49480   0.83306   0.00000  Uiso   1.00
C712   C     0.53803   0.50520   0.66694   0.00000  Uiso   1.00
C713   C     0.43985   0.48743   0.88088   0.00000  Uiso   1.00
C714   C     0.56015   0.51258   0.61912   0.00000  Uiso   1.00
C715   C     0.35766   0.46282   0.94576   0.00000  Uiso   1.00
C716   C     0.64232   0.53726   0.55424   0.00000  Uiso   1.00
C717   C     0.37643   0.48059   0.90265   0.00000  Uiso   1.00
C718   C     0.62357   0.51949   0.59735   0.00000  Uiso   1.00
C719   C     0.48239   0.48216   0.90539   0.00000  Uiso   1.00
C720   C     0.51760   0.51784   0.59462   0.00000  Uiso   1.00
C721   C     0.46547   0.48617   0.95100   0.00000  Uiso   1.00
C722   C     0.53451   0.51385   0.54900   0.00000  Uiso   1.00
C723   C     0.40244   0.46711   0.97069   0.00000  Uiso   1.00
C724   C     0.59754   0.53295   0.52932   0.00000  Uiso   1.00
C725   C     0.50932   0.50484   0.97720   0.00000  Uiso   1.00
C726   C     0.49067   0.49518   0.52280   0.00000  Uiso   1.00
Cu727  Cu    0.44071   0.49441   0.74517   0.00000  Uiso   1.00
Cu728  Cu    0.55929   0.50559   0.75484   0.00000  Uiso   1.00
H729   H     0.33840   0.43279   0.52842   0.00000  Uiso   1.00
H730   H     0.66156   0.56729   0.97158   0.00000  Uiso   1.00
H731   H     0.64185   0.45050   0.96071   0.00000  Uiso   1.00
H732   H     0.35813   0.54961   0.53928   0.00000  Uiso   1.00
H733   H     0.56799   0.34656   0.75570   0.00000  Uiso   1.00
H734   H     0.43201   0.65344   0.74430   0.00000  Uiso   1.00
H735   H     0.33461   0.53898   0.78448   0.00000  Uiso   1.00
H736   H     0.66540   0.46102   0.71552   0.00000  Uiso   1.00
N737   N     0.64839   0.51401   0.76212   0.00000  Uiso   1.00
N738   N     0.35161   0.48599   0.73788   0.00000  Uiso   1.00
O739   O     0.46148   0.57142   0.74686   0.00000  Uiso   1.00
O740   O     0.53852   0.42858   0.75314   0.00000  Uiso   1.00
O741   O     0.56163   0.58086   0.75503   0.00000  Uiso   1.00
O742   O     0.43837   0.41914   0.74498   0.00000  Uiso   1.00
O743   O     0.42185   0.49263   0.80855   0.00000  Uiso   1.00
O744   O     0.57815   0.50737   0.69146   0.00000  Uiso   1.00
O745   O     0.52199   0.50207   0.81671   0.00000  Uiso   1.00
O746   O     0.47801   0.49793   0.68329   0.00000  Uiso   1.00
Br747  Br    0.46126   0.56357   0.61777   0.00000  Uiso   1.00
Br748  Br    0.53877   0.43646   0.88222   0.00000  Uiso   1.00
O749   O     0.33455   0.51100   0.61735   0.00000  Uiso   1.00
H750   H     0.65012   0.47817   0.63409   0.00000  Uiso   1.00
O751   O     0.66547   0.48909   0.88263   0.00000  Uiso   1.00
H752   H     0.34990   0.52194   0.86592   0.00000  Uiso   1.00
O753   O     0.41681   0.44342   0.58144   0.00000  Uiso   1.00
H754   H     0.37529   0.41902   0.58664   0.00000  Uiso   1.00
O755   O     0.58316   0.55661   0.91856   0.00000  Uiso   1.00
H756   H     0.62463   0.58109   0.91339   0.00000  Uiso   1.00
C757   C     0.84832   0.59993   0.75131   0.00000  Uiso   1.00
C758   C     0.81835   0.40007   0.74869   0.00000  Uiso   1.00
C759   C     0.76382   0.46395   0.54013   0.00000  Uiso   1.00
C760   C     0.90282   0.53608   0.95988   0.00000  Uiso   1.00
C761   C     0.71925   0.45265   0.51434   0.00000  Uiso   1.00
C762   C     0.94739   0.54741   0.98567   0.00000  Uiso   1.00
C763   C     0.85659   0.65602   0.75197   0.00000  Uiso   1.00
C764   C     0.81008   0.34398   0.74803   0.00000  Uiso   1.00
C765   C     0.79531   0.49480   0.83306   0.00000  Uiso   1.00
C766   C     0.87136   0.50520   0.66694   0.00000  Uiso   1.00
C767   C     0.77318   0.48743   0.88088   0.00000  Uiso   1.00
C768   C     0.89349   0.51258   0.61912   0.00000  Uiso   1.00
C769   C     0.69099   0.46282   0.94576   0.00000  Uiso   1.00
C770   C     0.97565   0.53726   0.55424   0.00000  Uiso   1.00
C771   C     0.70976   0.48059   0.90265   0.00000  Uiso   1.00
C772   C     0.95690   0.51949   0.59735   0.00000  Uiso   1.00
C773   C     0.81572   0.48216   0.90539   0.00000  Uiso   1.00
C774   C     0.85093   0.51784   0.59462   0.00000  Uiso   1.00
C775   C     0.79881   0.48617   0.95100   0.00000  Uiso   1.00
C776   C     0.86785   0.51385   0.54900   0.00000  Uiso   1.00
C777   C     0.73577   0.46711   0.97069   0.00000  Uiso   1.00
C778   C     0.93088   0.53295   0.52932   0.00000  Uiso   1.00
C779   C     0.84265   0.50484   0.97720   0.00000  Uiso   1.00
C780   C     0.82400   0.49518   0.52280   0.00000  Uiso   1.00
Cu781  Cu    0.77404   0.49441   0.74517   0.00000  Uiso   1.00
Cu782  Cu    0.89263   0.50559   0.75484   0.00000  Uiso   1.00
H783   H     0.67174   0.43279   0.52842   0.00000  Uiso   1.00
H784   H     0.99489   0.56729   0.97158   0.00000  Uiso   1.00
H785   H     0.97518   0.45050   0.96071   0.00000  Uiso   1.00
H786   H     0.69146   0.54961   0.53928   0.00000  Uiso   1.00
H787   H     0.90132   0.34656   0.75570   0.00000  Uiso   1.00
H788   H     0.76535   0.65344   0.74430   0.00000  Uiso   1.00
H789   H     0.66794   0.53898   0.78448   0.00000  Uiso   1.00
H790   H     0.99873   0.46102   0.71552   0.00000  Uiso   1.00
N791   N     0.98173   0.51401   0.76212   0.00000  Uiso   1.00
N792   N     0.68494   0.48599   0.73788   0.00000  Uiso   1.00
O793   O     0.79482   0.57142   0.74686   0.00000  Uiso   1.00
O794   O     0.87185   0.42858   0.75314   0.00000  Uiso   1.00
O795   O     0.89496   0.58086   0.75503   0.00000  Uiso   1.00
O796   O     0.77171   0.41914   0.74498   0.00000  Uiso   1.00
O797   O     0.75518   0.49263   0.80855   0.00000  Uiso   1.00
O798   O     0.91149   0.50737   0.69146   0.00000  Uiso   1.00
O799   O     0.85532   0.50207   0.81671   0.00000  Uiso   1.00
O800   O     0.81134   0.49793   0.68329   0.00000  Uiso   1.00
Br801  Br    0.79459   0.56357   0.61777   0.00000  Uiso   1.00
Br802  Br    0.87211   0.43646   0.88222   0.00000  Uiso   1.00
O803   O     0.66788   0.51100   0.61735   0.00000  Uiso   1.00
H804   H     0.98346   0.47817   0.63409   0.00000  Uiso   1.00
O805   O     0.99881   0.48909   0.88263   0.00000  Uiso   1.00
H806   H     0.68323   0.52194   0.86592   0.00000  Uiso   1.00
O807   O     0.75014   0.44342   0.58144   0.00000  Uiso   1.00
H808   H     0.70863   0.41902   0.58664   0.00000  Uiso   1.00
O809   O     0.91649   0.55661   0.91856   0.00000  Uiso   1.00
H810   H     0.95797   0.58109   0.91339   0.00000  Uiso   1.00
C811   C     0.18165   0.93327   0.75131   0.00000  Uiso   1.00
C812   C     0.15168   0.73340   0.74869   0.00000  Uiso   1.00
C813   C     0.09715   0.79728   0.54013   0.00000  Uiso   1.00
C814   C     0.23615   0.86942   0.95988   0.00000  Uiso   1.00
C815   C     0.05258   0.78598   0.51434   0.00000  Uiso   1.00
C816   C     0.28072   0.88075   0.98567   0.00000  Uiso   1.00
C817   C     0.18992   0.98935   0.75197   0.00000  Uiso   1.00
C818   C     0.14341   0.67731   0.74803   0.00000  Uiso   1.00
C819   C     0.12864   0.82813   0.83306   0.00000  Uiso   1.00
C820   C     0.20469   0.83854   0.66694   0.00000  Uiso   1.00
C821   C     0.10651   0.82077   0.88088   0.00000  Uiso   1.00
C822   C     0.22682   0.84591   0.61912   0.00000  Uiso   1.00
C823   C     0.02433   0.79615   0.94576   0.00000  Uiso   1.00
C824   C     0.30899   0.87059   0.55424   0.00000  Uiso   1.00
C825   C     0.04309   0.81392   0.90265   0.00000  Uiso   1.00
C826   C     0.29024   0.85282   0.59735   0.00000  Uiso   1.00
C827   C     0.14906   0.81549   0.90539   0.00000  Uiso   1.00
C828   C     0.18426   0.85118   0.59462   0.00000  Uiso   1.00
C829   C     0.13214   0.81950   0.95100   0.00000  Uiso   1.00
C830   C     0.20118   0.84718   0.54900   0.00000  Uiso   1.00
C831   C     0.06910   0.80044   0.97069   0.00000  Uiso   1.00
C832   C     0.26421   0.86628   0.52932   0.00000  Uiso   1.00
C833   C     0.17598   0.83817   0.97720   0.00000  Uiso   1.00
C834   C     0.15733   0.82851   0.52280   0.00000  Uiso   1.00
Cu835  Cu    0.10737   0.82775   0.74517   0.00000  Uiso   1.00
Cu836  Cu    0.22596   0.83892   0.75484   0.00000  Uiso   1.00
H837   H     0.00507   0.76612   0.52842   0.00000  Uiso   1.00
H838   H     0.32823   0.90063   0.97158   0.00000  Uiso   1.00
H839   H     0.30852   0.78383   0.96071   0.00000  Uiso   1.00
H840   H     0.02480   0.88295   0.53928   0.00000  Uiso   1.00
H841   H     0.23465   0.67989   0.75570   0.00000  Uiso   1.00
H842   H     0.09868   0.98678   0.74430   0.00000  Uiso   1.00
H843   H     0.00127   0.87232   0.78448   0.00000  Uiso   1.00
H844   H     0.33206   0.79435   0.71552   0.00000  Uiso   1.00
N845   N     0.31506   0.84735   0.76212   0.00000  Uiso   1.00
N846   N     0.01827   0.81932   0.73788   0.00000  Uiso   1.00
O847   O     0.12815   0.90476   0.74686   0.00000  Uiso   1.00
O848   O     0.20518   0.76191   0.75314   0.00000  Uiso   1.00
O849   O     0.22829   0.91420   0.75503   0.00000  Uiso   1.00
O850   O     0.10504   0.75247   0.74498   0.00000  Uiso   1.00
O851   O     0.08851   0.82597   0.80855   0.00000  Uiso   1.00
O852   O     0.24482   0.84070   0.69146   0.00000  Uiso   1.00
O853   O     0.18866   0.83540   0.81671   0.00000  Uiso   1.00
O854   O     0.14468   0.83126   0.68329   0.00000  Uiso   1.00
Br855  Br    0.12792   0.89691   0.61777   0.00000  Uiso   1.00
Br856  Br    0.20544   0.76979   0.88222   0.00000  Uiso   1.00
O857   O     0.00122   0.84434   0.61735   0.00000  Uiso   1.00
H858   H     0.31679   0.81150   0.63409   0.00000  Uiso   1.00
O859   O     0.33214   0.82242   0.88263   0.00000  Uiso   1.00
H860   H     0.01656   0.85527   0.86592   0.00000  Uiso   1.00
O861   O     0.08348   0.77675   0.58144   0.00000  Uiso   1.00
H862   H     0.04196   0.75235   0.58664   0.00000  Uiso   1.00
O863   O     0.24983   0.88994   0.91856   0.00000  Uiso   1.00
H864   H     0.29130   0.91442   0.91339   0.00000  Uiso   1.00
C865   C     0.51498   0.93327   0.75131   0.00000  Uiso   1.00
C866   C     0.48502   0.73340   0.74869   0.00000  Uiso   1.00
C867   C     0.43049   0.79728   0.54013   0.00000  Uiso   1.00
C868   C     0.56949   0.86942   0.95988   0.00000  Uiso   1.00
C869   C     0.38591   0.78598   0.51434   0.00000  Uiso   1.00
C870   C     0.61406   0.88075   0.98567   0.00000  Uiso   1.00
C871   C     0.52325   0.98935   0.75197   0.00000  Uiso   1.00
C872   C     0.47675   0.67731   0.74803   0.00000  Uiso   1.00
C873   C     0.46197   0.82813   0.83306   0.00000  Uiso   1.00
C874   C     0.53803   0.83854   0.66694   0.00000  Uiso   1.00
C875   C     0.43985   0.82077   0.88088   0.00000  Uiso   1.00
C876   C     0.56015   0.84591   0.61912   0.00000  Uiso   1.00
C877   C     0.35766   0.79615   0.94576   0.00000  Uiso   1.00
C878   C     0.64232   0.87059   0.55424   0.00000  Uiso   1.00
C879   C     0.37643   0.81392   0.90265   0.00000  Uiso   1.00
C880   C     0.62357   0.85282   0.59735   0.00000  Uiso   1.00
C881   C     0.48239   0.81549   0.90539   0.00000  Uiso   1.00
C882   C     0.51760   0.85118   0.59462   0.00000  Uiso   1.00
C883   C     0.46547   0.81950   0.95100   0.00000  Uiso   1.00
C884   C     0.53451   0.84718   0.54900   0.00000  Uiso   1.00
C885   C     0.40244   0.80044   0.97069   0.00000  Uiso   1.00
C886   C     0.59754   0.86628   0.52932   0.00000  Uiso   1.00
C887   C     0.50932   0.83817   0.97720   0.00000  Uiso   1.00
C888   C     0.49067   0.82851   0.52280   0.00000  Uiso   1.00
Cu889  Cu    0.44071   0.82775   0.74517   0.00000  Uiso   1.00
Cu890  Cu    0.55929   0.83892   0.75484   0.00000  Uiso   1.00
H891   H     0.33840   0.76612   0.52842   0.00000  Uiso   1.00
H892   H     0.66156   0.90063   0.97158   0.00000  Uiso   1.00
H893   H     0.64185   0.78383   0.96071   0.00000  Uiso   1.00
H894   H     0.35813   0.88295   0.53928   0.00000  Uiso   1.00
H895   H     0.56799   0.67989   0.75570   0.00000  Uiso   1.00
H896   H     0.43201   0.98678   0.74430   0.00000  Uiso   1.00
H897   H     0.33461   0.87232   0.78448   0.00000  Uiso   1.00
H898   H     0.66540   0.79435   0.71552   0.00000  Uiso   1.00
N899   N     0.64839   0.84735   0.76212   0.00000  Uiso   1.00
N900   N     0.35161   0.81932   0.73788   0.00000  Uiso   1.00
O901   O     0.46148   0.90476   0.74686   0.00000  Uiso   1.00
O902   O     0.53852   0.76191   0.75314   0.00000  Uiso   1.00
O903   O     0.56163   0.91420   0.75503   0.00000  Uiso   1.00
O904   O     0.43837   0.75247   0.74498   0.00000  Uiso   1.00
O905   O     0.42185   0.82597   0.80855   0.00000  Uiso   1.00
O906   O     0.57815   0.84070   0.69146   0.00000  Uiso   1.00
O907   O     0.52199   0.83540   0.81671   0.00000  Uiso   1.00
O908   O     0.47801   0.83126   0.68329   0.00000  Uiso   1.00
Br909  Br    0.46126   0.89691   0.61777   0.00000  Uiso   1.00
Br910  Br    0.53877   0.76979   0.88222   0.00000  Uiso   1.00
O911   O     0.33455   0.84434   0.61735   0.00000  Uiso   1.00
H912   H     0.65012   0.81150   0.63409   0.00000  Uiso   1.00
O913   O     0.66547   0.82242   0.88263   0.00000  Uiso   1.00
H914   H     0.34990   0.85527   0.86592   0.00000  Uiso   1.00
O915   O     0.41681   0.77675   0.58144   0.00000  Uiso   1.00
H916   H     0.37529   0.75235   0.58664   0.00000  Uiso   1.00
O917   O     0.58316   0.88994   0.91856   0.00000  Uiso   1.00
H918   H     0.62463   0.91442   0.91339   0.00000  Uiso   1.00
C919   C     0.84832   0.93327   0.75131   0.00000  Uiso   1.00
C920   C     0.81835   0.73340   0.74869   0.00000  Uiso   1.00
C921   C     0.76382   0.79728   0.54013   0.00000  Uiso   1.00
C922   C     0.90282   0.86942   0.95988   0.00000  Uiso   1.00
C923   C     0.71925   0.78598   0.51434   0.00000  Uiso   1.00
C924   C     0.94739   0.88075   0.98567   0.00000  Uiso   1.00
C925   C     0.85659   0.98935   0.75197   0.00000  Uiso   1.00
C926   C     0.81008   0.67731   0.74803   0.00000  Uiso   1.00
C927   C     0.79531   0.82813   0.83306   0.00000  Uiso   1.00
C928   C     0.87136   0.83854   0.66694   0.00000  Uiso   1.00
C929   C     0.77318   0.82077   0.88088   0.00000  Uiso   1.00
C930   C     0.89349   0.84591   0.61912   0.00000  Uiso   1.00
C931   C     0.69099   0.79615   0.94576   0.00000  Uiso   1.00
C932   C     0.97565   0.87059   0.55424   0.00000  Uiso   1.00
C933   C     0.70976   0.81392   0.90265   0.00000  Uiso   1.00
C934   C     0.95690   0.85282   0.59735   0.00000  Uiso   1.00
C935   C     0.81572   0.81549   0.90539   0.00000  Uiso   1.00
C936   C     0.85093   0.85118   0.59462   0.00000  Uiso   1.00
C937   C     0.79881   0.81950   0.95100   0.00000  Uiso   1.00
C938   C     0.86785   0.84718   0.54900   0.00000  Uiso   1.00
C939   C     0.73577   0.80044   0.97069   0.00000  Uiso   1.00
C940   C     0.93088   0.86628   0.52932   0.00000  Uiso   1.00
C941   C     0.84265   0.83817   0.97720   0.00000  Uiso   1.00
C942   C     0.82400   0.82851   0.52280   0.00000  Uiso   1.00
Cu943  Cu    0.77404   0.82775   0.74517   0.00000  Uiso   1.00
Cu944  Cu    0.89263   0.83892   0.75484   0.00000  Uiso   1.00
H945   H     0.67174   0.76612   0.52842   0.00000  Uiso   1.00
H946   H     0.99489   0.90063   0.97158   0.00000  Uiso   1.00
H947   H     0.97518   0.78383   0.96071   0.00000  Uiso   1.00
H948   H     0.69146   0.88295   0.53928   0.00000  Uiso   1.00
H949   H     0.90132   0.67989   0.75570   0.00000  Uiso   1.00
H950   H     0.76535   0.98678   0.74430   0.00000  Uiso   1.00
H951   H     0.66794   0.87232   0.78448   0.00000  Uiso   1.00
H952   H     0.99873   0.79435   0.71552   0.00000  Uiso   1.00
N953   N     0.98173   0.84735   0.76212   0.00000  Uiso   1.00
N954   N     0.68494   0.81932   0.73788   0.00000  Uiso   1.00
O955   O     0.79482   0.90476   0.74686   0.00000  Uiso   1.00
O956   O     0.87185   0.76191   0.75314   0.00000  Uiso   1.00
O957   O     0.89496   0.91420   0.75503   0.00000  Uiso   1.00
O958   O     0.77171   0.75247   0.74498   0.00000  Uiso   1.00
O959   O     0.75518   0.82597   0.80855   0.00000  Uiso   1.00
O960   O     0.91149   0.84070   0.69146   0.00000  Uiso   1.00
O961   O     0.85532   0.83540   0.81671   0.00000  Uiso   1.00
O962   O     0.81134   0.83126   0.68329   0.00000  Uiso   1.00
Br963  Br    0.79459   0.89691   0.61777   0.00000  Uiso   1.00
Br964  Br    0.87211   0.76979   0.88222   0.00000  Uiso   1.00
O965   O     0.66788   0.84434   0.61735   0.00000  Uiso   1.00
H966   H     0.98346   0.81150   0.63409   0.00000  Uiso   1.00
O967   O     0.99881   0.82242   0.88263   0.00000  Uiso   1.00
H968   H     0.68323   0.85527   0.86592   0.00000  Uiso   1.00
O969   O     0.75014   0.77675   0.58144   0.00000  Uiso   1.00
H970   H     0.70863   0.75235   0.58664   0.00000  Uiso   1.00
O971   O     0.91649   0.88994   0.91856   0.00000  Uiso   1.00
H972   H     0.95797   0.91442   0.91339   0.00000  Uiso   1.00
loop_
_geom_bond_atom_site_label_1
_geom_bond_atom_site_label_2
_geom_bond_distance
_geom_bond_site_symmetry_2
_ccdc_geom_bond_type
C1     O37     1.300   .     A
C1     C7      1.428   .     S
C1     O39     1.296   .     A
C2     O40     1.296   .     A
C2     O38     1.300   .     A
C2     C8      1.428   .     S
C3     C24     1.422   .     A
C3     O51     1.382   .     S
C3     C5      1.406   .     A
C4     O53     1.382   .     S
C4     C6      1.406   .     A
C4     C23     1.422   .     A
C5     H27     1.084   .     S
C5     C507    1.392   1_554 S
C6     H28     1.084   .     S
C6     C508    1.392   .     S
C7     C170    1.330   .     S
C7     H193    1.088   .     S
C8     C331    1.330   1_545 S
C8     H356    1.088   1_545 S
C9     O41     1.313   .     A
C9     C11     1.481   .     S
C9     O43     1.308   .     A
C10    O42     1.313   .     A
C10    O44     1.308   .     A
C10    C12     1.481   .     S
C11    C15     1.413   .     A
C11    C17     1.403   .     A
C12    C16     1.413   .     A
C12    C18     1.403   .     A
C13    C15     1.402   .     A
C13    C21     1.402   .     A
C13    H137    1.083   1_455 S
C14    C22     1.402   .     A
C14    C16     1.402   .     A
C14    H84     1.083   .     S
C15    O157    1.368   1_455 S
C16    O101    1.368   .     S
C17    C19     1.397   .     A
C17    Br46    1.923   .     S
C18    Br45    1.922   .     S
C18    C20     1.397   .     A
C19    C23     1.416   .     A
C19    C21     1.404   .     A
C20    C22     1.404   .     A
C20    C24     1.416   .     A
C21    C491    1.392   .     S
C22    C492    1.392   1_554 S
C23    C510    1.421   .     S
C24    C509    1.421   1_554 S
Cu25   O37     1.952   .     S
Cu25   O41     1.939   .     S
Cu25   O40     1.948   .     S
Cu25   N36     2.043   .     S
Cu25   O44     1.930   .     S
Cu25   Cu26    2.719   .     S
Cu26   O42     1.939   .     S
Cu26   O43     1.930   .     S
Cu26   O39     1.948   .     S
Cu26   N35     2.043   .     S
Cu26   O38     1.952   .     S
H29    C67     1.083   .     S
H30    C122    1.083   1_455 S
H31    C331    1.088   1_545 S
H32    C170    1.088   .     S
H33    N143    1.029   1_455 S
H34    N90     1.029   .     S
N35    H87     1.029   .     S
N35    N90     1.300   .     S
N36    H142    1.029   1_455 S
N36    N143    1.300   1_455 S
O47    C124    1.368   1_455 S
O47    H156    0.990   1_455 S
H48    O101    0.990   .     S
O49    C69     1.368   .     S
O49    H104    0.990   .     S
H50    O157    0.990   1_455 S
O51    H52     0.992   .     S
O53    H54     0.992   .     S
C55    O91     1.300   .     A
C55    C61     1.428   .     S
C55    O93     1.296   .     A
C56    O94     1.296   .     A
C56    O92     1.300   .     A
C56    C62     1.428   .     S
C57    C78     1.422   .     A
C57    O105    1.382   .     S
C57    C59     1.406   .     A
C58    O107    1.382   .     S
C58    C60     1.406   .     A
C58    C77     1.422   .     A
C59    H81     1.084   .     S
C59    C561    1.392   1_554 S
C60    H82     1.084   .     S
C60    C562    1.392   .     S
C61    C224    1.330   .     S
C61    H247    1.088   .     S
C62    C385    1.330   1_545 S
C62    H410    1.088   1_545 S
C63    O95     1.313   .     A
C63    C65     1.481   .     S
C63    O97     1.308   .     A
C64    O96     1.313   .     A
C64    O98     1.308   .     A
C64    C66     1.481   .     S
C65    C69     1.413   .     A
C65    C71     1.403   .     A
C66    C70     1.413   .     A
C66    C72     1.403   .     A
C67    C69     1.402   .     A
C67    C75     1.402   .     A
C68    C76     1.402   .     A
C68    C70     1.402   .     A
C68    H138    1.083   .     S
C70    O155    1.368   .     S
C71    C73     1.397   .     A
C71    Br100   1.923   .     S
C72    Br99    1.922   .     S
C72    C74     1.397   .     A
C73    C77     1.416   .     A
C73    C75     1.404   .     A
C74    C76     1.404   .     A
C74    C78     1.416   .     A
C75    C545    1.392   .     S
C76    C546    1.392   1_554 S
C77    C564    1.421   .     S
C78    C563    1.421   1_554 S
Cu79   O91     1.952   .     S
Cu79   O95     1.939   .     S
Cu79   O94     1.948   .     S
Cu79   N90     2.043   .     S
Cu79   O98     1.930   .     S
Cu79   Cu80    2.719   .     S
Cu80   O96     1.939   .     S
Cu80   O97     1.930   .     S
Cu80   O93     1.948   .     S
Cu80   N89     2.043   .     S
Cu80   O92     1.952   .     S
H83    C121    1.083   .     S
H85    C385    1.088   1_545 S
H86    C224    1.088   .     S
H88    N144    1.029   .     S
N89    H141    1.029   .     S
N89    N144    1.300   .     S
H102   O155    0.990   .     S
O103   C123    1.368   .     S
O103   H158    0.990   .     S
O105   H106    0.992   .     S
O107   H108    0.992   .     S
C109   O145    1.300   .     A
C109   C115    1.428   .     S
C109   O147    1.296   .     A
C110   O148    1.296   .     A
C110   O146    1.300   .     A
C110   C116    1.428   .     S
C111   C132    1.422   .     A
C111   O159    1.382   .     S
C111   C113    1.406   .     A
C112   O161    1.382   .     S
C112   C114    1.406   .     A
C112   C131    1.422   .     A
C113   H135    1.084   .     S
C113   C615    1.392   1_554 S
C114   H136    1.084   .     S
C114   C616    1.392   .     S
C115   C278    1.330   .     S
C115   H301    1.088   .     S
C116   C439    1.330   1_545 S
C116   H464    1.088   1_545 S
C117   O149    1.313   .     A
C117   C119    1.481   .     S
C117   O151    1.308   .     A
C118   O150    1.313   .     A
C118   O152    1.308   .     A
C118   C120    1.481   .     S
C119   C123    1.413   .     A
C119   C125    1.403   .     A
C120   C124    1.413   .     A
C120   C126    1.403   .     A
C121   C123    1.402   .     A
C121   C129    1.402   .     A
C122   C130    1.402   .     A
C122   C124    1.402   .     A
C122   H30     1.083   1_655 S
C124   O47     1.368   1_655 S
C125   C127    1.397   .     A
C125   Br154   1.923   .     S
C126   Br153   1.922   .     S
C126   C128    1.397   .     A
C127   C131    1.416   .     A
C127   C129    1.404   .     A
C128   C130    1.404   .     A
C128   C132    1.416   .     A
C129   C599    1.392   .     S
C130   C600    1.392   1_554 S
C131   C618    1.421   .     S
C132   C617    1.421   1_554 S
Cu133  O145    1.952   .     S
Cu133  O149    1.939   .     S
Cu133  O148    1.948   .     S
Cu133  N144    2.043   .     S
Cu133  O152    1.930   .     S
Cu133  Cu134   2.719   .     S
Cu134  O150    1.939   .     S
Cu134  O151    1.930   .     S
Cu134  O147    1.948   .     S
Cu134  N143    2.043   .     S
Cu134  O146    1.952   .     S
H137   C13     1.083   1_655 S
H139   C439    1.088   1_545 S
H140   C278    1.088   .     S
H142   N36     1.029   1_655 S
N143   H33     1.029   1_655 S
N143   N36     1.300   1_655 S
H156   O47     0.990   1_655 S
O157   C15     1.368   1_655 S
O157   H50     0.990   1_655 S
O159   H160    0.992   .     S
O161   H162    0.992   .     S
C163   O199    1.300   .     A
C163   C169    1.428   .     S
C163   O201    1.296   .     A
C164   O202    1.296   .     A
C164   O200    1.300   .     A
C164   C170    1.428   .     S
C165   C186    1.422   .     A
C165   O213    1.382   .     S
C165   C167    1.406   .     A
C166   O215    1.382   .     S
C166   C168    1.406   .     A
C166   C185    1.422   .     A
C167   H189    1.084   .     S
C167   C669    1.392   1_554 S
C168   H190    1.084   .     S
C168   C670    1.392   .     S
C169   C332    1.330   .     S
C169   H355    1.088   .     S
C171   O203    1.313   .     A
C171   C173    1.481   .     S
C171   O205    1.308   .     A
C172   O204    1.313   .     A
C172   O206    1.308   .     A
C172   C174    1.481   .     S
C173   C177    1.413   .     A
C173   C179    1.403   .     A
C174   C178    1.413   .     A
C174   C180    1.403   .     A
C175   C177    1.402   .     A
C175   C183    1.402   .     A
C175   H299    1.083   1_455 S
C176   C184    1.402   .     A
C176   C178    1.402   .     A
C176   H246    1.083   .     S
C177   O319    1.368   1_455 S
C178   O263    1.368   .     S
C179   C181    1.397   .     A
C179   Br208   1.923   .     S
C180   Br207   1.922   .     S
C180   C182    1.397   .     A
C181   C185    1.416   .     A
C181   C183    1.404   .     A
C182   C184    1.404   .     A
C182   C186    1.416   .     A
C183   C653    1.392   .     S
C184   C654    1.392   1_554 S
C185   C672    1.421   .     S
C186   C671    1.421   1_554 S
Cu187  O199    1.952   .     S
Cu187  O203    1.939   .     S
Cu187  O202    1.948   .     S
Cu187  N198    2.043   .     S
Cu187  O206    1.930   .     S
Cu187  Cu188   2.719   .     S
Cu188  O204    1.939   .     S
Cu188  O205    1.930   .     S
Cu188  O201    1.948   .     S
Cu188  N197    2.043   .     S
Cu188  O200    1.952   .     S
H191   C229    1.083   .     S
H192   C284    1.083   1_455 S
H194   C332    1.088   .     S
H195   N305    1.029   1_455 S
H196   N252    1.029   .     S
N197   H249    1.029   .     S
N197   N252    1.300   .     S
N198   H304    1.029   1_455 S
N198   N305    1.300   1_455 S
O209   C286    1.368   1_455 S
O209   H318    0.990   1_455 S
H210   O263    0.990   .     S
O211   C231    1.368   .     S
O211   H266    0.990   .     S
H212   O319    0.990   1_455 S
O213   H214    0.992   .     S
O215   H216    0.992   .     S
C217   O253    1.300   .     A
C217   C223    1.428   .     S
C217   O255    1.296   .     A
C218   O256    1.296   .     A
C218   O254    1.300   .     A
C218   C224    1.428   .     S
C219   C240    1.422   .     A
C219   O267    1.382   .     S
C219   C221    1.406   .     A
C220   O269    1.382   .     S
C220   C222    1.406   .     A
C220   C239    1.422   .     A
C221   H243    1.084   .     S
C221   C723    1.392   1_554 S
C222   H244    1.084   .     S
C222   C724    1.392   .     S
C223   C386    1.330   .     S
C223   H409    1.088   .     S
C225   O257    1.313   .     A
C225   C227    1.481   .     S
C225   O259    1.308   .     A
C226   O258    1.313   .     A
C226   O260    1.308   .     A
C226   C228    1.481   .     S
C227   C231    1.413   .     A
C227   C233    1.403   .     A
C228   C232    1.413   .     A
C228   C234    1.403   .     A
C229   C231    1.402   .     A
C229   C237    1.402   .     A
C230   C238    1.402   .     A
C230   C232    1.402   .     A
C230   H300    1.083   .     S
C232   O317    1.368   .     S
C233   C235    1.397   .     A
C233   Br262   1.923   .     S
C234   Br261   1.922   .     S
C234   C236    1.397   .     A
C235   C239    1.416   .     A
C235   C237    1.404   .     A
C236   C238    1.404   .     A
C236   C240    1.416   .     A
C237   C707    1.392   .     S
C238   C708    1.392   1_554 S
C239   C726    1.421   .     S
C240   C725    1.421   1_554 S
Cu241  O253    1.952   .     S
Cu241  O257    1.939   .     S
Cu241  O256    1.948   .     S
Cu241  N252    2.043   .     S
Cu241  O260    1.930   .     S
Cu241  Cu242   2.719   .     S
Cu242  O258    1.939   .     S
Cu242  O259    1.930   .     S
Cu242  O255    1.948   .     S
Cu242  N251    2.043   .     S
Cu242  O254    1.952   .     S
H245   C283    1.083   .     S
H248   C386    1.088   .     S
H250   N306    1.029   .     S
N251   H303    1.029   .     S
N251   N306    1.300   .     S
H264   O317    0.990   .     S
O265   C285    1.368   .     S
O265   H320    0.990   .     S
O267   H268    0.992   .     S
O269   H270    0.992   .     S
C271   O307    1.300   .     A
C271   C277    1.428   .     S
C271   O309    1.296   .     A
C272   O310    1.296   .     A
C272   O308    1.300   .     A
C272   C278    1.428   .     S
C273   C294    1.422   .     A
C273   O321    1.382   .     S
C273   C275    1.406   .     A
C274   O323    1.382   .     S
C274   C276    1.406   .     A
C274   C293    1.422   .     A
C275   H297    1.084   .     S
C275   C777    1.392   1_554 S
C276   H298    1.084   .     S
C276   C778    1.392   .     S
C277   C440    1.330   .     S
C277   H463    1.088   .     S
C279   O311    1.313   .     A
C279   C281    1.481   .     S
C279   O313    1.308   .     A
C280   O312    1.313   .     A
C280   O314    1.308   .     A
C280   C282    1.481   .     S
C281   C285    1.413   .     A
C281   C287    1.403   .     A
C282   C286    1.413   .     A
C282   C288    1.403   .     A
C283   C285    1.402   .     A
C283   C291    1.402   .     A
C284   C292    1.402   .     A
C284   C286    1.402   .     A
C284   H192    1.083   1_655 S
C286   O209    1.368   1_655 S
C287   C289    1.397   .     A
C287   Br316   1.923   .     S
C288   Br315   1.922   .     S
C288   C290    1.397   .     A
C289   C293    1.416   .     A
C289   C291    1.404   .     A
C290   C292    1.404   .     A
C290   C294    1.416   .     A
C291   C761    1.392   .     S
C292   C762    1.392   1_554 S
C293   C780    1.421   .     S
C294   C779    1.421   1_554 S
Cu295  O307    1.952   .     S
Cu295  O311    1.939   .     S
Cu295  O310    1.948   .     S
Cu295  N306    2.043   .     S
Cu295  O314    1.930   .     S
Cu295  Cu296   2.719   .     S
Cu296  O312    1.939   .     S
Cu296  O313    1.930   .     S
Cu296  O309    1.948   .     S
Cu296  N305    2.043   .     S
Cu296  O308    1.952   .     S
H299   C175    1.083   1_655 S
H302   C440    1.088   .     S
H304   N198    1.029   1_655 S
N305   H195    1.029   1_655 S
N305   N198    1.300   1_655 S
H318   O209    0.990   1_655 S
O319   C177    1.368   1_655 S
O319   H212    0.990   1_655 S
O321   H322    0.992   .     S
O323   H324    0.992   .     S
C325   O361    1.300   .     A
C325   C331    1.428   .     S
C325   O363    1.296   .     A
C326   O364    1.296   .     A
C326   O362    1.300   .     A
C326   C332    1.428   .     S
C327   C348    1.422   .     A
C327   O375    1.382   .     S
C327   C329    1.406   .     A
C328   O377    1.382   .     S
C328   C330    1.406   .     A
C328   C347    1.422   .     A
C329   H351    1.084   .     S
C329   C831    1.392   1_554 S
C330   H352    1.084   .     S
C330   C832    1.392   .     S
C331   C8      1.330   1_565 S
C331   H31     1.088   1_565 S
C333   O365    1.313   .     A
C333   C335    1.481   .     S
C333   O367    1.308   .     A
C334   O366    1.313   .     A
C334   O368    1.308   .     A
C334   C336    1.481   .     S
C335   C339    1.413   .     A
C335   C341    1.403   .     A
C336   C340    1.413   .     A
C336   C342    1.403   .     A
C337   C339    1.402   .     A
C337   C345    1.402   .     A
C337   H461    1.083   1_455 S
C338   C346    1.402   .     A
C338   C340    1.402   .     A
C338   H408    1.083   .     S
C339   O481    1.368   1_455 S
C340   O425    1.368   .     S
C341   C343    1.397   .     A
C341   Br370   1.923   .     S
C342   Br369   1.922   .     S
C342   C344    1.397   .     A
C343   C347    1.416   .     A
C343   C345    1.404   .     A
C344   C346    1.404   .     A
C344   C348    1.416   .     A
C345   C815    1.392   .     S
C346   C816    1.392   1_554 S
C347   C834    1.421   .     S
C348   C833    1.421   1_554 S
Cu349  O361    1.952   .     S
Cu349  O365    1.939   .     S
Cu349  O364    1.948   .     S
Cu349  N360    2.043   .     S
Cu349  O368    1.930   .     S
Cu349  Cu350   2.719   .     S
Cu350  O366    1.939   .     S
Cu350  O367    1.930   .     S
Cu350  O363    1.948   .     S
Cu350  N359    2.043   .     S
Cu350  O362    1.952   .     S
H353   C391    1.083   .     S
H354   C446    1.083   1_455 S
H356   C8      1.088   1_565 S
H357   N467    1.029   1_455 S
H358   N414    1.029   .     S
N359   H411    1.029   .     S
N359   N414    1.300   .     S
N360   H466    1.029   1_455 S
N360   N467    1.300   1_455 S
O371   C448    1.368   1_455 S
O371   H480    0.990   1_455 S
H372   O425    0.990   .     S
O373   C393    1.368   .     S
O373   H428    0.990   .     S
H374   O481    0.990   1_455 S
O375   H376    0.992   .     S
O377   H378    0.992   .     S
C379   O415    1.300   .     A
C379   C385    1.428   .     S
C379   O417    1.296   .     A
C380   O418    1.296   .     A
C380   O416    1.300   .     A
C380   C386    1.428   .     S
C381   C402    1.422   .     A
C381   O429    1.382   .     S
C381   C383    1.406   .     A
C382   O431    1.382   .     S
C382   C384    1.406   .     A
C382   C401    1.422   .     A
C383   H405    1.084   .     S
C383   C885    1.392   1_554 S
C384   H406    1.084   .     S
C384   C886    1.392   .     S
C385   C62     1.330   1_565 S
C385   H85     1.088   1_565 S
C387   O419    1.313   .     A
C387   C389    1.481   .     S
C387   O421    1.308   .     A
C388   O420    1.313   .     A
C388   O422    1.308   .     A
C388   C390    1.481   .     S
C389   C393    1.413   .     A
C389   C395    1.403   .     A
C390   C394    1.413   .     A
C390   C396    1.403   .     A
C391   C393    1.402   .     A
C391   C399    1.402   .     A
C392   C400    1.402   .     A
C392   C394    1.402   .     A
C392   H462    1.083   .     S
C394   O479    1.368   .     S
C395   C397    1.397   .     A
C395   Br424   1.923   .     S
C396   Br423   1.922   .     S
C396   C398    1.397   .     A
C397   C401    1.416   .     A
C397   C399    1.404   .     A
C398   C400    1.404   .     A
C398   C402    1.416   .     A
C399   C869    1.392   .     S
C400   C870    1.392   1_554 S
C401   C888    1.421   .     S
C402   C887    1.421   1_554 S
Cu403  O415    1.952   .     S
Cu403  O419    1.939   .     S
Cu403  O418    1.948   .     S
Cu403  N414    2.043   .     S
Cu403  O422    1.930   .     S
Cu403  Cu404   2.719   .     S
Cu404  O420    1.939   .     S
Cu404  O421    1.930   .     S
Cu404  O417    1.948   .     S
Cu404  N413    2.043   .     S
Cu404  O416    1.952   .     S
H407   C445    1.083   .     S
H410   C62     1.088   1_565 S
H412   N468    1.029   .     S
N413   H465    1.029   .     S
N413   N468    1.300   .     S
H426   O479    0.990   .     S
O427   C447    1.368   .     S
O427   H482    0.990   .     S
O429   H430    0.992   .     S
O431   H432    0.992   .     S
C433   O469    1.300   .     A
C433   C439    1.428   .     S
C433   O471    1.296   .     A
C434   O472    1.296   .     A
C434   O470    1.300   .     A
C434   C440    1.428   .     S
C435   C456    1.422   .     A
C435   O483    1.382   .     S
C435   C437    1.406   .     A
C436   O485    1.382   .     S
C436   C438    1.406   .     A
C436   C455    1.422   .     A
C437   H459    1.084   .     S
C437   C939    1.392   1_554 S
C438   H460    1.084   .     S
C438   C940    1.392   .     S
C439   C116    1.330   1_565 S
C439   H139    1.088   1_565 S
C441   O473    1.313   .     A
C441   C443    1.481   .     S
C441   O475    1.308   .     A
C442   O474    1.313   .     A
C442   O476    1.308   .     A
C442   C444    1.481   .     S
C443   C447    1.413   .     A
C443   C449    1.403   .     A
C444   C448    1.413   .     A
C444   C450    1.403   .     A
C445   C447    1.402   .     A
C445   C453    1.402   .     A
C446   C454    1.402   .     A
C446   C448    1.402   .     A
C446   H354    1.083   1_655 S
C448   O371    1.368   1_655 S
C449   C451    1.397   .     A
C449   Br478   1.923   .     S
C450   Br477   1.922   .     S
C450   C452    1.397   .     A
C451   C455    1.416   .     A
C451   C453    1.404   .     A
C452   C454    1.404   .     A
C452   C456    1.416   .     A
C453   C923    1.392   .     S
C454   C924    1.392   1_554 S
C455   C942    1.421   .     S
C456   C941    1.421   1_554 S
Cu457  O469    1.952   .     S
Cu457  O473    1.939   .     S
Cu457  O472    1.948   .     S
Cu457  N468    2.043   .     S
Cu457  O476    1.930   .     S
Cu457  Cu458   2.719   .     S
Cu458  O474    1.939   .     S
Cu458  O475    1.930   .     S
Cu458  O471    1.948   .     S
Cu458  N467    2.043   .     S
Cu458  O470    1.952   .     S
H461   C337    1.083   1_655 S
H464   C116    1.088   1_565 S
H466   N360    1.029   1_655 S
N467   H357    1.029   1_655 S
N467   N360    1.300   1_655 S
H480   O371    0.990   1_655 S
O481   C339    1.368   1_655 S
O481   H374    0.990   1_655 S
O483   H484    0.992   .     S
O485   H486    0.992   .     S
C487   O523    1.300   .     A
C487   C493    1.428   .     S
C487   O525    1.296   .     A
C488   O526    1.296   .     A
C488   O524    1.300   .     A
C488   C494    1.428   .     S
C489   C510    1.422   .     A
C489   O537    1.382   .     S
C489   C491    1.406   .     A
C490   O539    1.382   .     S
C490   C492    1.406   .     A
C490   C509    1.422   .     A
C491   H513    1.084   .     S
C492   H514    1.084   .     S
C492   C22     1.392   1_556 S
C493   C656    1.330   .     S
C493   H679    1.088   .     S
C494   C817    1.330   1_545 S
C494   H842    1.088   1_545 S
C495   O527    1.313   .     A
C495   C497    1.481   .     S
C495   O529    1.308   .     A
C496   O528    1.313   .     A
C496   O530    1.308   .     A
C496   C498    1.481   .     S
C497   C501    1.413   .     A
C497   C503    1.403   .     A
C498   C502    1.413   .     A
C498   C504    1.403   .     A
C499   C501    1.402   .     A
C499   C507    1.402   .     A
C499   H623    1.083   1_455 S
C500   C508    1.402   .     A
C500   C502    1.402   .     A
C500   H570    1.083   .     S
C501   O643    1.368   1_455 S
C502   O587    1.368   .     S
C503   C505    1.397   .     A
C503   Br532   1.923   .     S
C504   Br531   1.922   .     S
C504   C506    1.397   .     A
C505   C509    1.416   .     A
C505   C507    1.404   .     A
C506   C508    1.404   .     A
C506   C510    1.416   .     A
C507   C5      1.392   1_556 S
C509   C24     1.421   1_556 S
Cu511  O523    1.952   .     S
Cu511  O527    1.939   .     S
Cu511  O526    1.948   .     S
Cu511  N522    2.043   .     S
Cu511  O530    1.930   .     S
Cu511  Cu512   2.719   .     S
Cu512  O528    1.939   .     S
Cu512  O529    1.930   .     S
Cu512  O525    1.948   .     S
Cu512  N521    2.043   .     S
Cu512  O524    1.952   .     S
H515   C553    1.083   .     S
H516   C608    1.083   1_455 S
H517   C817    1.088   1_545 S
H518   C656    1.088   .     S
H519   N629    1.029   1_455 S
H520   N576    1.029   .     S
N521   H573    1.029   .     S
N521   N576    1.300   .     S
N522   H628    1.029   1_455 S
N522   N629    1.300   1_455 S
O533   C610    1.368   1_455 S
O533   H642    0.990   1_455 S
H534   O587    0.990   .     S
O535   C555    1.368   .     S
O535   H590    0.990   .     S
H536   O643    0.990   1_455 S
O537   H538    0.992   .     S
O539   H540    0.992   .     S
C541   O577    1.300   .     A
C541   C547    1.428   .     S
C541   O579    1.296   .     A
C542   O580    1.296   .     A
C542   O578    1.300   .     A
C542   C548    1.428   .     S
C543   C564    1.422   .     A
C543   O591    1.382   .     S
C543   C545    1.406   .     A
C544   O593    1.382   .     S
C544   C546    1.406   .     A
C544   C563    1.422   .     A
C545   H567    1.084   .     S
C546   H568    1.084   .     S
C546   C76     1.392   1_556 S
C547   C710    1.330   .     S
C547   H733    1.088   .     S
C548   C871    1.330   1_545 S
C548   H896    1.088   1_545 S
C549   O581    1.313   .     A
C549   C551    1.481   .     S
C549   O583    1.308   .     A
C550   O582    1.313   .     A
C550   O584    1.308   .     A
C550   C552    1.481   .     S
C551   C555    1.413   .     A
C551   C557    1.403   .     A
C552   C556    1.413   .     A
C552   C558    1.403   .     A
C553   C555    1.402   .     A
C553   C561    1.402   .     A
C554   C562    1.402   .     A
C554   C556    1.402   .     A
C554   H624    1.083   .     S
C556   O641    1.368   .     S
C557   C559    1.397   .     A
C557   Br586   1.923   .     S
C558   Br585   1.922   .     S
C558   C560    1.397   .     A
C559   C563    1.416   .     A
C559   C561    1.404   .     A
C560   C562    1.404   .     A
C560   C564    1.416   .     A
C561   C59     1.392   1_556 S
C563   C78     1.421   1_556 S
Cu565  O577    1.952   .     S
Cu565  O581    1.939   .     S
Cu565  O580    1.948   .     S
Cu565  N576    2.043   .     S
Cu565  O584    1.930   .     S
Cu565  Cu566   2.719   .     S
Cu566  O582    1.939   .     S
Cu566  O583    1.930   .     S
Cu566  O579    1.948   .     S
Cu566  N575    2.043   .     S
Cu566  O578    1.952   .     S
H569   C607    1.083   .     S
H571   C871    1.088   1_545 S
H572   C710    1.088   .     S
H574   N630    1.029   .     S
N575   H627    1.029   .     S
N575   N630    1.300   .     S
H588   O641    0.990   .     S
O589   C609    1.368   .     S
O589   H644    0.990   .     S
O591   H592    0.992   .     S
O593   H594    0.992   .     S
C595   O631    1.300   .     A
C595   C601    1.428   .     S
C595   O633    1.296   .     A
C596   O634    1.296   .     A
C596   O632    1.300   .     A
C596   C602    1.428   .     S
C597   C618    1.422   .     A
C597   O645    1.382   .     S
C597   C599    1.406   .     A
C598   O647    1.382   .     S
C598   C600    1.406   .     A
C598   C617    1.422   .     A
C599   H621    1.084   .     S
C600   H622    1.084   .     S
C600   C130    1.392   1_556 S
C601   C764    1.330   .     S
C601   H787    1.088   .     S
C602   C925    1.330   1_545 S
C602   H950    1.088   1_545 S
C603   O635    1.313   .     A
C603   C605    1.481   .     S
C603   O637    1.308   .     A
C604   O636    1.313   .     A
C604   O638    1.308   .     A
C604   C606    1.481   .     S
C605   C609    1.413   .     A
C605   C611    1.403   .     A
C606   C610    1.413   .     A
C606   C612    1.403   .     A
C607   C609    1.402   .     A
C607   C615    1.402   .     A
C608   C616    1.402   .     A
C608   C610    1.402   .     A
C608   H516    1.083   1_655 S
C610   O533    1.368   1_655 S
C611   C613    1.397   .     A
C611   Br640   1.923   .     S
C612   Br639   1.922   .     S
C612   C614    1.397   .     A
C613   C617    1.416   .     A
C613   C615    1.404   .     A
C614   C616    1.404   .     A
C614   C618    1.416   .     A
C615   C113    1.392   1_556 S
C617   C132    1.421   1_556 S
Cu619  O631    1.952   .     S
Cu619  O635    1.939   .     S
Cu619  O634    1.948   .     S
Cu619  N630    2.043   .     S
Cu619  O638    1.930   .     S
Cu619  Cu620   2.719   .     S
Cu620  O636    1.939   .     S
Cu620  O637    1.930   .     S
Cu620  O633    1.948   .     S
Cu620  N629    2.043   .     S
Cu620  O632    1.952   .     S
H623   C499    1.083   1_655 S
H625   C925    1.088   1_545 S
H626   C764    1.088   .     S
H628   N522    1.029   1_655 S
N629   H519    1.029   1_655 S
N629   N522    1.300   1_655 S
H642   O533    0.990   1_655 S
O643   C501    1.368   1_655 S
O643   H536    0.990   1_655 S
O645   H646    0.992   .     S
O647   H648    0.992   .     S
C649   O685    1.300   .     A
C649   C655    1.428   .     S
C649   O687    1.296   .     A
C650   O688    1.296   .     A
C650   O686    1.300   .     A
C650   C656    1.428   .     S
C651   C672    1.422   .     A
C651   O699    1.382   .     S
C651   C653    1.406   .     A
C652   O701    1.382   .     S
C652   C654    1.406   .     A
C652   C671    1.422   .     A
C653   H675    1.084   .     S
C654   H676    1.084   .     S
C654   C184    1.392   1_556 S
C655   C818    1.330   .     S
C655   H841    1.088   .     S
C657   O689    1.313   .     A
C657   C659    1.481   .     S
C657   O691    1.308   .     A
C658   O690    1.313   .     A
C658   O692    1.308   .     A
C658   C660    1.481   .     S
C659   C663    1.413   .     A
C659   C665    1.403   .     A
C660   C664    1.413   .     A
C660   C666    1.403   .     A
C661   C663    1.402   .     A
C661   C669    1.402   .     A
C661   H785    1.083   1_455 S
C662   C670    1.402   .     A
C662   C664    1.402   .     A
C662   H732    1.083   .     S
C663   O805    1.368   1_455 S
C664   O749    1.368   .     S
C665   C667    1.397   .     A
C665   Br694   1.923   .     S
C666   Br693   1.922   .     S
C666   C668    1.397   .     A
C667   C671    1.416   .     A
C667   C669    1.404   .     A
C668   C670    1.404   .     A
C668   C672    1.416   .     A
C669   C167    1.392   1_556 S
C671   C186    1.421   1_556 S
Cu673  O685    1.952   .     S
Cu673  O689    1.939   .     S
Cu673  O688    1.948   .     S
Cu673  N684    2.043   .     S
Cu673  O692    1.930   .     S
Cu673  Cu674   2.719   .     S
Cu674  O690    1.939   .     S
Cu674  O691    1.930   .     S
Cu674  O687    1.948   .     S
Cu674  N683    2.043   .     S
Cu674  O686    1.952   .     S
H677   C715    1.083   .     S
H678   C770    1.083   1_455 S
H680   C818    1.088   .     S
H681   N791    1.029   1_455 S
H682   N738    1.029   .     S
N683   H735    1.029   .     S
N683   N738    1.300   .     S
N684   H790    1.029   1_455 S
N684   N791    1.300   1_455 S
O695   C772    1.368   1_455 S
O695   H804    0.990   1_455 S
H696   O749    0.990   .     S
O697   C717    1.368   .     S
O697   H752    0.990   .     S
H698   O805    0.990   1_455 S
O699   H700    0.992   .     S
O701   H702    0.992   .     S
C703   O739    1.300   .     A
C703   C709    1.428   .     S
C703   O741    1.296   .     A
C704   O742    1.296   .     A
C704   O740    1.300   .     A
C704   C710    1.428   .     S
C705   C726    1.422   .     A
C705   O753    1.382   .     S
C705   C707    1.406   .     A
C706   O755    1.382   .     S
C706   C708    1.406   .     A
C706   C725    1.422   .     A
C707   H729    1.084   .     S
C708   H730    1.084   .     S
C708   C238    1.392   1_556 S
C709   C872    1.330   .     S
C709   H895    1.088   .     S
C711   O743    1.313   .     A
C711   C713    1.481   .     S
C711   O745    1.308   .     A
C712   O744    1.313   .     A
C712   O746    1.308   .     A
C712   C714    1.481   .     S
C713   C717    1.413   .     A
C713   C719    1.403   .     A
C714   C718    1.413   .     A
C714   C720    1.403   .     A
C715   C717    1.402   .     A
C715   C723    1.402   .     A
C716   C724    1.402   .     A
C716   C718    1.402   .     A
C716   H786    1.083   .     S
C718   O803    1.368   .     S
C719   C721    1.397   .     A
C719   Br748   1.923   .     S
C720   Br747   1.922   .     S
C720   C722    1.397   .     A
C721   C725    1.416   .     A
C721   C723    1.404   .     A
C722   C724    1.404   .     A
C722   C726    1.416   .     A
C723   C221    1.392   1_556 S
C725   C240    1.421   1_556 S
Cu727  O739    1.952   .     S
Cu727  O743    1.939   .     S
Cu727  O742    1.948   .     S
Cu727  N738    2.043   .     S
Cu727  O746    1.930   .     S
Cu727  Cu728   2.719   .     S
Cu728  O744    1.939   .     S
Cu728  O745    1.930   .     S
Cu728  O741    1.948   .     S
Cu728  N737    2.043   .     S
Cu728  O740    1.952   .     S
H731   C769    1.083   .     S
H734   C872    1.088   .     S
H736   N792    1.029   .     S
N737   H789    1.029   .     S
N737   N792    1.300   .     S
H750   O803    0.990   .     S
O751   C771    1.368   .     S
O751   H806    0.990   .     S
O753   H754    0.992   .     S
O755   H756    0.992   .     S
C757   O793    1.300   .     A
C757   C763    1.428   .     S
C757   O795    1.296   .     A
C758   O796    1.296   .     A
C758   O794    1.300   .     A
C758   C764    1.428   .     S
C759   C780    1.422   .     A
C759   O807    1.382   .     S
C759   C761    1.406   .     A
C760   O809    1.382   .     S
C760   C762    1.406   .     A
C760   C779    1.422   .     A
C761   H783    1.084   .     S
C762   H784    1.084   .     S
C762   C292    1.392   1_556 S
C763   C926    1.330   .     S
C763   H949    1.088   .     S
C765   O797    1.313   .     A
C765   C767    1.481   .     S
C765   O799    1.308   .     A
C766   O798    1.313   .     A
C766   O800    1.308   .     A
C766   C768    1.481   .     S
C767   C771    1.413   .     A
C767   C773    1.403   .     A
C768   C772    1.413   .     A
C768   C774    1.403   .     A
C769   C771    1.402   .     A
C769   C777    1.402   .     A
C770   C778    1.402   .     A
C770   C772    1.402   .     A
C770   H678    1.083   1_655 S
C772   O695    1.368   1_655 S
C773   C775    1.397   .     A
C773   Br802   1.923   .     S
C774   Br801   1.922   .     S
C774   C776    1.397   .     A
C775   C779    1.416   .     A
C775   C777    1.404   .     A
C776   C778    1.404   .     A
C776   C780    1.416   .     A
C777   C275    1.392   1_556 S
C779   C294    1.421   1_556 S
Cu781  O793    1.952   .     S
Cu781  O797    1.939   .     S
Cu781  O796    1.948   .     S
Cu781  N792    2.043   .     S
Cu781  O800    1.930   .     S
Cu781  Cu782   2.719   .     S
Cu782  O798    1.939   .     S
Cu782  O799    1.930   .     S
Cu782  O795    1.948   .     S
Cu782  N791    2.043   .     S
Cu782  O794    1.952   .     S
H785   C661    1.083   1_655 S
H788   C926    1.088   .     S
H790   N684    1.029   1_655 S
N791   H681    1.029   1_655 S
N791   N684    1.300   1_655 S
H804   O695    0.990   1_655 S
O805   C663    1.368   1_655 S
O805   H698    0.990   1_655 S
O807   H808    0.992   .     S
O809   H810    0.992   .     S
C811   O847    1.300   .     A
C811   C817    1.428   .     S
C811   O849    1.296   .     A
C812   O850    1.296   .     A
C812   O848    1.300   .     A
C812   C818    1.428   .     S
C813   C834    1.422   .     A
C813   O861    1.382   .     S
C813   C815    1.406   .     A
C814   O863    1.382   .     S
C814   C816    1.406   .     A
C814   C833    1.422   .     A
C815   H837    1.084   .     S
C816   H838    1.084   .     S
C816   C346    1.392   1_556 S
C817   C494    1.330   1_565 S
C817   H517    1.088   1_565 S
C819   O851    1.313   .     A
C819   C821    1.481   .     S
C819   O853    1.308   .     A
C820   O852    1.313   .     A
C820   O854    1.308   .     A
C820   C822    1.481   .     S
C821   C825    1.413   .     A
C821   C827    1.403   .     A
C822   C826    1.413   .     A
C822   C828    1.403   .     A
C823   C825    1.402   .     A
C823   C831    1.402   .     A
C823   H947    1.083   1_455 S
C824   C832    1.402   .     A
C824   C826    1.402   .     A
C824   H894    1.083   .     S
C825   O967    1.368   1_455 S
C826   O911    1.368   .     S
C827   C829    1.397   .     A
C827   Br856   1.923   .     S
C828   Br855   1.922   .     S
C828   C830    1.397   .     A
C829   C833    1.416   .     A
C829   C831    1.404   .     A
C830   C832    1.404   .     A
C830   C834    1.416   .     A
C831   C329    1.392   1_556 S
C833   C348    1.421   1_556 S
Cu835  O847    1.952   .     S
Cu835  O851    1.939   .     S
Cu835  O850    1.948   .     S
Cu835  N846    2.043   .     S
Cu835  O854    1.930   .     S
Cu835  Cu836   2.719   .     S
Cu836  O852    1.939   .     S
Cu836  O853    1.930   .     S
Cu836  O849    1.948   .     S
Cu836  N845    2.043   .     S
Cu836  O848    1.952   .     S
H839   C877    1.083   .     S
H840   C932    1.083   1_455 S
H842   C494    1.088   1_565 S
H843   N953    1.029   1_455 S
H844   N900    1.029   .     S
N845   H897    1.029   .     S
N845   N900    1.300   .     S
N846   H952    1.029   1_455 S
N846   N953    1.300   1_455 S
O857   C934    1.368   1_455 S
O857   H966    0.990   1_455 S
H858   O911    0.990   .     S
O859   C879    1.368   .     S
O859   H914    0.990   .     S
H860   O967    0.990   1_455 S
O861   H862    0.992   .     S
O863   H864    0.992   .     S
C865   O901    1.300   .     A
C865   C871    1.428   .     S
C865   O903    1.296   .     A
C866   O904    1.296   .     A
C866   O902    1.300   .     A
C866   C872    1.428   .     S
C867   C888    1.422   .     A
C867   O915    1.382   .     S
C867   C869    1.406   .     A
C868   O917    1.382   .     S
C868   C870    1.406   .     A
C868   C887    1.422   .     A
C869   H891    1.084   .     S
C870   H892    1.084   .     S
C870   C400    1.392   1_556 S
C871   C548    1.330   1_565 S
C871   H571    1.088   1_565 S
C873   O905    1.313   .     A
C873   C875    1.481   .     S
C873   O907    1.308   .     A
C874   O906    1.313   .     A
C874   O908    1.308   .     A
C874   C876    1.481   .     S
C875   C879    1.413   .     A
C875   C881    1.403   .     A
C876   C880    1.413   .     A
C876   C882    1.403   .     A
C877   C879    1.402   .     A
C877   C885    1.402   .     A
C878   C886    1.402   .     A
C878   C880    1.402   .     A
C878   H948    1.083   .     S
C880   O965    1.368   .     S
C881   C883    1.397   .     A
C881   Br910   1.923   .     S
C882   Br909   1.922   .     S
C882   C884    1.397   .     A
C883   C887    1.416   .     A
C883   C885    1.404   .     A
C884   C886    1.404   .     A
C884   C888    1.416   .     A
C885   C383    1.392   1_556 S
C887   C402    1.421   1_556 S
Cu889  O901    1.952   .     S
Cu889  O905    1.939   .     S
Cu889  O904    1.948   .     S
Cu889  N900    2.043   .     S
Cu889  O908    1.930   .     S
Cu889  Cu890   2.719   .     S
Cu890  O906    1.939   .     S
Cu890  O907    1.930   .     S
Cu890  O903    1.948   .     S
Cu890  N899    2.043   .     S
Cu890  O902    1.952   .     S
H893   C931    1.083   .     S
H896   C548    1.088   1_565 S
H898   N954    1.029   .     S
N899   H951    1.029   .     S
N899   N954    1.300   .     S
H912   O965    0.990   .     S
O913   C933    1.368   .     S
O913   H968    0.990   .     S
O915   H916    0.992   .     S
O917   H918    0.992   .     S
C919   O955    1.300   .     A
C919   C925    1.428   .     S
C919   O957    1.296   .     A
C920   O958    1.296   .     A
C920   O956    1.300   .     A
C920   C926    1.428   .     S
C921   C942    1.422   .     A
C921   O969    1.382   .     S
C921   C923    1.406   .     A
C922   O971    1.382   .     S
C922   C924    1.406   .     A
C922   C941    1.422   .     A
C923   H945    1.084   .     S
C924   H946    1.084   .     S
C924   C454    1.392   1_556 S
C925   C602    1.330   1_565 S
C925   H625    1.088   1_565 S
C927   O959    1.313   .     A
C927   C929    1.481   .     S
C927   O961    1.308   .     A
C928   O960    1.313   .     A
C928   O962    1.308   .     A
C928   C930    1.481   .     S
C929   C933    1.413   .     A
C929   C935    1.403   .     A
C930   C934    1.413   .     A
C930   C936    1.403   .     A
C931   C933    1.402   .     A
C931   C939    1.402   .     A
C932   C940    1.402   .     A
C932   C934    1.402   .     A
C932   H840    1.083   1_655 S
C934   O857    1.368   1_655 S
C935   C937    1.397   .     A
C935   Br964   1.923   .     S
C936   Br963   1.922   .     S
C936   C938    1.397   .     A
C937   C941    1.416   .     A
C937   C939    1.404   .     A
C938   C940    1.404   .     A
C938   C942    1.416   .     A
C939   C437    1.392   1_556 S
C941   C456    1.421   1_556 S
Cu943  O955    1.952   .     S
Cu943  O959    1.939   .     S
Cu943  O958    1.948   .     S
Cu943  N954    2.043   .     S
Cu943  O962    1.930   .     S
Cu943  Cu944   2.719   .     S
Cu944  O960    1.939   .     S
Cu944  O961    1.930   .     S
Cu944  O957    1.948   .     S
Cu944  N953    2.043   .     S
Cu944  O956    1.952   .     S
H947   C823    1.083   1_655 S
H950   C602    1.088   1_565 S
H952   N846    1.029   1_655 S
N953   H843    1.029   1_655 S
N953   N846    1.300   1_655 S
H966   O857    0.990   1_655 S
O967   C825    1.368   1_655 S
O967   H860    0.990   1_655 S
O969   H970    0.992   .     S
O971   H972    0.992   .     S
