data_str_m2_o1_o17_pcu_sym.81
_audit_creation_date              2020-01-03
_audit_creation_method            'Materials Studio'
_symmetry_space_group_name_H-M    'P1'
_symmetry_Int_Tables_number       1
_symmetry_cell_setting            triclinic
loop_
_symmetry_equiv_pos_as_xyz
  x,y,z
_cell_length_a                    32.5040
_cell_length_b                    28.5349
_cell_length_c                    30.1625
_cell_angle_alpha                 89.9784
_cell_angle_beta                  90.1716
_cell_angle_gamma                 89.9952
loop_
_atom_site_label
_atom_site_type_symbol
_atom_site_fract_x
_atom_site_fract_y
_atom_site_fract_z
_atom_site_U_iso_or_equiv
_atom_site_adp_type
_atom_site_occupancy
C1     C     0.08735   0.16667   0.24997   0.00000  Uiso   1.00
C2     C     0.04273   0.16667   0.24996   0.00000  Uiso   1.00
C3     C     0.14124   0.02483   0.22225   0.00000  Uiso   1.00
C4     C     0.19209   0.30850   0.27776   0.00000  Uiso   1.00
C5     C     0.19209   0.02480   0.27775   0.00000  Uiso   1.00
C6     C     0.14124   0.30853   0.22225   0.00000  Uiso   1.00
C7     C     0.16663   0.16668   0.16430   0.00000  Uiso   1.00
C8     C     0.16667   0.16665   0.33571   0.00000  Uiso   1.00
C9     C     0.17639   0.20757   0.40728   0.00000  Uiso   1.00
C10    C     0.15623   0.12589   0.09276   0.00000  Uiso   1.00
C11    C     0.16652   0.16660   0.38410   0.00000  Uiso   1.00
C12    C     0.24599   0.16667   0.25003   0.00000  Uiso   1.00
C13    C     0.16659   0.16673   0.11591   0.00000  Uiso   1.00
C14    C     0.15647   0.12555   0.40714   0.00000  Uiso   1.00
C15    C     0.17689   0.20767   0.09283   0.00000  Uiso   1.00
C16    C     0.15582   0.12502   0.45353   0.00000  Uiso   1.00
C17    C     0.17710   0.20819   0.04647   0.00000  Uiso   1.00
C18    C     0.16624   0.16651   0.47675   0.00000  Uiso   1.00
C19    C     0.16640   0.16682   0.02326   0.00000  Uiso   1.00
C20    C     0.17659   0.20774   0.45344   0.00000  Uiso   1.00
C21    C     0.15591   0.12569   0.04659   0.00000  Uiso   1.00
C22    C     0.14506   0.08405   0.47713   0.00000  Uiso   1.00
C23    C     0.14516   0.08491   0.02358   0.00000  Uiso   1.00
C24    C     0.18780   0.24902   0.02286   0.00000  Uiso   1.00
C25    C     0.18724   0.24855   0.47650   0.00000  Uiso   1.00
C26    C     0.02129   0.12408   0.25000   0.00000  Uiso   1.00
C27    C     0.31205   0.20925   0.25000   0.00000  Uiso   1.00
C28    C     0.31205   0.12408   0.25005   0.00000  Uiso   1.00
C29    C     0.02128   0.20926   0.24995   0.00000  Uiso   1.00
C30    C     0.29060   0.16667   0.25004   0.00000  Uiso   1.00
Cu31   Cu    0.16667   0.21355   0.25000   0.00000  Uiso   1.00
Cu32   Cu    0.16667   0.11978   0.25000   0.00000  Uiso   1.00
H33    H     0.18440   0.23925   0.38940   0.00000  Uiso   1.00
H34    H     0.03728   0.24255   0.24991   0.00000  Uiso   1.00
H35    H     0.12087   0.04356   0.20002   0.00000  Uiso   1.00
H36    H     0.21246   0.28977   0.29998   0.00000  Uiso   1.00
H37    H     0.21246   0.04351   0.29997   0.00000  Uiso   1.00
H38    H     0.12087   0.28982   0.20003   0.00000  Uiso   1.00
H39    H     0.10526   0.04739   0.43931   0.00000  Uiso   1.00
H40    H     0.13043   0.01397   0.47611   0.00000  Uiso   1.00
H41    H     0.17954   0.31770   0.03602   0.00000  Uiso   1.00
H42    H     0.22914   0.30016   0.03554   0.00000  Uiso   1.00
H43    H     0.14805   0.09430   0.11069   0.00000  Uiso   1.00
H44    H     0.14883   0.09417   0.38869   0.00000  Uiso   1.00
H45    H     0.18506   0.23897   0.11118   0.00000  Uiso   1.00
H46    H     0.13658   0.05374   0.04188   0.00000  Uiso   1.00
H47    H     0.19536   0.28015   0.45857   0.00000  Uiso   1.00
H48    H     0.03730   0.09078   0.25000   0.00000  Uiso   1.00
H49    H     0.29604   0.24255   0.25001   0.00000  Uiso   1.00
H50    H     0.29605   0.09078   0.25009   0.00000  Uiso   1.00
N51    N     0.16667   0.28402   0.25000   0.00000  Uiso   1.00
N52    N     0.16667   0.04931   0.25000   0.00000  Uiso   1.00
N53    N     0.13405   0.04182   0.45392   0.00000  Uiso   1.00
N54    N     0.19952   0.29094   0.04579   0.00000  Uiso   1.00
O55    O     0.10655   0.20625   0.25000   0.00000  Uiso   1.00
O56    O     0.22679   0.12709   0.25001   0.00000  Uiso   1.00
O57    O     0.22679   0.20625   0.25001   0.00000  Uiso   1.00
O58    O     0.10655   0.12709   0.25000   0.00000  Uiso   1.00
O59    O     0.16666   0.20627   0.18513   0.00000  Uiso   1.00
O60    O     0.16668   0.12707   0.31487   0.00000  Uiso   1.00
O61    O     0.16668   0.20627   0.31487   0.00000  Uiso   1.00
O62    O     0.16666   0.12707   0.18513   0.00000  Uiso   1.00
C63    C     0.42068   0.16667   0.24997   0.00000  Uiso   1.00
C64    C     0.37607   0.16667   0.24996   0.00000  Uiso   1.00
C65    C     0.47457   0.02483   0.22225   0.00000  Uiso   1.00
C66    C     0.52543   0.30850   0.27776   0.00000  Uiso   1.00
C67    C     0.52543   0.02480   0.27775   0.00000  Uiso   1.00
C68    C     0.47457   0.30853   0.22225   0.00000  Uiso   1.00
C69    C     0.49997   0.16668   0.16430   0.00000  Uiso   1.00
C70    C     0.50000   0.16665   0.33571   0.00000  Uiso   1.00
C71    C     0.50972   0.20757   0.40728   0.00000  Uiso   1.00
C72    C     0.48956   0.12589   0.09276   0.00000  Uiso   1.00
C73    C     0.49986   0.16660   0.38410   0.00000  Uiso   1.00
C74    C     0.57932   0.16667   0.25003   0.00000  Uiso   1.00
C75    C     0.49992   0.16673   0.11591   0.00000  Uiso   1.00
C76    C     0.48980   0.12555   0.40714   0.00000  Uiso   1.00
C77    C     0.51023   0.20767   0.09283   0.00000  Uiso   1.00
C78    C     0.48915   0.12502   0.45353   0.00000  Uiso   1.00
C79    C     0.51043   0.20819   0.04647   0.00000  Uiso   1.00
C80    C     0.49957   0.16651   0.47675   0.00000  Uiso   1.00
C81    C     0.49973   0.16682   0.02326   0.00000  Uiso   1.00
C82    C     0.50993   0.20774   0.45344   0.00000  Uiso   1.00
C83    C     0.48925   0.12569   0.04659   0.00000  Uiso   1.00
C84    C     0.47839   0.08405   0.47713   0.00000  Uiso   1.00
C85    C     0.47849   0.08491   0.02358   0.00000  Uiso   1.00
C86    C     0.52113   0.24902   0.02286   0.00000  Uiso   1.00
C87    C     0.52057   0.24855   0.47650   0.00000  Uiso   1.00
C88    C     0.35462   0.12408   0.25000   0.00000  Uiso   1.00
C89    C     0.64538   0.20925   0.25000   0.00000  Uiso   1.00
C90    C     0.64539   0.12408   0.25005   0.00000  Uiso   1.00
C91    C     0.35461   0.20926   0.24995   0.00000  Uiso   1.00
C92    C     0.62393   0.16667   0.25004   0.00000  Uiso   1.00
Cu93   Cu    0.50000   0.21355   0.25000   0.00000  Uiso   1.00
Cu94   Cu    0.50000   0.11978   0.25000   0.00000  Uiso   1.00
H95    H     0.51774   0.23925   0.38940   0.00000  Uiso   1.00
H96    H     0.37062   0.24255   0.24991   0.00000  Uiso   1.00
H97    H     0.45421   0.04356   0.20002   0.00000  Uiso   1.00
H98    H     0.54579   0.28977   0.29998   0.00000  Uiso   1.00
H99    H     0.54579   0.04351   0.29997   0.00000  Uiso   1.00
H100   H     0.45420   0.28982   0.20003   0.00000  Uiso   1.00
H101   H     0.43859   0.04739   0.43931   0.00000  Uiso   1.00
H102   H     0.46377   0.01397   0.47611   0.00000  Uiso   1.00
H103   H     0.51287   0.31770   0.03602   0.00000  Uiso   1.00
H104   H     0.56247   0.30016   0.03554   0.00000  Uiso   1.00
H105   H     0.48138   0.09430   0.11069   0.00000  Uiso   1.00
H106   H     0.48216   0.09417   0.38869   0.00000  Uiso   1.00
H107   H     0.51839   0.23897   0.11118   0.00000  Uiso   1.00
H108   H     0.46991   0.05374   0.04188   0.00000  Uiso   1.00
H109   H     0.52869   0.28015   0.45857   0.00000  Uiso   1.00
H110   H     0.37063   0.09078   0.25000   0.00000  Uiso   1.00
H111   H     0.62937   0.24255   0.25001   0.00000  Uiso   1.00
H112   H     0.62938   0.09078   0.25009   0.00000  Uiso   1.00
N113   N     0.50000   0.28402   0.25000   0.00000  Uiso   1.00
N114   N     0.50000   0.04931   0.25000   0.00000  Uiso   1.00
N115   N     0.46739   0.04182   0.45392   0.00000  Uiso   1.00
N116   N     0.53286   0.29094   0.04579   0.00000  Uiso   1.00
O117   O     0.43988   0.20625   0.25000   0.00000  Uiso   1.00
O118   O     0.56012   0.12709   0.25001   0.00000  Uiso   1.00
O119   O     0.56012   0.20625   0.25001   0.00000  Uiso   1.00
O120   O     0.43988   0.12709   0.25000   0.00000  Uiso   1.00
O121   O     0.49999   0.20627   0.18513   0.00000  Uiso   1.00
O122   O     0.50001   0.12707   0.31487   0.00000  Uiso   1.00
O123   O     0.50001   0.20627   0.31487   0.00000  Uiso   1.00
O124   O     0.49999   0.12707   0.18513   0.00000  Uiso   1.00
C125   C     0.75401   0.16667   0.24997   0.00000  Uiso   1.00
C126   C     0.70940   0.16667   0.24996   0.00000  Uiso   1.00
C127   C     0.80791   0.02483   0.22225   0.00000  Uiso   1.00
C128   C     0.85876   0.30850   0.27776   0.00000  Uiso   1.00
C129   C     0.85876   0.02480   0.27775   0.00000  Uiso   1.00
C130   C     0.80790   0.30853   0.22225   0.00000  Uiso   1.00
C131   C     0.83330   0.16668   0.16430   0.00000  Uiso   1.00
C132   C     0.83334   0.16665   0.33571   0.00000  Uiso   1.00
C133   C     0.84305   0.20757   0.40728   0.00000  Uiso   1.00
C134   C     0.82289   0.12589   0.09276   0.00000  Uiso   1.00
C135   C     0.83319   0.16660   0.38410   0.00000  Uiso   1.00
C136   C     0.91265   0.16667   0.25003   0.00000  Uiso   1.00
C137   C     0.83326   0.16673   0.11591   0.00000  Uiso   1.00
C138   C     0.82314   0.12555   0.40714   0.00000  Uiso   1.00
C139   C     0.84356   0.20767   0.09283   0.00000  Uiso   1.00
C140   C     0.82249   0.12502   0.45353   0.00000  Uiso   1.00
C141   C     0.84376   0.20819   0.04647   0.00000  Uiso   1.00
C142   C     0.83290   0.16651   0.47675   0.00000  Uiso   1.00
C143   C     0.83306   0.16682   0.02326   0.00000  Uiso   1.00
C144   C     0.84326   0.20774   0.45344   0.00000  Uiso   1.00
C145   C     0.82258   0.12569   0.04659   0.00000  Uiso   1.00
C146   C     0.81173   0.08405   0.47713   0.00000  Uiso   1.00
C147   C     0.81183   0.08491   0.02358   0.00000  Uiso   1.00
C148   C     0.85446   0.24902   0.02286   0.00000  Uiso   1.00
C149   C     0.85390   0.24855   0.47650   0.00000  Uiso   1.00
C150   C     0.68795   0.12408   0.25000   0.00000  Uiso   1.00
C151   C     0.97871   0.20925   0.25000   0.00000  Uiso   1.00
C152   C     0.97872   0.12408   0.25005   0.00000  Uiso   1.00
C153   C     0.68794   0.20926   0.24995   0.00000  Uiso   1.00
C154   C     0.95727   0.16667   0.25004   0.00000  Uiso   1.00
Cu155  Cu    0.83333   0.21355   0.25000   0.00000  Uiso   1.00
Cu156  Cu    0.83333   0.11978   0.25000   0.00000  Uiso   1.00
H157   H     0.85107   0.23925   0.38940   0.00000  Uiso   1.00
H158   H     0.70395   0.24255   0.24991   0.00000  Uiso   1.00
H159   H     0.78754   0.04356   0.20002   0.00000  Uiso   1.00
H160   H     0.87912   0.28977   0.29998   0.00000  Uiso   1.00
H161   H     0.87913   0.04351   0.29997   0.00000  Uiso   1.00
H162   H     0.78754   0.28982   0.20003   0.00000  Uiso   1.00
H163   H     0.77192   0.04739   0.43931   0.00000  Uiso   1.00
H164   H     0.79710   0.01397   0.47611   0.00000  Uiso   1.00
H165   H     0.84621   0.31770   0.03602   0.00000  Uiso   1.00
H166   H     0.89581   0.30016   0.03554   0.00000  Uiso   1.00
H167   H     0.81471   0.09430   0.11069   0.00000  Uiso   1.00
H168   H     0.81549   0.09417   0.38869   0.00000  Uiso   1.00
H169   H     0.85172   0.23897   0.11118   0.00000  Uiso   1.00
H170   H     0.80324   0.05374   0.04188   0.00000  Uiso   1.00
H171   H     0.86203   0.28015   0.45857   0.00000  Uiso   1.00
H172   H     0.70396   0.09078   0.25000   0.00000  Uiso   1.00
H173   H     0.96270   0.24255   0.25001   0.00000  Uiso   1.00
H174   H     0.96272   0.09078   0.25009   0.00000  Uiso   1.00
N175   N     0.83333   0.28402   0.25000   0.00000  Uiso   1.00
N176   N     0.83333   0.04931   0.25000   0.00000  Uiso   1.00
N177   N     0.80072   0.04182   0.45392   0.00000  Uiso   1.00
N178   N     0.86619   0.29094   0.04579   0.00000  Uiso   1.00
O179   O     0.77321   0.20625   0.25000   0.00000  Uiso   1.00
O180   O     0.89345   0.12709   0.25001   0.00000  Uiso   1.00
O181   O     0.89345   0.20625   0.25001   0.00000  Uiso   1.00
O182   O     0.77321   0.12709   0.25000   0.00000  Uiso   1.00
O183   O     0.83332   0.20627   0.18513   0.00000  Uiso   1.00
O184   O     0.83334   0.12707   0.31487   0.00000  Uiso   1.00
O185   O     0.83334   0.20627   0.31487   0.00000  Uiso   1.00
O186   O     0.83332   0.12707   0.18513   0.00000  Uiso   1.00
C187   C     0.08735   0.50000   0.24997   0.00000  Uiso   1.00
C188   C     0.04273   0.50000   0.24996   0.00000  Uiso   1.00
C189   C     0.14124   0.35816   0.22225   0.00000  Uiso   1.00
C190   C     0.19209   0.64184   0.27776   0.00000  Uiso   1.00
C191   C     0.19209   0.35813   0.27775   0.00000  Uiso   1.00
C192   C     0.14124   0.64187   0.22225   0.00000  Uiso   1.00
C193   C     0.16663   0.50001   0.16430   0.00000  Uiso   1.00
C194   C     0.16667   0.49999   0.33571   0.00000  Uiso   1.00
C195   C     0.17639   0.54090   0.40728   0.00000  Uiso   1.00
C196   C     0.15623   0.45923   0.09276   0.00000  Uiso   1.00
C197   C     0.16652   0.49993   0.38410   0.00000  Uiso   1.00
C198   C     0.24599   0.50000   0.25003   0.00000  Uiso   1.00
C199   C     0.16659   0.50007   0.11591   0.00000  Uiso   1.00
C200   C     0.15647   0.45888   0.40714   0.00000  Uiso   1.00
C201   C     0.17689   0.54100   0.09283   0.00000  Uiso   1.00
C202   C     0.15582   0.45836   0.45353   0.00000  Uiso   1.00
C203   C     0.17710   0.54152   0.04647   0.00000  Uiso   1.00
C204   C     0.16624   0.49984   0.47675   0.00000  Uiso   1.00
C205   C     0.16640   0.50015   0.02326   0.00000  Uiso   1.00
C206   C     0.17659   0.54108   0.45344   0.00000  Uiso   1.00
C207   C     0.15591   0.45903   0.04659   0.00000  Uiso   1.00
C208   C     0.14506   0.41738   0.47713   0.00000  Uiso   1.00
C209   C     0.14516   0.41824   0.02358   0.00000  Uiso   1.00
C210   C     0.18780   0.58235   0.02286   0.00000  Uiso   1.00
C211   C     0.18724   0.58188   0.47650   0.00000  Uiso   1.00
C212   C     0.02129   0.45741   0.25000   0.00000  Uiso   1.00
C213   C     0.31205   0.54259   0.25000   0.00000  Uiso   1.00
C214   C     0.31205   0.45741   0.25005   0.00000  Uiso   1.00
C215   C     0.02128   0.54259   0.24995   0.00000  Uiso   1.00
C216   C     0.29060   0.50000   0.25004   0.00000  Uiso   1.00
Cu217  Cu    0.16667   0.54689   0.25000   0.00000  Uiso   1.00
Cu218  Cu    0.16667   0.45311   0.25000   0.00000  Uiso   1.00
H219   H     0.18440   0.57259   0.38940   0.00000  Uiso   1.00
H220   H     0.03728   0.57589   0.24991   0.00000  Uiso   1.00
H221   H     0.12087   0.37690   0.20002   0.00000  Uiso   1.00
H222   H     0.21246   0.62310   0.29998   0.00000  Uiso   1.00
H223   H     0.21246   0.37685   0.29997   0.00000  Uiso   1.00
H224   H     0.12087   0.62315   0.20003   0.00000  Uiso   1.00
H225   H     0.10526   0.38072   0.43931   0.00000  Uiso   1.00
H226   H     0.13043   0.34731   0.47611   0.00000  Uiso   1.00
H227   H     0.17954   0.65104   0.03602   0.00000  Uiso   1.00
H228   H     0.22914   0.63349   0.03554   0.00000  Uiso   1.00
H229   H     0.14805   0.42763   0.11069   0.00000  Uiso   1.00
H230   H     0.14883   0.42750   0.38869   0.00000  Uiso   1.00
H231   H     0.18506   0.57230   0.11118   0.00000  Uiso   1.00
H232   H     0.13658   0.38707   0.04188   0.00000  Uiso   1.00
H233   H     0.19536   0.61349   0.45857   0.00000  Uiso   1.00
H234   H     0.03730   0.42412   0.25000   0.00000  Uiso   1.00
H235   H     0.29604   0.57588   0.25001   0.00000  Uiso   1.00
H236   H     0.29605   0.42411   0.25009   0.00000  Uiso   1.00
N237   N     0.16667   0.61736   0.25000   0.00000  Uiso   1.00
N238   N     0.16667   0.38264   0.25000   0.00000  Uiso   1.00
N239   N     0.13405   0.37515   0.45392   0.00000  Uiso   1.00
N240   N     0.19952   0.62428   0.04579   0.00000  Uiso   1.00
O241   O     0.10655   0.53958   0.25000   0.00000  Uiso   1.00
O242   O     0.22679   0.46042   0.25001   0.00000  Uiso   1.00
O243   O     0.22679   0.53958   0.25001   0.00000  Uiso   1.00
O244   O     0.10655   0.46042   0.25000   0.00000  Uiso   1.00
O245   O     0.16666   0.53960   0.18513   0.00000  Uiso   1.00
O246   O     0.16668   0.46040   0.31487   0.00000  Uiso   1.00
O247   O     0.16668   0.53960   0.31487   0.00000  Uiso   1.00
O248   O     0.16666   0.46040   0.18513   0.00000  Uiso   1.00
C249   C     0.42068   0.50000   0.24997   0.00000  Uiso   1.00
C250   C     0.37607   0.50000   0.24996   0.00000  Uiso   1.00
C251   C     0.47457   0.35816   0.22225   0.00000  Uiso   1.00
C252   C     0.52543   0.64184   0.27776   0.00000  Uiso   1.00
C253   C     0.52543   0.35813   0.27775   0.00000  Uiso   1.00
C254   C     0.47457   0.64187   0.22225   0.00000  Uiso   1.00
C255   C     0.49997   0.50001   0.16430   0.00000  Uiso   1.00
C256   C     0.50000   0.49999   0.33571   0.00000  Uiso   1.00
C257   C     0.50972   0.54090   0.40728   0.00000  Uiso   1.00
C258   C     0.48956   0.45923   0.09276   0.00000  Uiso   1.00
C259   C     0.49986   0.49993   0.38410   0.00000  Uiso   1.00
C260   C     0.57932   0.50000   0.25003   0.00000  Uiso   1.00
C261   C     0.49992   0.50007   0.11591   0.00000  Uiso   1.00
C262   C     0.48980   0.45888   0.40714   0.00000  Uiso   1.00
C263   C     0.51023   0.54100   0.09283   0.00000  Uiso   1.00
C264   C     0.48915   0.45836   0.45353   0.00000  Uiso   1.00
C265   C     0.51043   0.54152   0.04647   0.00000  Uiso   1.00
C266   C     0.49957   0.49984   0.47675   0.00000  Uiso   1.00
C267   C     0.49973   0.50015   0.02326   0.00000  Uiso   1.00
C268   C     0.50993   0.54108   0.45344   0.00000  Uiso   1.00
C269   C     0.48925   0.45903   0.04659   0.00000  Uiso   1.00
C270   C     0.47839   0.41738   0.47713   0.00000  Uiso   1.00
C271   C     0.47849   0.41824   0.02358   0.00000  Uiso   1.00
C272   C     0.52113   0.58235   0.02286   0.00000  Uiso   1.00
C273   C     0.52057   0.58188   0.47650   0.00000  Uiso   1.00
C274   C     0.35462   0.45741   0.25000   0.00000  Uiso   1.00
C275   C     0.64538   0.54259   0.25000   0.00000  Uiso   1.00
C276   C     0.64539   0.45741   0.25005   0.00000  Uiso   1.00
C277   C     0.35461   0.54259   0.24995   0.00000  Uiso   1.00
C278   C     0.62393   0.50000   0.25004   0.00000  Uiso   1.00
Cu279  Cu    0.50000   0.54689   0.25000   0.00000  Uiso   1.00
Cu280  Cu    0.50000   0.45311   0.25000   0.00000  Uiso   1.00
H281   H     0.51774   0.57259   0.38940   0.00000  Uiso   1.00
H282   H     0.37062   0.57589   0.24991   0.00000  Uiso   1.00
H283   H     0.45421   0.37690   0.20002   0.00000  Uiso   1.00
H284   H     0.54579   0.62310   0.29998   0.00000  Uiso   1.00
H285   H     0.54579   0.37685   0.29997   0.00000  Uiso   1.00
H286   H     0.45420   0.62315   0.20003   0.00000  Uiso   1.00
H287   H     0.43859   0.38072   0.43931   0.00000  Uiso   1.00
H288   H     0.46377   0.34731   0.47611   0.00000  Uiso   1.00
H289   H     0.51287   0.65104   0.03602   0.00000  Uiso   1.00
H290   H     0.56247   0.63349   0.03554   0.00000  Uiso   1.00
H291   H     0.48138   0.42763   0.11069   0.00000  Uiso   1.00
H292   H     0.48216   0.42750   0.38869   0.00000  Uiso   1.00
H293   H     0.51839   0.57230   0.11118   0.00000  Uiso   1.00
H294   H     0.46991   0.38707   0.04188   0.00000  Uiso   1.00
H295   H     0.52869   0.61349   0.45857   0.00000  Uiso   1.00
H296   H     0.37063   0.42412   0.25000   0.00000  Uiso   1.00
H297   H     0.62937   0.57588   0.25001   0.00000  Uiso   1.00
H298   H     0.62938   0.42411   0.25009   0.00000  Uiso   1.00
N299   N     0.50000   0.61736   0.25000   0.00000  Uiso   1.00
N300   N     0.50000   0.38264   0.25000   0.00000  Uiso   1.00
N301   N     0.46739   0.37515   0.45392   0.00000  Uiso   1.00
N302   N     0.53286   0.62428   0.04579   0.00000  Uiso   1.00
O303   O     0.43988   0.53958   0.25000   0.00000  Uiso   1.00
O304   O     0.56012   0.46042   0.25001   0.00000  Uiso   1.00
O305   O     0.56012   0.53958   0.25001   0.00000  Uiso   1.00
O306   O     0.43988   0.46042   0.25000   0.00000  Uiso   1.00
O307   O     0.49999   0.53960   0.18513   0.00000  Uiso   1.00
O308   O     0.50001   0.46040   0.31487   0.00000  Uiso   1.00
O309   O     0.50001   0.53960   0.31487   0.00000  Uiso   1.00
O310   O     0.49999   0.46040   0.18513   0.00000  Uiso   1.00
C311   C     0.75401   0.50000   0.24997   0.00000  Uiso   1.00
C312   C     0.70940   0.50000   0.24996   0.00000  Uiso   1.00
C313   C     0.80791   0.35816   0.22225   0.00000  Uiso   1.00
C314   C     0.85876   0.64184   0.27776   0.00000  Uiso   1.00
C315   C     0.85876   0.35813   0.27775   0.00000  Uiso   1.00
C316   C     0.80790   0.64187   0.22225   0.00000  Uiso   1.00
C317   C     0.83330   0.50001   0.16430   0.00000  Uiso   1.00
C318   C     0.83334   0.49999   0.33571   0.00000  Uiso   1.00
C319   C     0.84305   0.54090   0.40728   0.00000  Uiso   1.00
C320   C     0.82289   0.45923   0.09276   0.00000  Uiso   1.00
C321   C     0.83319   0.49993   0.38410   0.00000  Uiso   1.00
C322   C     0.91265   0.50000   0.25003   0.00000  Uiso   1.00
C323   C     0.83326   0.50007   0.11591   0.00000  Uiso   1.00
C324   C     0.82314   0.45888   0.40714   0.00000  Uiso   1.00
C325   C     0.84356   0.54100   0.09283   0.00000  Uiso   1.00
C326   C     0.82249   0.45836   0.45353   0.00000  Uiso   1.00
C327   C     0.84376   0.54152   0.04647   0.00000  Uiso   1.00
C328   C     0.83290   0.49984   0.47675   0.00000  Uiso   1.00
C329   C     0.83306   0.50015   0.02326   0.00000  Uiso   1.00
C330   C     0.84326   0.54108   0.45344   0.00000  Uiso   1.00
C331   C     0.82258   0.45903   0.04659   0.00000  Uiso   1.00
C332   C     0.81173   0.41738   0.47713   0.00000  Uiso   1.00
C333   C     0.81183   0.41824   0.02358   0.00000  Uiso   1.00
C334   C     0.85446   0.58235   0.02286   0.00000  Uiso   1.00
C335   C     0.85390   0.58188   0.47650   0.00000  Uiso   1.00
C336   C     0.68795   0.45741   0.25000   0.00000  Uiso   1.00
C337   C     0.97871   0.54259   0.25000   0.00000  Uiso   1.00
C338   C     0.97872   0.45741   0.25005   0.00000  Uiso   1.00
C339   C     0.68794   0.54259   0.24995   0.00000  Uiso   1.00
C340   C     0.95727   0.50000   0.25004   0.00000  Uiso   1.00
Cu341  Cu    0.83333   0.54689   0.25000   0.00000  Uiso   1.00
Cu342  Cu    0.83333   0.45311   0.25000   0.00000  Uiso   1.00
H343   H     0.85107   0.57259   0.38940   0.00000  Uiso   1.00
H344   H     0.70395   0.57589   0.24991   0.00000  Uiso   1.00
H345   H     0.78754   0.37690   0.20002   0.00000  Uiso   1.00
H346   H     0.87912   0.62310   0.29998   0.00000  Uiso   1.00
H347   H     0.87913   0.37685   0.29997   0.00000  Uiso   1.00
H348   H     0.78754   0.62315   0.20003   0.00000  Uiso   1.00
H349   H     0.77192   0.38072   0.43931   0.00000  Uiso   1.00
H350   H     0.79710   0.34731   0.47611   0.00000  Uiso   1.00
H351   H     0.84621   0.65104   0.03602   0.00000  Uiso   1.00
H352   H     0.89581   0.63349   0.03554   0.00000  Uiso   1.00
H353   H     0.81471   0.42763   0.11069   0.00000  Uiso   1.00
H354   H     0.81549   0.42750   0.38869   0.00000  Uiso   1.00
H355   H     0.85172   0.57230   0.11118   0.00000  Uiso   1.00
H356   H     0.80324   0.38707   0.04188   0.00000  Uiso   1.00
H357   H     0.86203   0.61349   0.45857   0.00000  Uiso   1.00
H358   H     0.70396   0.42412   0.25000   0.00000  Uiso   1.00
H359   H     0.96270   0.57588   0.25001   0.00000  Uiso   1.00
H360   H     0.96272   0.42411   0.25009   0.00000  Uiso   1.00
N361   N     0.83333   0.61736   0.25000   0.00000  Uiso   1.00
N362   N     0.83333   0.38264   0.25000   0.00000  Uiso   1.00
N363   N     0.80072   0.37515   0.45392   0.00000  Uiso   1.00
N364   N     0.86619   0.62428   0.04579   0.00000  Uiso   1.00
O365   O     0.77321   0.53958   0.25000   0.00000  Uiso   1.00
O366   O     0.89345   0.46042   0.25001   0.00000  Uiso   1.00
O367   O     0.89345   0.53958   0.25001   0.00000  Uiso   1.00
O368   O     0.77321   0.46042   0.25000   0.00000  Uiso   1.00
O369   O     0.83332   0.53960   0.18513   0.00000  Uiso   1.00
O370   O     0.83334   0.46040   0.31487   0.00000  Uiso   1.00
O371   O     0.83334   0.53960   0.31487   0.00000  Uiso   1.00
O372   O     0.83332   0.46040   0.18513   0.00000  Uiso   1.00
C373   C     0.08735   0.83333   0.24997   0.00000  Uiso   1.00
C374   C     0.04273   0.83333   0.24996   0.00000  Uiso   1.00
C375   C     0.14124   0.69150   0.22225   0.00000  Uiso   1.00
C376   C     0.19209   0.97517   0.27776   0.00000  Uiso   1.00
C377   C     0.19209   0.69147   0.27775   0.00000  Uiso   1.00
C378   C     0.14124   0.97520   0.22225   0.00000  Uiso   1.00
C379   C     0.16663   0.83335   0.16430   0.00000  Uiso   1.00
C380   C     0.16667   0.83332   0.33571   0.00000  Uiso   1.00
C381   C     0.17639   0.87424   0.40728   0.00000  Uiso   1.00
C382   C     0.15623   0.79256   0.09276   0.00000  Uiso   1.00
C383   C     0.16652   0.83327   0.38410   0.00000  Uiso   1.00
C384   C     0.24599   0.83333   0.25003   0.00000  Uiso   1.00
C385   C     0.16659   0.83340   0.11591   0.00000  Uiso   1.00
C386   C     0.15647   0.79221   0.40714   0.00000  Uiso   1.00
C387   C     0.17689   0.87433   0.09283   0.00000  Uiso   1.00
C388   C     0.15582   0.79169   0.45353   0.00000  Uiso   1.00
C389   C     0.17710   0.87485   0.04647   0.00000  Uiso   1.00
C390   C     0.16624   0.83317   0.47675   0.00000  Uiso   1.00
C391   C     0.16640   0.83348   0.02326   0.00000  Uiso   1.00
C392   C     0.17659   0.87441   0.45344   0.00000  Uiso   1.00
C393   C     0.15591   0.79236   0.04659   0.00000  Uiso   1.00
C394   C     0.14506   0.75072   0.47713   0.00000  Uiso   1.00
C395   C     0.14516   0.75158   0.02358   0.00000  Uiso   1.00
C396   C     0.18780   0.91569   0.02286   0.00000  Uiso   1.00
C397   C     0.18724   0.91521   0.47650   0.00000  Uiso   1.00
C398   C     0.02129   0.79075   0.25000   0.00000  Uiso   1.00
C399   C     0.31205   0.87592   0.25000   0.00000  Uiso   1.00
C400   C     0.31205   0.79074   0.25005   0.00000  Uiso   1.00
C401   C     0.02128   0.87592   0.24995   0.00000  Uiso   1.00
C402   C     0.29060   0.83333   0.25004   0.00000  Uiso   1.00
Cu403  Cu    0.16667   0.88022   0.25000   0.00000  Uiso   1.00
Cu404  Cu    0.16667   0.78645   0.25000   0.00000  Uiso   1.00
H405   H     0.18440   0.90592   0.38940   0.00000  Uiso   1.00
H406   H     0.03728   0.90922   0.24991   0.00000  Uiso   1.00
H407   H     0.12087   0.71023   0.20002   0.00000  Uiso   1.00
H408   H     0.21246   0.95644   0.29998   0.00000  Uiso   1.00
H409   H     0.21246   0.71018   0.29997   0.00000  Uiso   1.00
H410   H     0.12087   0.95649   0.20003   0.00000  Uiso   1.00
H411   H     0.10526   0.71405   0.43931   0.00000  Uiso   1.00
H412   H     0.13043   0.68064   0.47611   0.00000  Uiso   1.00
H413   H     0.17954   0.98437   0.03602   0.00000  Uiso   1.00
H414   H     0.22914   0.96682   0.03554   0.00000  Uiso   1.00
H415   H     0.14805   0.76096   0.11069   0.00000  Uiso   1.00
H416   H     0.14883   0.76083   0.38869   0.00000  Uiso   1.00
H417   H     0.18506   0.90564   0.11118   0.00000  Uiso   1.00
H418   H     0.13658   0.72041   0.04188   0.00000  Uiso   1.00
H419   H     0.19536   0.94682   0.45857   0.00000  Uiso   1.00
H420   H     0.03730   0.75745   0.25000   0.00000  Uiso   1.00
H421   H     0.29604   0.90922   0.25001   0.00000  Uiso   1.00
H422   H     0.29605   0.75745   0.25009   0.00000  Uiso   1.00
N423   N     0.16667   0.95069   0.25000   0.00000  Uiso   1.00
N424   N     0.16667   0.71598   0.25000   0.00000  Uiso   1.00
N425   N     0.13405   0.70848   0.45392   0.00000  Uiso   1.00
N426   N     0.19952   0.95761   0.04579   0.00000  Uiso   1.00
O427   O     0.10655   0.87291   0.25000   0.00000  Uiso   1.00
O428   O     0.22679   0.79375   0.25001   0.00000  Uiso   1.00
O429   O     0.22679   0.87291   0.25001   0.00000  Uiso   1.00
O430   O     0.10655   0.79375   0.25000   0.00000  Uiso   1.00
O431   O     0.16666   0.87293   0.18513   0.00000  Uiso   1.00
O432   O     0.16668   0.79373   0.31487   0.00000  Uiso   1.00
O433   O     0.16668   0.87293   0.31487   0.00000  Uiso   1.00
O434   O     0.16666   0.79373   0.18513   0.00000  Uiso   1.00
C435   C     0.42068   0.83333   0.24997   0.00000  Uiso   1.00
C436   C     0.37607   0.83333   0.24996   0.00000  Uiso   1.00
C437   C     0.47457   0.69150   0.22225   0.00000  Uiso   1.00
C438   C     0.52543   0.97517   0.27776   0.00000  Uiso   1.00
C439   C     0.52543   0.69147   0.27775   0.00000  Uiso   1.00
C440   C     0.47457   0.97520   0.22225   0.00000  Uiso   1.00
C441   C     0.49997   0.83335   0.16430   0.00000  Uiso   1.00
C442   C     0.50000   0.83332   0.33571   0.00000  Uiso   1.00
C443   C     0.50972   0.87424   0.40728   0.00000  Uiso   1.00
C444   C     0.48956   0.79256   0.09276   0.00000  Uiso   1.00
C445   C     0.49986   0.83327   0.38410   0.00000  Uiso   1.00
C446   C     0.57932   0.83333   0.25003   0.00000  Uiso   1.00
C447   C     0.49992   0.83340   0.11591   0.00000  Uiso   1.00
C448   C     0.48980   0.79221   0.40714   0.00000  Uiso   1.00
C449   C     0.51023   0.87433   0.09283   0.00000  Uiso   1.00
C450   C     0.48915   0.79169   0.45353   0.00000  Uiso   1.00
C451   C     0.51043   0.87485   0.04647   0.00000  Uiso   1.00
C452   C     0.49957   0.83317   0.47675   0.00000  Uiso   1.00
C453   C     0.49973   0.83348   0.02326   0.00000  Uiso   1.00
C454   C     0.50993   0.87441   0.45344   0.00000  Uiso   1.00
C455   C     0.48925   0.79236   0.04659   0.00000  Uiso   1.00
C456   C     0.47839   0.75072   0.47713   0.00000  Uiso   1.00
C457   C     0.47849   0.75158   0.02358   0.00000  Uiso   1.00
C458   C     0.52113   0.91569   0.02286   0.00000  Uiso   1.00
C459   C     0.52057   0.91521   0.47650   0.00000  Uiso   1.00
C460   C     0.35462   0.79075   0.25000   0.00000  Uiso   1.00
C461   C     0.64538   0.87592   0.25000   0.00000  Uiso   1.00
C462   C     0.64539   0.79074   0.25005   0.00000  Uiso   1.00
C463   C     0.35461   0.87592   0.24995   0.00000  Uiso   1.00
C464   C     0.62393   0.83333   0.25004   0.00000  Uiso   1.00
Cu465  Cu    0.50000   0.88022   0.25000   0.00000  Uiso   1.00
Cu466  Cu    0.50000   0.78645   0.25000   0.00000  Uiso   1.00
H467   H     0.51774   0.90592   0.38940   0.00000  Uiso   1.00
H468   H     0.37062   0.90922   0.24991   0.00000  Uiso   1.00
H469   H     0.45421   0.71023   0.20002   0.00000  Uiso   1.00
H470   H     0.54579   0.95644   0.29998   0.00000  Uiso   1.00
H471   H     0.54579   0.71018   0.29997   0.00000  Uiso   1.00
H472   H     0.45420   0.95649   0.20003   0.00000  Uiso   1.00
H473   H     0.43859   0.71405   0.43931   0.00000  Uiso   1.00
H474   H     0.46377   0.68064   0.47611   0.00000  Uiso   1.00
H475   H     0.51287   0.98437   0.03602   0.00000  Uiso   1.00
H476   H     0.56247   0.96682   0.03554   0.00000  Uiso   1.00
H477   H     0.48138   0.76096   0.11069   0.00000  Uiso   1.00
H478   H     0.48216   0.76083   0.38869   0.00000  Uiso   1.00
H479   H     0.51839   0.90564   0.11118   0.00000  Uiso   1.00
H480   H     0.46991   0.72041   0.04188   0.00000  Uiso   1.00
H481   H     0.52869   0.94682   0.45857   0.00000  Uiso   1.00
H482   H     0.37063   0.75745   0.25000   0.00000  Uiso   1.00
H483   H     0.62937   0.90922   0.25001   0.00000  Uiso   1.00
H484   H     0.62938   0.75745   0.25009   0.00000  Uiso   1.00
N485   N     0.50000   0.95069   0.25000   0.00000  Uiso   1.00
N486   N     0.50000   0.71598   0.25000   0.00000  Uiso   1.00
N487   N     0.46739   0.70848   0.45392   0.00000  Uiso   1.00
N488   N     0.53286   0.95761   0.04579   0.00000  Uiso   1.00
O489   O     0.43988   0.87291   0.25000   0.00000  Uiso   1.00
O490   O     0.56012   0.79375   0.25001   0.00000  Uiso   1.00
O491   O     0.56012   0.87291   0.25001   0.00000  Uiso   1.00
O492   O     0.43988   0.79375   0.25000   0.00000  Uiso   1.00
O493   O     0.49999   0.87293   0.18513   0.00000  Uiso   1.00
O494   O     0.50001   0.79373   0.31487   0.00000  Uiso   1.00
O495   O     0.50001   0.87293   0.31487   0.00000  Uiso   1.00
O496   O     0.49999   0.79373   0.18513   0.00000  Uiso   1.00
C497   C     0.75401   0.83333   0.24997   0.00000  Uiso   1.00
C498   C     0.70940   0.83333   0.24996   0.00000  Uiso   1.00
C499   C     0.80791   0.69150   0.22225   0.00000  Uiso   1.00
C500   C     0.85876   0.97517   0.27776   0.00000  Uiso   1.00
C501   C     0.85876   0.69147   0.27775   0.00000  Uiso   1.00
C502   C     0.80790   0.97520   0.22225   0.00000  Uiso   1.00
C503   C     0.83330   0.83335   0.16430   0.00000  Uiso   1.00
C504   C     0.83334   0.83332   0.33571   0.00000  Uiso   1.00
C505   C     0.84305   0.87424   0.40728   0.00000  Uiso   1.00
C506   C     0.82289   0.79256   0.09276   0.00000  Uiso   1.00
C507   C     0.83319   0.83327   0.38410   0.00000  Uiso   1.00
C508   C     0.91265   0.83333   0.25003   0.00000  Uiso   1.00
C509   C     0.83326   0.83340   0.11591   0.00000  Uiso   1.00
C510   C     0.82314   0.79221   0.40714   0.00000  Uiso   1.00
C511   C     0.84356   0.87433   0.09283   0.00000  Uiso   1.00
C512   C     0.82249   0.79169   0.45353   0.00000  Uiso   1.00
C513   C     0.84376   0.87485   0.04647   0.00000  Uiso   1.00
C514   C     0.83290   0.83317   0.47675   0.00000  Uiso   1.00
C515   C     0.83306   0.83348   0.02326   0.00000  Uiso   1.00
C516   C     0.84326   0.87441   0.45344   0.00000  Uiso   1.00
C517   C     0.82258   0.79236   0.04659   0.00000  Uiso   1.00
C518   C     0.81173   0.75072   0.47713   0.00000  Uiso   1.00
C519   C     0.81183   0.75158   0.02358   0.00000  Uiso   1.00
C520   C     0.85446   0.91569   0.02286   0.00000  Uiso   1.00
C521   C     0.85390   0.91521   0.47650   0.00000  Uiso   1.00
C522   C     0.68795   0.79075   0.25000   0.00000  Uiso   1.00
C523   C     0.97871   0.87592   0.25000   0.00000  Uiso   1.00
C524   C     0.97872   0.79074   0.25005   0.00000  Uiso   1.00
C525   C     0.68794   0.87592   0.24995   0.00000  Uiso   1.00
C526   C     0.95727   0.83333   0.25004   0.00000  Uiso   1.00
Cu527  Cu    0.83333   0.88022   0.25000   0.00000  Uiso   1.00
Cu528  Cu    0.83333   0.78645   0.25000   0.00000  Uiso   1.00
H529   H     0.85107   0.90592   0.38940   0.00000  Uiso   1.00
H530   H     0.70395   0.90922   0.24991   0.00000  Uiso   1.00
H531   H     0.78754   0.71023   0.20002   0.00000  Uiso   1.00
H532   H     0.87912   0.95644   0.29998   0.00000  Uiso   1.00
H533   H     0.87913   0.71018   0.29997   0.00000  Uiso   1.00
H534   H     0.78754   0.95649   0.20003   0.00000  Uiso   1.00
H535   H     0.77192   0.71405   0.43931   0.00000  Uiso   1.00
H536   H     0.79710   0.68064   0.47611   0.00000  Uiso   1.00
H537   H     0.84621   0.98437   0.03602   0.00000  Uiso   1.00
H538   H     0.89581   0.96682   0.03554   0.00000  Uiso   1.00
H539   H     0.81471   0.76096   0.11069   0.00000  Uiso   1.00
H540   H     0.81549   0.76083   0.38869   0.00000  Uiso   1.00
H541   H     0.85172   0.90564   0.11118   0.00000  Uiso   1.00
H542   H     0.80324   0.72041   0.04188   0.00000  Uiso   1.00
H543   H     0.86203   0.94682   0.45857   0.00000  Uiso   1.00
H544   H     0.70396   0.75745   0.25000   0.00000  Uiso   1.00
H545   H     0.96270   0.90922   0.25001   0.00000  Uiso   1.00
H546   H     0.96272   0.75745   0.25009   0.00000  Uiso   1.00
N547   N     0.83333   0.95069   0.25000   0.00000  Uiso   1.00
N548   N     0.83333   0.71598   0.25000   0.00000  Uiso   1.00
N549   N     0.80072   0.70848   0.45392   0.00000  Uiso   1.00
N550   N     0.86619   0.95761   0.04579   0.00000  Uiso   1.00
O551   O     0.77321   0.87291   0.25000   0.00000  Uiso   1.00
O552   O     0.89345   0.79375   0.25001   0.00000  Uiso   1.00
O553   O     0.89345   0.87291   0.25001   0.00000  Uiso   1.00
O554   O     0.77321   0.79375   0.25000   0.00000  Uiso   1.00
O555   O     0.83332   0.87293   0.18513   0.00000  Uiso   1.00
O556   O     0.83334   0.79373   0.31487   0.00000  Uiso   1.00
O557   O     0.83334   0.87293   0.31487   0.00000  Uiso   1.00
O558   O     0.83332   0.79373   0.18513   0.00000  Uiso   1.00
C559   C     0.08735   0.16667   0.74997   0.00000  Uiso   1.00
C560   C     0.04273   0.16667   0.74996   0.00000  Uiso   1.00
C561   C     0.14124   0.02483   0.72225   0.00000  Uiso   1.00
C562   C     0.19209   0.30850   0.77776   0.00000  Uiso   1.00
C563   C     0.19209   0.02480   0.77775   0.00000  Uiso   1.00
C564   C     0.14124   0.30853   0.72225   0.00000  Uiso   1.00
C565   C     0.16663   0.16668   0.66430   0.00000  Uiso   1.00
C566   C     0.16667   0.16665   0.83571   0.00000  Uiso   1.00
C567   C     0.17639   0.20757   0.90728   0.00000  Uiso   1.00
C568   C     0.15623   0.12589   0.59276   0.00000  Uiso   1.00
C569   C     0.16652   0.16660   0.88410   0.00000  Uiso   1.00
C570   C     0.24599   0.16667   0.75003   0.00000  Uiso   1.00
C571   C     0.16659   0.16673   0.61591   0.00000  Uiso   1.00
C572   C     0.15647   0.12555   0.90714   0.00000  Uiso   1.00
C573   C     0.17689   0.20767   0.59283   0.00000  Uiso   1.00
C574   C     0.15582   0.12502   0.95353   0.00000  Uiso   1.00
C575   C     0.17710   0.20819   0.54647   0.00000  Uiso   1.00
C576   C     0.16624   0.16651   0.97675   0.00000  Uiso   1.00
C577   C     0.16640   0.16682   0.52326   0.00000  Uiso   1.00
C578   C     0.17659   0.20774   0.95344   0.00000  Uiso   1.00
C579   C     0.15591   0.12569   0.54659   0.00000  Uiso   1.00
C580   C     0.14506   0.08405   0.97713   0.00000  Uiso   1.00
C581   C     0.14516   0.08491   0.52358   0.00000  Uiso   1.00
C582   C     0.18780   0.24902   0.52286   0.00000  Uiso   1.00
C583   C     0.18724   0.24855   0.97650   0.00000  Uiso   1.00
C584   C     0.02129   0.12408   0.75000   0.00000  Uiso   1.00
C585   C     0.31205   0.20925   0.75000   0.00000  Uiso   1.00
C586   C     0.31205   0.12408   0.75005   0.00000  Uiso   1.00
C587   C     0.02128   0.20926   0.74995   0.00000  Uiso   1.00
C588   C     0.29060   0.16667   0.75004   0.00000  Uiso   1.00
Cu589  Cu    0.16667   0.21355   0.75000   0.00000  Uiso   1.00
Cu590  Cu    0.16667   0.11978   0.75000   0.00000  Uiso   1.00
H591   H     0.18440   0.23925   0.88940   0.00000  Uiso   1.00
H592   H     0.03728   0.24255   0.74991   0.00000  Uiso   1.00
H593   H     0.12087   0.04356   0.70002   0.00000  Uiso   1.00
H594   H     0.21246   0.28977   0.79998   0.00000  Uiso   1.00
H595   H     0.21246   0.04351   0.79997   0.00000  Uiso   1.00
H596   H     0.12087   0.28982   0.70003   0.00000  Uiso   1.00
H597   H     0.10526   0.04739   0.93931   0.00000  Uiso   1.00
H598   H     0.13043   0.01397   0.97611   0.00000  Uiso   1.00
H599   H     0.17954   0.31770   0.53602   0.00000  Uiso   1.00
H600   H     0.22914   0.30016   0.53554   0.00000  Uiso   1.00
H601   H     0.14805   0.09430   0.61069   0.00000  Uiso   1.00
H602   H     0.14883   0.09417   0.88869   0.00000  Uiso   1.00
H603   H     0.18506   0.23897   0.61118   0.00000  Uiso   1.00
H604   H     0.13658   0.05374   0.54188   0.00000  Uiso   1.00
H605   H     0.19536   0.28015   0.95857   0.00000  Uiso   1.00
H606   H     0.03730   0.09078   0.75000   0.00000  Uiso   1.00
H607   H     0.29604   0.24255   0.75001   0.00000  Uiso   1.00
H608   H     0.29605   0.09078   0.75009   0.00000  Uiso   1.00
N609   N     0.16667   0.28402   0.75000   0.00000  Uiso   1.00
N610   N     0.16667   0.04931   0.75000   0.00000  Uiso   1.00
N611   N     0.13405   0.04182   0.95392   0.00000  Uiso   1.00
N612   N     0.19952   0.29094   0.54579   0.00000  Uiso   1.00
O613   O     0.10655   0.20625   0.75000   0.00000  Uiso   1.00
O614   O     0.22679   0.12709   0.75001   0.00000  Uiso   1.00
O615   O     0.22679   0.20625   0.75001   0.00000  Uiso   1.00
O616   O     0.10655   0.12709   0.75000   0.00000  Uiso   1.00
O617   O     0.16666   0.20627   0.68513   0.00000  Uiso   1.00
O618   O     0.16668   0.12707   0.81487   0.00000  Uiso   1.00
O619   O     0.16668   0.20627   0.81487   0.00000  Uiso   1.00
O620   O     0.16666   0.12707   0.68513   0.00000  Uiso   1.00
C621   C     0.42068   0.16667   0.74997   0.00000  Uiso   1.00
C622   C     0.37607   0.16667   0.74996   0.00000  Uiso   1.00
C623   C     0.47457   0.02483   0.72225   0.00000  Uiso   1.00
C624   C     0.52543   0.30850   0.77776   0.00000  Uiso   1.00
C625   C     0.52543   0.02480   0.77775   0.00000  Uiso   1.00
C626   C     0.47457   0.30853   0.72225   0.00000  Uiso   1.00
C627   C     0.49997   0.16668   0.66430   0.00000  Uiso   1.00
C628   C     0.50000   0.16665   0.83571   0.00000  Uiso   1.00
C629   C     0.50972   0.20757   0.90728   0.00000  Uiso   1.00
C630   C     0.48956   0.12589   0.59276   0.00000  Uiso   1.00
C631   C     0.49986   0.16660   0.88410   0.00000  Uiso   1.00
C632   C     0.57932   0.16667   0.75003   0.00000  Uiso   1.00
C633   C     0.49992   0.16673   0.61591   0.00000  Uiso   1.00
C634   C     0.48980   0.12555   0.90714   0.00000  Uiso   1.00
C635   C     0.51023   0.20767   0.59283   0.00000  Uiso   1.00
C636   C     0.48915   0.12502   0.95353   0.00000  Uiso   1.00
C637   C     0.51043   0.20819   0.54647   0.00000  Uiso   1.00
C638   C     0.49957   0.16651   0.97675   0.00000  Uiso   1.00
C639   C     0.49973   0.16682   0.52326   0.00000  Uiso   1.00
C640   C     0.50993   0.20774   0.95344   0.00000  Uiso   1.00
C641   C     0.48925   0.12569   0.54659   0.00000  Uiso   1.00
C642   C     0.47839   0.08405   0.97713   0.00000  Uiso   1.00
C643   C     0.47849   0.08491   0.52358   0.00000  Uiso   1.00
C644   C     0.52113   0.24902   0.52286   0.00000  Uiso   1.00
C645   C     0.52057   0.24855   0.97650   0.00000  Uiso   1.00
C646   C     0.35462   0.12408   0.75000   0.00000  Uiso   1.00
C647   C     0.64538   0.20925   0.75000   0.00000  Uiso   1.00
C648   C     0.64539   0.12408   0.75005   0.00000  Uiso   1.00
C649   C     0.35461   0.20926   0.74995   0.00000  Uiso   1.00
C650   C     0.62393   0.16667   0.75004   0.00000  Uiso   1.00
Cu651  Cu    0.50000   0.21355   0.75000   0.00000  Uiso   1.00
Cu652  Cu    0.50000   0.11978   0.75000   0.00000  Uiso   1.00
H653   H     0.51774   0.23925   0.88940   0.00000  Uiso   1.00
H654   H     0.37062   0.24255   0.74991   0.00000  Uiso   1.00
H655   H     0.45421   0.04356   0.70002   0.00000  Uiso   1.00
H656   H     0.54579   0.28977   0.79998   0.00000  Uiso   1.00
H657   H     0.54579   0.04351   0.79997   0.00000  Uiso   1.00
H658   H     0.45420   0.28982   0.70003   0.00000  Uiso   1.00
H659   H     0.43859   0.04739   0.93931   0.00000  Uiso   1.00
H660   H     0.46377   0.01397   0.97611   0.00000  Uiso   1.00
H661   H     0.51287   0.31770   0.53602   0.00000  Uiso   1.00
H662   H     0.56247   0.30016   0.53554   0.00000  Uiso   1.00
H663   H     0.48138   0.09430   0.61069   0.00000  Uiso   1.00
H664   H     0.48216   0.09417   0.88869   0.00000  Uiso   1.00
H665   H     0.51839   0.23897   0.61118   0.00000  Uiso   1.00
H666   H     0.46991   0.05374   0.54188   0.00000  Uiso   1.00
H667   H     0.52869   0.28015   0.95857   0.00000  Uiso   1.00
H668   H     0.37063   0.09078   0.75000   0.00000  Uiso   1.00
H669   H     0.62937   0.24255   0.75001   0.00000  Uiso   1.00
H670   H     0.62938   0.09078   0.75009   0.00000  Uiso   1.00
N671   N     0.50000   0.28402   0.75000   0.00000  Uiso   1.00
N672   N     0.50000   0.04931   0.75000   0.00000  Uiso   1.00
N673   N     0.46739   0.04182   0.95392   0.00000  Uiso   1.00
N674   N     0.53286   0.29094   0.54579   0.00000  Uiso   1.00
O675   O     0.43988   0.20625   0.75000   0.00000  Uiso   1.00
O676   O     0.56012   0.12709   0.75001   0.00000  Uiso   1.00
O677   O     0.56012   0.20625   0.75001   0.00000  Uiso   1.00
O678   O     0.43988   0.12709   0.75000   0.00000  Uiso   1.00
O679   O     0.49999   0.20627   0.68513   0.00000  Uiso   1.00
O680   O     0.50001   0.12707   0.81487   0.00000  Uiso   1.00
O681   O     0.50001   0.20627   0.81487   0.00000  Uiso   1.00
O682   O     0.49999   0.12707   0.68513   0.00000  Uiso   1.00
C683   C     0.75401   0.16667   0.74997   0.00000  Uiso   1.00
C684   C     0.70940   0.16667   0.74996   0.00000  Uiso   1.00
C685   C     0.80791   0.02483   0.72225   0.00000  Uiso   1.00
C686   C     0.85876   0.30850   0.77776   0.00000  Uiso   1.00
C687   C     0.85876   0.02480   0.77775   0.00000  Uiso   1.00
C688   C     0.80790   0.30853   0.72225   0.00000  Uiso   1.00
C689   C     0.83330   0.16668   0.66430   0.00000  Uiso   1.00
C690   C     0.83334   0.16665   0.83571   0.00000  Uiso   1.00
C691   C     0.84305   0.20757   0.90728   0.00000  Uiso   1.00
C692   C     0.82289   0.12589   0.59276   0.00000  Uiso   1.00
C693   C     0.83319   0.16660   0.88410   0.00000  Uiso   1.00
C694   C     0.91265   0.16667   0.75003   0.00000  Uiso   1.00
C695   C     0.83326   0.16673   0.61591   0.00000  Uiso   1.00
C696   C     0.82314   0.12555   0.90714   0.00000  Uiso   1.00
C697   C     0.84356   0.20767   0.59283   0.00000  Uiso   1.00
C698   C     0.82249   0.12502   0.95353   0.00000  Uiso   1.00
C699   C     0.84376   0.20819   0.54647   0.00000  Uiso   1.00
C700   C     0.83290   0.16651   0.97675   0.00000  Uiso   1.00
C701   C     0.83306   0.16682   0.52326   0.00000  Uiso   1.00
C702   C     0.84326   0.20774   0.95344   0.00000  Uiso   1.00
C703   C     0.82258   0.12569   0.54659   0.00000  Uiso   1.00
C704   C     0.81173   0.08405   0.97713   0.00000  Uiso   1.00
C705   C     0.81183   0.08491   0.52358   0.00000  Uiso   1.00
C706   C     0.85446   0.24902   0.52286   0.00000  Uiso   1.00
C707   C     0.85390   0.24855   0.97650   0.00000  Uiso   1.00
C708   C     0.68795   0.12408   0.75000   0.00000  Uiso   1.00
C709   C     0.97871   0.20925   0.75000   0.00000  Uiso   1.00
C710   C     0.97872   0.12408   0.75005   0.00000  Uiso   1.00
C711   C     0.68794   0.20926   0.74995   0.00000  Uiso   1.00
C712   C     0.95727   0.16667   0.75004   0.00000  Uiso   1.00
Cu713  Cu    0.83333   0.21355   0.75000   0.00000  Uiso   1.00
Cu714  Cu    0.83333   0.11978   0.75000   0.00000  Uiso   1.00
H715   H     0.85107   0.23925   0.88940   0.00000  Uiso   1.00
H716   H     0.70395   0.24255   0.74991   0.00000  Uiso   1.00
H717   H     0.78754   0.04356   0.70002   0.00000  Uiso   1.00
H718   H     0.87912   0.28977   0.79998   0.00000  Uiso   1.00
H719   H     0.87913   0.04351   0.79997   0.00000  Uiso   1.00
H720   H     0.78754   0.28982   0.70003   0.00000  Uiso   1.00
H721   H     0.77192   0.04739   0.93931   0.00000  Uiso   1.00
H722   H     0.79710   0.01397   0.97611   0.00000  Uiso   1.00
H723   H     0.84621   0.31770   0.53602   0.00000  Uiso   1.00
H724   H     0.89581   0.30016   0.53554   0.00000  Uiso   1.00
H725   H     0.81471   0.09430   0.61069   0.00000  Uiso   1.00
H726   H     0.81549   0.09417   0.88869   0.00000  Uiso   1.00
H727   H     0.85172   0.23897   0.61118   0.00000  Uiso   1.00
H728   H     0.80324   0.05374   0.54188   0.00000  Uiso   1.00
H729   H     0.86203   0.28015   0.95857   0.00000  Uiso   1.00
H730   H     0.70396   0.09078   0.75000   0.00000  Uiso   1.00
H731   H     0.96270   0.24255   0.75001   0.00000  Uiso   1.00
H732   H     0.96272   0.09078   0.75009   0.00000  Uiso   1.00
N733   N     0.83333   0.28402   0.75000   0.00000  Uiso   1.00
N734   N     0.83333   0.04931   0.75000   0.00000  Uiso   1.00
N735   N     0.80072   0.04182   0.95392   0.00000  Uiso   1.00
N736   N     0.86619   0.29094   0.54579   0.00000  Uiso   1.00
O737   O     0.77321   0.20625   0.75000   0.00000  Uiso   1.00
O738   O     0.89345   0.12709   0.75001   0.00000  Uiso   1.00
O739   O     0.89345   0.20625   0.75001   0.00000  Uiso   1.00
O740   O     0.77321   0.12709   0.75000   0.00000  Uiso   1.00
O741   O     0.83332   0.20627   0.68513   0.00000  Uiso   1.00
O742   O     0.83334   0.12707   0.81487   0.00000  Uiso   1.00
O743   O     0.83334   0.20627   0.81487   0.00000  Uiso   1.00
O744   O     0.83332   0.12707   0.68513   0.00000  Uiso   1.00
C745   C     0.08735   0.50000   0.74997   0.00000  Uiso   1.00
C746   C     0.04273   0.50000   0.74996   0.00000  Uiso   1.00
C747   C     0.14124   0.35816   0.72225   0.00000  Uiso   1.00
C748   C     0.19209   0.64184   0.77776   0.00000  Uiso   1.00
C749   C     0.19209   0.35813   0.77775   0.00000  Uiso   1.00
C750   C     0.14124   0.64187   0.72225   0.00000  Uiso   1.00
C751   C     0.16663   0.50001   0.66430   0.00000  Uiso   1.00
C752   C     0.16667   0.49999   0.83571   0.00000  Uiso   1.00
C753   C     0.17639   0.54090   0.90728   0.00000  Uiso   1.00
C754   C     0.15623   0.45923   0.59276   0.00000  Uiso   1.00
C755   C     0.16652   0.49993   0.88410   0.00000  Uiso   1.00
C756   C     0.24599   0.50000   0.75003   0.00000  Uiso   1.00
C757   C     0.16659   0.50007   0.61591   0.00000  Uiso   1.00
C758   C     0.15647   0.45888   0.90714   0.00000  Uiso   1.00
C759   C     0.17689   0.54100   0.59283   0.00000  Uiso   1.00
C760   C     0.15582   0.45836   0.95353   0.00000  Uiso   1.00
C761   C     0.17710   0.54152   0.54647   0.00000  Uiso   1.00
C762   C     0.16624   0.49984   0.97675   0.00000  Uiso   1.00
C763   C     0.16640   0.50015   0.52326   0.00000  Uiso   1.00
C764   C     0.17659   0.54108   0.95344   0.00000  Uiso   1.00
C765   C     0.15591   0.45903   0.54659   0.00000  Uiso   1.00
C766   C     0.14506   0.41738   0.97713   0.00000  Uiso   1.00
C767   C     0.14516   0.41824   0.52358   0.00000  Uiso   1.00
C768   C     0.18780   0.58235   0.52286   0.00000  Uiso   1.00
C769   C     0.18724   0.58188   0.97650   0.00000  Uiso   1.00
C770   C     0.02129   0.45741   0.75000   0.00000  Uiso   1.00
C771   C     0.31205   0.54259   0.75000   0.00000  Uiso   1.00
C772   C     0.31205   0.45741   0.75005   0.00000  Uiso   1.00
C773   C     0.02128   0.54259   0.74995   0.00000  Uiso   1.00
C774   C     0.29060   0.50000   0.75004   0.00000  Uiso   1.00
Cu775  Cu    0.16667   0.54689   0.75000   0.00000  Uiso   1.00
Cu776  Cu    0.16667   0.45311   0.75000   0.00000  Uiso   1.00
H777   H     0.18440   0.57259   0.88940   0.00000  Uiso   1.00
H778   H     0.03728   0.57589   0.74991   0.00000  Uiso   1.00
H779   H     0.12087   0.37690   0.70002   0.00000  Uiso   1.00
H780   H     0.21246   0.62310   0.79998   0.00000  Uiso   1.00
H781   H     0.21246   0.37685   0.79997   0.00000  Uiso   1.00
H782   H     0.12087   0.62315   0.70003   0.00000  Uiso   1.00
H783   H     0.10526   0.38072   0.93931   0.00000  Uiso   1.00
H784   H     0.13043   0.34731   0.97611   0.00000  Uiso   1.00
H785   H     0.17954   0.65104   0.53602   0.00000  Uiso   1.00
H786   H     0.22914   0.63349   0.53554   0.00000  Uiso   1.00
H787   H     0.14805   0.42763   0.61069   0.00000  Uiso   1.00
H788   H     0.14883   0.42750   0.88869   0.00000  Uiso   1.00
H789   H     0.18506   0.57230   0.61118   0.00000  Uiso   1.00
H790   H     0.13658   0.38707   0.54188   0.00000  Uiso   1.00
H791   H     0.19536   0.61349   0.95857   0.00000  Uiso   1.00
H792   H     0.03730   0.42412   0.75000   0.00000  Uiso   1.00
H793   H     0.29604   0.57588   0.75001   0.00000  Uiso   1.00
H794   H     0.29605   0.42411   0.75009   0.00000  Uiso   1.00
N795   N     0.16667   0.61736   0.75000   0.00000  Uiso   1.00
N796   N     0.16667   0.38264   0.75000   0.00000  Uiso   1.00
N797   N     0.13405   0.37515   0.95392   0.00000  Uiso   1.00
N798   N     0.19952   0.62428   0.54579   0.00000  Uiso   1.00
O799   O     0.10655   0.53958   0.75000   0.00000  Uiso   1.00
O800   O     0.22679   0.46042   0.75001   0.00000  Uiso   1.00
O801   O     0.22679   0.53958   0.75001   0.00000  Uiso   1.00
O802   O     0.10655   0.46042   0.75000   0.00000  Uiso   1.00
O803   O     0.16666   0.53960   0.68513   0.00000  Uiso   1.00
O804   O     0.16668   0.46040   0.81487   0.00000  Uiso   1.00
O805   O     0.16668   0.53960   0.81487   0.00000  Uiso   1.00
O806   O     0.16666   0.46040   0.68513   0.00000  Uiso   1.00
C807   C     0.42068   0.50000   0.74997   0.00000  Uiso   1.00
C808   C     0.37607   0.50000   0.74996   0.00000  Uiso   1.00
C809   C     0.47457   0.35816   0.72225   0.00000  Uiso   1.00
C810   C     0.52543   0.64184   0.77776   0.00000  Uiso   1.00
C811   C     0.52543   0.35813   0.77775   0.00000  Uiso   1.00
C812   C     0.47457   0.64187   0.72225   0.00000  Uiso   1.00
C813   C     0.49997   0.50001   0.66430   0.00000  Uiso   1.00
C814   C     0.50000   0.49999   0.83571   0.00000  Uiso   1.00
C815   C     0.50972   0.54090   0.90728   0.00000  Uiso   1.00
C816   C     0.48956   0.45923   0.59276   0.00000  Uiso   1.00
C817   C     0.49986   0.49993   0.88410   0.00000  Uiso   1.00
C818   C     0.57932   0.50000   0.75003   0.00000  Uiso   1.00
C819   C     0.49992   0.50007   0.61591   0.00000  Uiso   1.00
C820   C     0.48980   0.45888   0.90714   0.00000  Uiso   1.00
C821   C     0.51023   0.54100   0.59283   0.00000  Uiso   1.00
C822   C     0.48915   0.45836   0.95353   0.00000  Uiso   1.00
C823   C     0.51043   0.54152   0.54647   0.00000  Uiso   1.00
C824   C     0.49957   0.49984   0.97675   0.00000  Uiso   1.00
C825   C     0.49973   0.50015   0.52326   0.00000  Uiso   1.00
C826   C     0.50993   0.54108   0.95344   0.00000  Uiso   1.00
C827   C     0.48925   0.45903   0.54659   0.00000  Uiso   1.00
C828   C     0.47839   0.41738   0.97713   0.00000  Uiso   1.00
C829   C     0.47849   0.41824   0.52358   0.00000  Uiso   1.00
C830   C     0.52113   0.58235   0.52286   0.00000  Uiso   1.00
C831   C     0.52057   0.58188   0.97650   0.00000  Uiso   1.00
C832   C     0.35462   0.45741   0.75000   0.00000  Uiso   1.00
C833   C     0.64538   0.54259   0.75000   0.00000  Uiso   1.00
C834   C     0.64539   0.45741   0.75005   0.00000  Uiso   1.00
C835   C     0.35461   0.54259   0.74995   0.00000  Uiso   1.00
C836   C     0.62393   0.50000   0.75004   0.00000  Uiso   1.00
Cu837  Cu    0.50000   0.54689   0.75000   0.00000  Uiso   1.00
Cu838  Cu    0.50000   0.45311   0.75000   0.00000  Uiso   1.00
H839   H     0.51774   0.57259   0.88940   0.00000  Uiso   1.00
H840   H     0.37062   0.57589   0.74991   0.00000  Uiso   1.00
H841   H     0.45421   0.37690   0.70002   0.00000  Uiso   1.00
H842   H     0.54579   0.62310   0.79998   0.00000  Uiso   1.00
H843   H     0.54579   0.37685   0.79997   0.00000  Uiso   1.00
H844   H     0.45420   0.62315   0.70003   0.00000  Uiso   1.00
H845   H     0.43859   0.38072   0.93931   0.00000  Uiso   1.00
H846   H     0.46377   0.34731   0.97611   0.00000  Uiso   1.00
H847   H     0.51287   0.65104   0.53602   0.00000  Uiso   1.00
H848   H     0.56247   0.63349   0.53554   0.00000  Uiso   1.00
H849   H     0.48138   0.42763   0.61069   0.00000  Uiso   1.00
H850   H     0.48216   0.42750   0.88869   0.00000  Uiso   1.00
H851   H     0.51839   0.57230   0.61118   0.00000  Uiso   1.00
H852   H     0.46991   0.38707   0.54188   0.00000  Uiso   1.00
H853   H     0.52869   0.61349   0.95857   0.00000  Uiso   1.00
H854   H     0.37063   0.42412   0.75000   0.00000  Uiso   1.00
H855   H     0.62937   0.57588   0.75001   0.00000  Uiso   1.00
H856   H     0.62938   0.42411   0.75009   0.00000  Uiso   1.00
N857   N     0.50000   0.61736   0.75000   0.00000  Uiso   1.00
N858   N     0.50000   0.38264   0.75000   0.00000  Uiso   1.00
N859   N     0.46739   0.37515   0.95392   0.00000  Uiso   1.00
N860   N     0.53286   0.62428   0.54579   0.00000  Uiso   1.00
O861   O     0.43988   0.53958   0.75000   0.00000  Uiso   1.00
O862   O     0.56012   0.46042   0.75001   0.00000  Uiso   1.00
O863   O     0.56012   0.53958   0.75001   0.00000  Uiso   1.00
O864   O     0.43988   0.46042   0.75000   0.00000  Uiso   1.00
O865   O     0.49999   0.53960   0.68513   0.00000  Uiso   1.00
O866   O     0.50001   0.46040   0.81487   0.00000  Uiso   1.00
O867   O     0.50001   0.53960   0.81487   0.00000  Uiso   1.00
O868   O     0.49999   0.46040   0.68513   0.00000  Uiso   1.00
C869   C     0.75401   0.50000   0.74997   0.00000  Uiso   1.00
C870   C     0.70940   0.50000   0.74996   0.00000  Uiso   1.00
C871   C     0.80791   0.35816   0.72225   0.00000  Uiso   1.00
C872   C     0.85876   0.64184   0.77776   0.00000  Uiso   1.00
C873   C     0.85876   0.35813   0.77775   0.00000  Uiso   1.00
C874   C     0.80790   0.64187   0.72225   0.00000  Uiso   1.00
C875   C     0.83330   0.50001   0.66430   0.00000  Uiso   1.00
C876   C     0.83334   0.49999   0.83571   0.00000  Uiso   1.00
C877   C     0.84305   0.54090   0.90728   0.00000  Uiso   1.00
C878   C     0.82289   0.45923   0.59276   0.00000  Uiso   1.00
C879   C     0.83319   0.49993   0.88410   0.00000  Uiso   1.00
C880   C     0.91265   0.50000   0.75003   0.00000  Uiso   1.00
C881   C     0.83326   0.50007   0.61591   0.00000  Uiso   1.00
C882   C     0.82314   0.45888   0.90714   0.00000  Uiso   1.00
C883   C     0.84356   0.54100   0.59283   0.00000  Uiso   1.00
C884   C     0.82249   0.45836   0.95353   0.00000  Uiso   1.00
C885   C     0.84376   0.54152   0.54647   0.00000  Uiso   1.00
C886   C     0.83290   0.49984   0.97675   0.00000  Uiso   1.00
C887   C     0.83306   0.50015   0.52326   0.00000  Uiso   1.00
C888   C     0.84326   0.54108   0.95344   0.00000  Uiso   1.00
C889   C     0.82258   0.45903   0.54659   0.00000  Uiso   1.00
C890   C     0.81173   0.41738   0.97713   0.00000  Uiso   1.00
C891   C     0.81183   0.41824   0.52358   0.00000  Uiso   1.00
C892   C     0.85446   0.58235   0.52286   0.00000  Uiso   1.00
C893   C     0.85390   0.58188   0.97650   0.00000  Uiso   1.00
C894   C     0.68795   0.45741   0.75000   0.00000  Uiso   1.00
C895   C     0.97871   0.54259   0.75000   0.00000  Uiso   1.00
C896   C     0.97872   0.45741   0.75005   0.00000  Uiso   1.00
C897   C     0.68794   0.54259   0.74995   0.00000  Uiso   1.00
C898   C     0.95727   0.50000   0.75004   0.00000  Uiso   1.00
Cu899  Cu    0.83333   0.54689   0.75000   0.00000  Uiso   1.00
Cu900  Cu    0.83333   0.45311   0.75000   0.00000  Uiso   1.00
H901   H     0.85107   0.57259   0.88940   0.00000  Uiso   1.00
H902   H     0.70395   0.57589   0.74991   0.00000  Uiso   1.00
H903   H     0.78754   0.37690   0.70002   0.00000  Uiso   1.00
H904   H     0.87912   0.62310   0.79998   0.00000  Uiso   1.00
H905   H     0.87913   0.37685   0.79997   0.00000  Uiso   1.00
H906   H     0.78754   0.62315   0.70003   0.00000  Uiso   1.00
H907   H     0.77192   0.38072   0.93931   0.00000  Uiso   1.00
H908   H     0.79710   0.34731   0.97611   0.00000  Uiso   1.00
H909   H     0.84621   0.65104   0.53602   0.00000  Uiso   1.00
H910   H     0.89581   0.63349   0.53554   0.00000  Uiso   1.00
H911   H     0.81471   0.42763   0.61069   0.00000  Uiso   1.00
H912   H     0.81549   0.42750   0.88869   0.00000  Uiso   1.00
H913   H     0.85172   0.57230   0.61118   0.00000  Uiso   1.00
H914   H     0.80324   0.38707   0.54188   0.00000  Uiso   1.00
H915   H     0.86203   0.61349   0.95857   0.00000  Uiso   1.00
H916   H     0.70396   0.42412   0.75000   0.00000  Uiso   1.00
H917   H     0.96270   0.57588   0.75001   0.00000  Uiso   1.00
H918   H     0.96272   0.42411   0.75009   0.00000  Uiso   1.00
N919   N     0.83333   0.61736   0.75000   0.00000  Uiso   1.00
N920   N     0.83333   0.38264   0.75000   0.00000  Uiso   1.00
N921   N     0.80072   0.37515   0.95392   0.00000  Uiso   1.00
N922   N     0.86619   0.62428   0.54579   0.00000  Uiso   1.00
O923   O     0.77321   0.53958   0.75000   0.00000  Uiso   1.00
O924   O     0.89345   0.46042   0.75001   0.00000  Uiso   1.00
O925   O     0.89345   0.53958   0.75001   0.00000  Uiso   1.00
O926   O     0.77321   0.46042   0.75000   0.00000  Uiso   1.00
O927   O     0.83332   0.53960   0.68513   0.00000  Uiso   1.00
O928   O     0.83334   0.46040   0.81487   0.00000  Uiso   1.00
O929   O     0.83334   0.53960   0.81487   0.00000  Uiso   1.00
O930   O     0.83332   0.46040   0.68513   0.00000  Uiso   1.00
C931   C     0.08735   0.83333   0.74997   0.00000  Uiso   1.00
C932   C     0.04273   0.83333   0.74996   0.00000  Uiso   1.00
C933   C     0.14124   0.69150   0.72225   0.00000  Uiso   1.00
C934   C     0.19209   0.97517   0.77776   0.00000  Uiso   1.00
C935   C     0.19209   0.69147   0.77775   0.00000  Uiso   1.00
C936   C     0.14124   0.97520   0.72225   0.00000  Uiso   1.00
C937   C     0.16663   0.83335   0.66430   0.00000  Uiso   1.00
C938   C     0.16667   0.83332   0.83571   0.00000  Uiso   1.00
C939   C     0.17639   0.87424   0.90728   0.00000  Uiso   1.00
C940   C     0.15623   0.79256   0.59276   0.00000  Uiso   1.00
C941   C     0.16652   0.83327   0.88410   0.00000  Uiso   1.00
C942   C     0.24599   0.83333   0.75003   0.00000  Uiso   1.00
C943   C     0.16659   0.83340   0.61591   0.00000  Uiso   1.00
C944   C     0.15647   0.79221   0.90714   0.00000  Uiso   1.00
C945   C     0.17689   0.87433   0.59283   0.00000  Uiso   1.00
C946   C     0.15582   0.79169   0.95353   0.00000  Uiso   1.00
C947   C     0.17710   0.87485   0.54647   0.00000  Uiso   1.00
C948   C     0.16624   0.83317   0.97675   0.00000  Uiso   1.00
C949   C     0.16640   0.83348   0.52326   0.00000  Uiso   1.00
C950   C     0.17659   0.87441   0.95344   0.00000  Uiso   1.00
C951   C     0.15591   0.79236   0.54659   0.00000  Uiso   1.00
C952   C     0.14506   0.75072   0.97713   0.00000  Uiso   1.00
C953   C     0.14516   0.75158   0.52358   0.00000  Uiso   1.00
C954   C     0.18780   0.91569   0.52286   0.00000  Uiso   1.00
C955   C     0.18724   0.91521   0.97650   0.00000  Uiso   1.00
C956   C     0.02129   0.79075   0.75000   0.00000  Uiso   1.00
C957   C     0.31205   0.87592   0.75000   0.00000  Uiso   1.00
C958   C     0.31205   0.79074   0.75005   0.00000  Uiso   1.00
C959   C     0.02128   0.87592   0.74995   0.00000  Uiso   1.00
C960   C     0.29060   0.83333   0.75004   0.00000  Uiso   1.00
Cu961  Cu    0.16667   0.88022   0.75000   0.00000  Uiso   1.00
Cu962  Cu    0.16667   0.78645   0.75000   0.00000  Uiso   1.00
H963   H     0.18440   0.90592   0.88940   0.00000  Uiso   1.00
H964   H     0.03728   0.90922   0.74991   0.00000  Uiso   1.00
H965   H     0.12087   0.71023   0.70002   0.00000  Uiso   1.00
H966   H     0.21246   0.95644   0.79998   0.00000  Uiso   1.00
H967   H     0.21246   0.71018   0.79997   0.00000  Uiso   1.00
H968   H     0.12087   0.95649   0.70003   0.00000  Uiso   1.00
H969   H     0.10526   0.71405   0.93931   0.00000  Uiso   1.00
H970   H     0.13043   0.68064   0.97611   0.00000  Uiso   1.00
H971   H     0.17954   0.98437   0.53602   0.00000  Uiso   1.00
H972   H     0.22914   0.96682   0.53554   0.00000  Uiso   1.00
H973   H     0.14805   0.76096   0.61069   0.00000  Uiso   1.00
H974   H     0.14883   0.76083   0.88869   0.00000  Uiso   1.00
H975   H     0.18506   0.90564   0.61118   0.00000  Uiso   1.00
H976   H     0.13658   0.72041   0.54188   0.00000  Uiso   1.00
H977   H     0.19536   0.94682   0.95857   0.00000  Uiso   1.00
H978   H     0.03730   0.75745   0.75000   0.00000  Uiso   1.00
H979   H     0.29604   0.90922   0.75001   0.00000  Uiso   1.00
H980   H     0.29605   0.75745   0.75009   0.00000  Uiso   1.00
N981   N     0.16667   0.95069   0.75000   0.00000  Uiso   1.00
N982   N     0.16667   0.71598   0.75000   0.00000  Uiso   1.00
N983   N     0.13405   0.70848   0.95392   0.00000  Uiso   1.00
N984   N     0.19952   0.95761   0.54579   0.00000  Uiso   1.00
O985   O     0.10655   0.87291   0.75000   0.00000  Uiso   1.00
O986   O     0.22679   0.79375   0.75001   0.00000  Uiso   1.00
O987   O     0.22679   0.87291   0.75001   0.00000  Uiso   1.00
O988   O     0.10655   0.79375   0.75000   0.00000  Uiso   1.00
O989   O     0.16666   0.87293   0.68513   0.00000  Uiso   1.00
O990   O     0.16668   0.79373   0.81487   0.00000  Uiso   1.00
O991   O     0.16668   0.87293   0.81487   0.00000  Uiso   1.00
O992   O     0.16666   0.79373   0.68513   0.00000  Uiso   1.00
C993   C     0.42068   0.83333   0.74997   0.00000  Uiso   1.00
C994   C     0.37607   0.83333   0.74996   0.00000  Uiso   1.00
C995   C     0.47457   0.69150   0.72225   0.00000  Uiso   1.00
C996   C     0.52543   0.97517   0.77776   0.00000  Uiso   1.00
C997   C     0.52543   0.69147   0.77775   0.00000  Uiso   1.00
C998   C     0.47457   0.97520   0.72225   0.00000  Uiso   1.00
C999   C     0.49997   0.83335   0.66430   0.00000  Uiso   1.00
C1000  C     0.50000   0.83332   0.83571   0.00000  Uiso   1.00
C1001  C     0.50972   0.87424   0.90728   0.00000  Uiso   1.00
C1002  C     0.48956   0.79256   0.59276   0.00000  Uiso   1.00
C1003  C     0.49986   0.83327   0.88410   0.00000  Uiso   1.00
C1004  C     0.57932   0.83333   0.75003   0.00000  Uiso   1.00
C1005  C     0.49992   0.83340   0.61591   0.00000  Uiso   1.00
C1006  C     0.48980   0.79221   0.90714   0.00000  Uiso   1.00
C1007  C     0.51023   0.87433   0.59283   0.00000  Uiso   1.00
C1008  C     0.48915   0.79169   0.95353   0.00000  Uiso   1.00
C1009  C     0.51043   0.87485   0.54647   0.00000  Uiso   1.00
C1010  C     0.49957   0.83317   0.97675   0.00000  Uiso   1.00
C1011  C     0.49973   0.83348   0.52326   0.00000  Uiso   1.00
C1012  C     0.50993   0.87441   0.95344   0.00000  Uiso   1.00
C1013  C     0.48925   0.79236   0.54659   0.00000  Uiso   1.00
C1014  C     0.47839   0.75072   0.97713   0.00000  Uiso   1.00
C1015  C     0.47849   0.75158   0.52358   0.00000  Uiso   1.00
C1016  C     0.52113   0.91569   0.52286   0.00000  Uiso   1.00
C1017  C     0.52057   0.91521   0.97650   0.00000  Uiso   1.00
C1018  C     0.35462   0.79075   0.75000   0.00000  Uiso   1.00
C1019  C     0.64538   0.87592   0.75000   0.00000  Uiso   1.00
C1020  C     0.64539   0.79074   0.75005   0.00000  Uiso   1.00
C1021  C     0.35461   0.87592   0.74995   0.00000  Uiso   1.00
C1022  C     0.62393   0.83333   0.75004   0.00000  Uiso   1.00
Cu1023 Cu    0.50000   0.88022   0.75000   0.00000  Uiso   1.00
Cu1024 Cu    0.50000   0.78645   0.75000   0.00000  Uiso   1.00
H1025  H     0.51774   0.90592   0.88940   0.00000  Uiso   1.00
H1026  H     0.37062   0.90922   0.74991   0.00000  Uiso   1.00
H1027  H     0.45421   0.71023   0.70002   0.00000  Uiso   1.00
H1028  H     0.54579   0.95644   0.79998   0.00000  Uiso   1.00
H1029  H     0.54579   0.71018   0.79997   0.00000  Uiso   1.00
H1030  H     0.45420   0.95649   0.70003   0.00000  Uiso   1.00
H1031  H     0.43859   0.71405   0.93931   0.00000  Uiso   1.00
H1032  H     0.46377   0.68064   0.97611   0.00000  Uiso   1.00
H1033  H     0.51287   0.98437   0.53602   0.00000  Uiso   1.00
H1034  H     0.56247   0.96682   0.53554   0.00000  Uiso   1.00
H1035  H     0.48138   0.76096   0.61069   0.00000  Uiso   1.00
H1036  H     0.48216   0.76083   0.88869   0.00000  Uiso   1.00
H1037  H     0.51839   0.90564   0.61118   0.00000  Uiso   1.00
H1038  H     0.46991   0.72041   0.54188   0.00000  Uiso   1.00
H1039  H     0.52869   0.94682   0.95857   0.00000  Uiso   1.00
H1040  H     0.37063   0.75745   0.75000   0.00000  Uiso   1.00
H1041  H     0.62937   0.90922   0.75001   0.00000  Uiso   1.00
H1042  H     0.62938   0.75745   0.75009   0.00000  Uiso   1.00
N1043  N     0.50000   0.95069   0.75000   0.00000  Uiso   1.00
N1044  N     0.50000   0.71598   0.75000   0.00000  Uiso   1.00
N1045  N     0.46739   0.70848   0.95392   0.00000  Uiso   1.00
N1046  N     0.53286   0.95761   0.54579   0.00000  Uiso   1.00
O1047  O     0.43988   0.87291   0.75000   0.00000  Uiso   1.00
O1048  O     0.56012   0.79375   0.75001   0.00000  Uiso   1.00
O1049  O     0.56012   0.87291   0.75001   0.00000  Uiso   1.00
O1050  O     0.43988   0.79375   0.75000   0.00000  Uiso   1.00
O1051  O     0.49999   0.87293   0.68513   0.00000  Uiso   1.00
O1052  O     0.50001   0.79373   0.81487   0.00000  Uiso   1.00
O1053  O     0.50001   0.87293   0.81487   0.00000  Uiso   1.00
O1054  O     0.49999   0.79373   0.68513   0.00000  Uiso   1.00
C1055  C     0.75401   0.83333   0.74997   0.00000  Uiso   1.00
C1056  C     0.70940   0.83333   0.74996   0.00000  Uiso   1.00
C1057  C     0.80791   0.69150   0.72225   0.00000  Uiso   1.00
C1058  C     0.85876   0.97517   0.77776   0.00000  Uiso   1.00
C1059  C     0.85876   0.69147   0.77775   0.00000  Uiso   1.00
C1060  C     0.80790   0.97520   0.72225   0.00000  Uiso   1.00
C1061  C     0.83330   0.83335   0.66430   0.00000  Uiso   1.00
C1062  C     0.83334   0.83332   0.83571   0.00000  Uiso   1.00
C1063  C     0.84305   0.87424   0.90728   0.00000  Uiso   1.00
C1064  C     0.82289   0.79256   0.59276   0.00000  Uiso   1.00
C1065  C     0.83319   0.83327   0.88410   0.00000  Uiso   1.00
C1066  C     0.91265   0.83333   0.75003   0.00000  Uiso   1.00
C1067  C     0.83326   0.83340   0.61591   0.00000  Uiso   1.00
C1068  C     0.82314   0.79221   0.90714   0.00000  Uiso   1.00
C1069  C     0.84356   0.87433   0.59283   0.00000  Uiso   1.00
C1070  C     0.82249   0.79169   0.95353   0.00000  Uiso   1.00
C1071  C     0.84376   0.87485   0.54647   0.00000  Uiso   1.00
C1072  C     0.83290   0.83317   0.97675   0.00000  Uiso   1.00
C1073  C     0.83306   0.83348   0.52326   0.00000  Uiso   1.00
C1074  C     0.84326   0.87441   0.95344   0.00000  Uiso   1.00
C1075  C     0.82258   0.79236   0.54659   0.00000  Uiso   1.00
C1076  C     0.81173   0.75072   0.97713   0.00000  Uiso   1.00
C1077  C     0.81183   0.75158   0.52358   0.00000  Uiso   1.00
C1078  C     0.85446   0.91569   0.52286   0.00000  Uiso   1.00
C1079  C     0.85390   0.91521   0.97650   0.00000  Uiso   1.00
C1080  C     0.68795   0.79075   0.75000   0.00000  Uiso   1.00
C1081  C     0.97871   0.87592   0.75000   0.00000  Uiso   1.00
C1082  C     0.97872   0.79074   0.75005   0.00000  Uiso   1.00
C1083  C     0.68794   0.87592   0.74995   0.00000  Uiso   1.00
C1084  C     0.95727   0.83333   0.75004   0.00000  Uiso   1.00
Cu1085 Cu    0.83333   0.88022   0.75000   0.00000  Uiso   1.00
Cu1086 Cu    0.83333   0.78645   0.75000   0.00000  Uiso   1.00
H1087  H     0.85107   0.90592   0.88940   0.00000  Uiso   1.00
H1088  H     0.70395   0.90922   0.74991   0.00000  Uiso   1.00
H1089  H     0.78754   0.71023   0.70002   0.00000  Uiso   1.00
H1090  H     0.87912   0.95644   0.79998   0.00000  Uiso   1.00
H1091  H     0.87913   0.71018   0.79997   0.00000  Uiso   1.00
H1092  H     0.78754   0.95649   0.70003   0.00000  Uiso   1.00
H1093  H     0.77192   0.71405   0.93931   0.00000  Uiso   1.00
H1094  H     0.79710   0.68064   0.97611   0.00000  Uiso   1.00
H1095  H     0.84621   0.98437   0.53602   0.00000  Uiso   1.00
H1096  H     0.89581   0.96682   0.53554   0.00000  Uiso   1.00
H1097  H     0.81471   0.76096   0.61069   0.00000  Uiso   1.00
H1098  H     0.81549   0.76083   0.88869   0.00000  Uiso   1.00
H1099  H     0.85172   0.90564   0.61118   0.00000  Uiso   1.00
H1100  H     0.80324   0.72041   0.54188   0.00000  Uiso   1.00
H1101  H     0.86203   0.94682   0.95857   0.00000  Uiso   1.00
H1102  H     0.70396   0.75745   0.75000   0.00000  Uiso   1.00
H1103  H     0.96270   0.90922   0.75001   0.00000  Uiso   1.00
H1104  H     0.96272   0.75745   0.75009   0.00000  Uiso   1.00
N1105  N     0.83333   0.95069   0.75000   0.00000  Uiso   1.00
N1106  N     0.83333   0.71598   0.75000   0.00000  Uiso   1.00
N1107  N     0.80072   0.70848   0.95392   0.00000  Uiso   1.00
N1108  N     0.86619   0.95761   0.54579   0.00000  Uiso   1.00
O1109  O     0.77321   0.87291   0.75000   0.00000  Uiso   1.00
O1110  O     0.89345   0.79375   0.75001   0.00000  Uiso   1.00
O1111  O     0.89345   0.87291   0.75001   0.00000  Uiso   1.00
O1112  O     0.77321   0.79375   0.75000   0.00000  Uiso   1.00
O1113  O     0.83332   0.87293   0.68513   0.00000  Uiso   1.00
O1114  O     0.83334   0.79373   0.81487   0.00000  Uiso   1.00
O1115  O     0.83334   0.87293   0.81487   0.00000  Uiso   1.00
O1116  O     0.83332   0.79373   0.68513   0.00000  Uiso   1.00
loop_
_geom_bond_atom_site_label_1
_geom_bond_atom_site_label_2
_geom_bond_distance
_geom_bond_site_symmetry_2
_ccdc_geom_bond_type
C1     O55     1.290   .     A
C1     O58     1.290   .     A
C1     C2      1.450   .     S
C2     C26     1.401   .     A
C2     C29     1.401   .     A
C3     N52     1.367   .     A
C3     H35     1.082   .     S
C3     C378    1.416   1_545 S
C4     H36     1.082   .     S
C4     N51     1.367   .     A
C4     C191    1.416   .     S
C5     H37     1.082   .     S
C5     N52     1.367   .     A
C5     C376    1.416   1_545 S
C6     H38     1.082   .     S
C6     N51     1.367   .     A
C6     C189    1.416   .     S
C7     O62     1.293   .     A
C7     C13     1.459   .     S
C7     O59     1.293   .     A
C8     C11     1.460   .     S
C8     O61     1.293   .     A
C8     O60     1.293   .     A
C9     C20     1.392   .     A
C9     H33     1.085   .     S
C9     C11     1.399   .     A
C10    C21     1.393   .     A
C10    C13     1.399   .     A
C10    H43     1.085   .     S
C11    C14     1.401   .     A
C12    C30     1.450   .     S
C12    O56     1.290   .     A
C12    O57     1.290   .     A
C13    C15     1.401   .     A
C14    C16     1.399   .     A
C14    H44     1.083   .     S
C15    C17     1.398   .     A
C15    H45     1.083   .     S
C16    C22     1.413   .     A
C16    C18     1.416   .     A
C17    C19     1.416   .     A
C17    C24     1.410   .     A
C18    C20     1.412   .     A
C18    C577    1.403   .     S
C19    C21     1.410   .     A
C19    C576    1.403   1_554 S
C20    C25     1.399   .     A
C21    C23     1.399   .     A
C22    N53     1.439   .     S
C22    C581    1.401   .     S
C23    H46     1.084   .     S
C23    C580    1.401   1_554 S
C24    N54     1.433   .     S
C24    C583    1.398   1_554 S
C25    H47     1.085   .     S
C25    C582    1.398   .     S
C26    H48     1.083   .     S
C26    C152    1.384   1_455 S
C27    C30     1.401   .     A
C27    H49     1.083   .     S
C27    C91     1.384   .     S
C28    C30     1.401   .     A
C28    H50     1.083   .     S
C28    C88     1.384   .     S
C29    H34     1.083   .     S
C29    C151    1.384   1_455 S
Cu31   Cu32    2.676   .     S
Cu31   O57     1.965   .     S
Cu31   O61     1.968   .     S
Cu31   O55     1.965   .     S
Cu31   N51     2.011   .     S
Cu31   O59     1.968   .     S
Cu32   O58     1.965   .     S
Cu32   O62     1.968   .     S
Cu32   O60     1.968   .     S
Cu32   N52     2.011   .     S
Cu32   O56     1.965   .     S
H39    N53     1.046   .     S
H40    N53     1.046   .     S
H41    N54     1.044   .     S
H42    N54     1.046   .     S
C63    O117    1.290   .     A
C63    O120    1.290   .     A
C63    C64     1.450   .     S
C64    C88     1.401   .     A
C64    C91     1.401   .     A
C65    N114    1.367   .     A
C65    H97     1.082   .     S
C65    C440    1.416   1_545 S
C66    H98     1.082   .     S
C66    N113    1.367   .     A
C66    C253    1.416   .     S
C67    H99     1.082   .     S
C67    N114    1.367   .     A
C67    C438    1.416   1_545 S
C68    H100    1.082   .     S
C68    N113    1.367   .     A
C68    C251    1.416   .     S
C69    O124    1.293   .     A
C69    C75     1.459   .     S
C69    O121    1.293   .     A
C70    C73     1.460   .     S
C70    O123    1.293   .     A
C70    O122    1.293   .     A
C71    C82     1.392   .     A
C71    H95     1.085   .     S
C71    C73     1.399   .     A
C72    C83     1.393   .     A
C72    C75     1.399   .     A
C72    H105    1.085   .     S
C73    C76     1.401   .     A
C74    C92     1.450   .     S
C74    O118    1.290   .     A
C74    O119    1.290   .     A
C75    C77     1.401   .     A
C76    C78     1.399   .     A
C76    H106    1.083   .     S
C77    C79     1.398   .     A
C77    H107    1.083   .     S
C78    C84     1.413   .     A
C78    C80     1.416   .     A
C79    C81     1.416   .     A
C79    C86     1.410   .     A
C80    C82     1.412   .     A
C80    C639    1.403   .     S
C81    C83     1.410   .     A
C81    C638    1.403   1_554 S
C82    C87     1.399   .     A
C83    C85     1.399   .     A
C84    N115    1.439   .     S
C84    C643    1.401   .     S
C85    H108    1.084   .     S
C85    C642    1.401   1_554 S
C86    N116    1.433   .     S
C86    C645    1.398   1_554 S
C87    H109    1.085   .     S
C87    C644    1.398   .     S
C88    H110    1.083   .     S
C89    C92     1.401   .     A
C89    H111    1.083   .     S
C89    C153    1.384   .     S
C90    C92     1.401   .     A
C90    H112    1.083   .     S
C90    C150    1.384   .     S
C91    H96     1.083   .     S
Cu93   Cu94    2.676   .     S
Cu93   O119    1.965   .     S
Cu93   O123    1.968   .     S
Cu93   O117    1.965   .     S
Cu93   N113    2.011   .     S
Cu93   O121    1.968   .     S
Cu94   O120    1.965   .     S
Cu94   O124    1.968   .     S
Cu94   O122    1.968   .     S
Cu94   N114    2.011   .     S
Cu94   O118    1.965   .     S
H101   N115    1.046   .     S
H102   N115    1.046   .     S
H103   N116    1.044   .     S
H104   N116    1.046   .     S
C125   O179    1.290   .     A
C125   O182    1.290   .     A
C125   C126    1.450   .     S
C126   C150    1.401   .     A
C126   C153    1.401   .     A
C127   N176    1.367   .     A
C127   H159    1.082   .     S
C127   C502    1.416   1_545 S
C128   H160    1.082   .     S
C128   N175    1.367   .     A
C128   C315    1.416   .     S
C129   H161    1.082   .     S
C129   N176    1.367   .     A
C129   C500    1.416   1_545 S
C130   H162    1.082   .     S
C130   N175    1.367   .     A
C130   C313    1.416   .     S
C131   O186    1.293   .     A
C131   C137    1.459   .     S
C131   O183    1.293   .     A
C132   C135    1.460   .     S
C132   O185    1.293   .     A
C132   O184    1.293   .     A
C133   C144    1.392   .     A
C133   H157    1.085   .     S
C133   C135    1.399   .     A
C134   C145    1.393   .     A
C134   C137    1.399   .     A
C134   H167    1.085   .     S
C135   C138    1.401   .     A
C136   C154    1.450   .     S
C136   O180    1.290   .     A
C136   O181    1.290   .     A
C137   C139    1.401   .     A
C138   C140    1.399   .     A
C138   H168    1.083   .     S
C139   C141    1.398   .     A
C139   H169    1.083   .     S
C140   C146    1.413   .     A
C140   C142    1.416   .     A
C141   C143    1.416   .     A
C141   C148    1.410   .     A
C142   C144    1.412   .     A
C142   C701    1.403   .     S
C143   C145    1.410   .     A
C143   C700    1.403   1_554 S
C144   C149    1.399   .     A
C145   C147    1.399   .     A
C146   N177    1.439   .     S
C146   C705    1.401   .     S
C147   H170    1.084   .     S
C147   C704    1.401   1_554 S
C148   N178    1.433   .     S
C148   C707    1.398   1_554 S
C149   H171    1.085   .     S
C149   C706    1.398   .     S
C150   H172    1.083   .     S
C151   C154    1.401   .     A
C151   H173    1.083   .     S
C151   C29     1.384   1_655 S
C152   C154    1.401   .     A
C152   H174    1.083   .     S
C152   C26     1.384   1_655 S
C153   H158    1.083   .     S
Cu155  Cu156   2.676   .     S
Cu155  O181    1.965   .     S
Cu155  O185    1.968   .     S
Cu155  O179    1.965   .     S
Cu155  N175    2.011   .     S
Cu155  O183    1.968   .     S
Cu156  O182    1.965   .     S
Cu156  O186    1.968   .     S
Cu156  O184    1.968   .     S
Cu156  N176    2.011   .     S
Cu156  O180    1.965   .     S
H163   N177    1.046   .     S
H164   N177    1.046   .     S
H165   N178    1.044   .     S
H166   N178    1.046   .     S
C187   O241    1.290   .     A
C187   O244    1.290   .     A
C187   C188    1.450   .     S
C188   C212    1.401   .     A
C188   C215    1.401   .     A
C189   N238    1.367   .     A
C189   H221    1.082   .     S
C190   H222    1.082   .     S
C190   N237    1.367   .     A
C190   C377    1.416   .     S
C191   H223    1.082   .     S
C191   N238    1.367   .     A
C192   H224    1.082   .     S
C192   N237    1.367   .     A
C192   C375    1.416   .     S
C193   O248    1.293   .     A
C193   C199    1.459   .     S
C193   O245    1.293   .     A
C194   C197    1.460   .     S
C194   O247    1.293   .     A
C194   O246    1.293   .     A
C195   C206    1.392   .     A
C195   H219    1.085   .     S
C195   C197    1.399   .     A
C196   C207    1.393   .     A
C196   C199    1.399   .     A
C196   H229    1.085   .     S
C197   C200    1.401   .     A
C198   C216    1.450   .     S
C198   O242    1.290   .     A
C198   O243    1.290   .     A
C199   C201    1.401   .     A
C200   C202    1.399   .     A
C200   H230    1.083   .     S
C201   C203    1.398   .     A
C201   H231    1.083   .     S
C202   C208    1.413   .     A
C202   C204    1.416   .     A
C203   C205    1.416   .     A
C203   C210    1.410   .     A
C204   C206    1.412   .     A
C204   C763    1.403   .     S
C205   C207    1.410   .     A
C205   C762    1.403   1_554 S
C206   C211    1.399   .     A
C207   C209    1.399   .     A
C208   N239    1.439   .     S
C208   C767    1.401   .     S
C209   H232    1.084   .     S
C209   C766    1.401   1_554 S
C210   N240    1.433   .     S
C210   C769    1.398   1_554 S
C211   H233    1.085   .     S
C211   C768    1.398   .     S
C212   H234    1.083   .     S
C212   C338    1.384   1_455 S
C213   C216    1.401   .     A
C213   H235    1.083   .     S
C213   C277    1.384   .     S
C214   C216    1.401   .     A
C214   H236    1.083   .     S
C214   C274    1.384   .     S
C215   H220    1.083   .     S
C215   C337    1.384   1_455 S
Cu217  Cu218   2.676   .     S
Cu217  O243    1.965   .     S
Cu217  O247    1.968   .     S
Cu217  O241    1.965   .     S
Cu217  N237    2.011   .     S
Cu217  O245    1.968   .     S
Cu218  O244    1.965   .     S
Cu218  O248    1.968   .     S
Cu218  O246    1.968   .     S
Cu218  N238    2.011   .     S
Cu218  O242    1.965   .     S
H225   N239    1.046   .     S
H226   N239    1.046   .     S
H227   N240    1.044   .     S
H228   N240    1.046   .     S
C249   O303    1.290   .     A
C249   O306    1.290   .     A
C249   C250    1.450   .     S
C250   C274    1.401   .     A
C250   C277    1.401   .     A
C251   N300    1.367   .     A
C251   H283    1.082   .     S
C252   H284    1.082   .     S
C252   N299    1.367   .     A
C252   C439    1.416   .     S
C253   H285    1.082   .     S
C253   N300    1.367   .     A
C254   H286    1.082   .     S
C254   N299    1.367   .     A
C254   C437    1.416   .     S
C255   O310    1.293   .     A
C255   C261    1.459   .     S
C255   O307    1.293   .     A
C256   C259    1.460   .     S
C256   O309    1.293   .     A
C256   O308    1.293   .     A
C257   C268    1.392   .     A
C257   H281    1.085   .     S
C257   C259    1.399   .     A
C258   C269    1.393   .     A
C258   C261    1.399   .     A
C258   H291    1.085   .     S
C259   C262    1.401   .     A
C260   C278    1.450   .     S
C260   O304    1.290   .     A
C260   O305    1.290   .     A
C261   C263    1.401   .     A
C262   C264    1.399   .     A
C262   H292    1.083   .     S
C263   C265    1.398   .     A
C263   H293    1.083   .     S
C264   C270    1.413   .     A
C264   C266    1.416   .     A
C265   C267    1.416   .     A
C265   C272    1.410   .     A
C266   C268    1.412   .     A
C266   C825    1.403   .     S
C267   C269    1.410   .     A
C267   C824    1.403   1_554 S
C268   C273    1.399   .     A
C269   C271    1.399   .     A
C270   N301    1.439   .     S
C270   C829    1.401   .     S
C271   H294    1.084   .     S
C271   C828    1.401   1_554 S
C272   N302    1.433   .     S
C272   C831    1.398   1_554 S
C273   H295    1.085   .     S
C273   C830    1.398   .     S
C274   H296    1.083   .     S
C275   C278    1.401   .     A
C275   H297    1.083   .     S
C275   C339    1.384   .     S
C276   C278    1.401   .     A
C276   H298    1.083   .     S
C276   C336    1.384   .     S
C277   H282    1.083   .     S
Cu279  Cu280   2.676   .     S
Cu279  O305    1.965   .     S
Cu279  O309    1.968   .     S
Cu279  O303    1.965   .     S
Cu279  N299    2.011   .     S
Cu279  O307    1.968   .     S
Cu280  O306    1.965   .     S
Cu280  O310    1.968   .     S
Cu280  O308    1.968   .     S
Cu280  N300    2.011   .     S
Cu280  O304    1.965   .     S
H287   N301    1.046   .     S
H288   N301    1.046   .     S
H289   N302    1.044   .     S
H290   N302    1.046   .     S
C311   O365    1.290   .     A
C311   O368    1.290   .     A
C311   C312    1.450   .     S
C312   C336    1.401   .     A
C312   C339    1.401   .     A
C313   N362    1.367   .     A
C313   H345    1.082   .     S
C314   H346    1.082   .     S
C314   N361    1.367   .     A
C314   C501    1.416   .     S
C315   H347    1.082   .     S
C315   N362    1.367   .     A
C316   H348    1.082   .     S
C316   N361    1.367   .     A
C316   C499    1.416   .     S
C317   O372    1.293   .     A
C317   C323    1.459   .     S
C317   O369    1.293   .     A
C318   C321    1.460   .     S
C318   O371    1.293   .     A
C318   O370    1.293   .     A
C319   C330    1.392   .     A
C319   H343    1.085   .     S
C319   C321    1.399   .     A
C320   C331    1.393   .     A
C320   C323    1.399   .     A
C320   H353    1.085   .     S
C321   C324    1.401   .     A
C322   C340    1.450   .     S
C322   O366    1.290   .     A
C322   O367    1.290   .     A
C323   C325    1.401   .     A
C324   C326    1.399   .     A
C324   H354    1.083   .     S
C325   C327    1.398   .     A
C325   H355    1.083   .     S
C326   C332    1.413   .     A
C326   C328    1.416   .     A
C327   C329    1.416   .     A
C327   C334    1.410   .     A
C328   C330    1.412   .     A
C328   C887    1.403   .     S
C329   C331    1.410   .     A
C329   C886    1.403   1_554 S
C330   C335    1.399   .     A
C331   C333    1.399   .     A
C332   N363    1.439   .     S
C332   C891    1.401   .     S
C333   H356    1.084   .     S
C333   C890    1.401   1_554 S
C334   N364    1.433   .     S
C334   C893    1.398   1_554 S
C335   H357    1.085   .     S
C335   C892    1.398   .     S
C336   H358    1.083   .     S
C337   C340    1.401   .     A
C337   H359    1.083   .     S
C337   C215    1.384   1_655 S
C338   C340    1.401   .     A
C338   H360    1.083   .     S
C338   C212    1.384   1_655 S
C339   H344    1.083   .     S
Cu341  Cu342   2.676   .     S
Cu341  O367    1.965   .     S
Cu341  O371    1.968   .     S
Cu341  O365    1.965   .     S
Cu341  N361    2.011   .     S
Cu341  O369    1.968   .     S
Cu342  O368    1.965   .     S
Cu342  O372    1.968   .     S
Cu342  O370    1.968   .     S
Cu342  N362    2.011   .     S
Cu342  O366    1.965   .     S
H349   N363    1.046   .     S
H350   N363    1.046   .     S
H351   N364    1.044   .     S
H352   N364    1.046   .     S
C373   O427    1.290   .     A
C373   O430    1.290   .     A
C373   C374    1.450   .     S
C374   C398    1.401   .     A
C374   C401    1.401   .     A
C375   N424    1.367   .     A
C375   H407    1.082   .     S
C376   H408    1.082   .     S
C376   N423    1.367   .     A
C376   C5      1.416   1_565 S
C377   H409    1.082   .     S
C377   N424    1.367   .     A
C378   H410    1.082   .     S
C378   N423    1.367   .     A
C378   C3      1.416   1_565 S
C379   O434    1.293   .     A
C379   C385    1.459   .     S
C379   O431    1.293   .     A
C380   C383    1.460   .     S
C380   O433    1.293   .     A
C380   O432    1.293   .     A
C381   C392    1.392   .     A
C381   H405    1.085   .     S
C381   C383    1.399   .     A
C382   C393    1.393   .     A
C382   C385    1.399   .     A
C382   H415    1.085   .     S
C383   C386    1.401   .     A
C384   C402    1.450   .     S
C384   O428    1.290   .     A
C384   O429    1.290   .     A
C385   C387    1.401   .     A
C386   C388    1.399   .     A
C386   H416    1.083   .     S
C387   C389    1.398   .     A
C387   H417    1.083   .     S
C388   C394    1.413   .     A
C388   C390    1.416   .     A
C389   C391    1.416   .     A
C389   C396    1.410   .     A
C390   C392    1.412   .     A
C390   C949    1.403   .     S
C391   C393    1.410   .     A
C391   C948    1.403   1_554 S
C392   C397    1.399   .     A
C393   C395    1.399   .     A
C394   N425    1.439   .     S
C394   C953    1.401   .     S
C395   H418    1.084   .     S
C395   C952    1.401   1_554 S
C396   N426    1.433   .     S
C396   C955    1.398   1_554 S
C397   H419    1.085   .     S
C397   C954    1.398   .     S
C398   H420    1.083   .     S
C398   C524    1.384   1_455 S
C399   C402    1.401   .     A
C399   H421    1.083   .     S
C399   C463    1.384   .     S
C400   C402    1.401   .     A
C400   H422    1.083   .     S
C400   C460    1.384   .     S
C401   H406    1.083   .     S
C401   C523    1.384   1_455 S
Cu403  Cu404   2.676   .     S
Cu403  O429    1.965   .     S
Cu403  O433    1.968   .     S
Cu403  O427    1.965   .     S
Cu403  N423    2.011   .     S
Cu403  O431    1.968   .     S
Cu404  O430    1.965   .     S
Cu404  O434    1.968   .     S
Cu404  O432    1.968   .     S
Cu404  N424    2.011   .     S
Cu404  O428    1.965   .     S
H411   N425    1.046   .     S
H412   N425    1.046   .     S
H413   N426    1.044   .     S
H414   N426    1.046   .     S
C435   O489    1.290   .     A
C435   O492    1.290   .     A
C435   C436    1.450   .     S
C436   C460    1.401   .     A
C436   C463    1.401   .     A
C437   N486    1.367   .     A
C437   H469    1.082   .     S
C438   H470    1.082   .     S
C438   N485    1.367   .     A
C438   C67     1.416   1_565 S
C439   H471    1.082   .     S
C439   N486    1.367   .     A
C440   H472    1.082   .     S
C440   N485    1.367   .     A
C440   C65     1.416   1_565 S
C441   O496    1.293   .     A
C441   C447    1.459   .     S
C441   O493    1.293   .     A
C442   C445    1.460   .     S
C442   O495    1.293   .     A
C442   O494    1.293   .     A
C443   C454    1.392   .     A
C443   H467    1.085   .     S
C443   C445    1.399   .     A
C444   C455    1.393   .     A
C444   C447    1.399   .     A
C444   H477    1.085   .     S
C445   C448    1.401   .     A
C446   C464    1.450   .     S
C446   O490    1.290   .     A
C446   O491    1.290   .     A
C447   C449    1.401   .     A
C448   C450    1.399   .     A
C448   H478    1.083   .     S
C449   C451    1.398   .     A
C449   H479    1.083   .     S
C450   C456    1.413   .     A
C450   C452    1.416   .     A
C451   C453    1.416   .     A
C451   C458    1.410   .     A
C452   C454    1.412   .     A
C452   C1011   1.403   .     S
C453   C455    1.410   .     A
C453   C1010   1.403   1_554 S
C454   C459    1.399   .     A
C455   C457    1.399   .     A
C456   N487    1.439   .     S
C456   C1015   1.401   .     S
C457   H480    1.084   .     S
C457   C1014   1.401   1_554 S
C458   N488    1.433   .     S
C458   C1017   1.398   1_554 S
C459   H481    1.085   .     S
C459   C1016   1.398   .     S
C460   H482    1.083   .     S
C461   C464    1.401   .     A
C461   H483    1.083   .     S
C461   C525    1.384   .     S
C462   C464    1.401   .     A
C462   H484    1.083   .     S
C462   C522    1.384   .     S
C463   H468    1.083   .     S
Cu465  Cu466   2.676   .     S
Cu465  O491    1.965   .     S
Cu465  O495    1.968   .     S
Cu465  O489    1.965   .     S
Cu465  N485    2.011   .     S
Cu465  O493    1.968   .     S
Cu466  O492    1.965   .     S
Cu466  O496    1.968   .     S
Cu466  O494    1.968   .     S
Cu466  N486    2.011   .     S
Cu466  O490    1.965   .     S
H473   N487    1.046   .     S
H474   N487    1.046   .     S
H475   N488    1.044   .     S
H476   N488    1.046   .     S
C497   O551    1.290   .     A
C497   O554    1.290   .     A
C497   C498    1.450   .     S
C498   C522    1.401   .     A
C498   C525    1.401   .     A
C499   N548    1.367   .     A
C499   H531    1.082   .     S
C500   H532    1.082   .     S
C500   N547    1.367   .     A
C500   C129    1.416   1_565 S
C501   H533    1.082   .     S
C501   N548    1.367   .     A
C502   H534    1.082   .     S
C502   N547    1.367   .     A
C502   C127    1.416   1_565 S
C503   O558    1.293   .     A
C503   C509    1.459   .     S
C503   O555    1.293   .     A
C504   C507    1.460   .     S
C504   O557    1.293   .     A
C504   O556    1.293   .     A
C505   C516    1.392   .     A
C505   H529    1.085   .     S
C505   C507    1.399   .     A
C506   C517    1.393   .     A
C506   C509    1.399   .     A
C506   H539    1.085   .     S
C507   C510    1.401   .     A
C508   C526    1.450   .     S
C508   O552    1.290   .     A
C508   O553    1.290   .     A
C509   C511    1.401   .     A
C510   C512    1.399   .     A
C510   H540    1.083   .     S
C511   C513    1.398   .     A
C511   H541    1.083   .     S
C512   C518    1.413   .     A
C512   C514    1.416   .     A
C513   C515    1.416   .     A
C513   C520    1.410   .     A
C514   C516    1.412   .     A
C514   C1073   1.403   .     S
C515   C517    1.410   .     A
C515   C1072   1.403   1_554 S
C516   C521    1.399   .     A
C517   C519    1.399   .     A
C518   N549    1.439   .     S
C518   C1077   1.401   .     S
C519   H542    1.084   .     S
C519   C1076   1.401   1_554 S
C520   N550    1.433   .     S
C520   C1079   1.398   1_554 S
C521   H543    1.085   .     S
C521   C1078   1.398   .     S
C522   H544    1.083   .     S
C523   C526    1.401   .     A
C523   H545    1.083   .     S
C523   C401    1.384   1_655 S
C524   C526    1.401   .     A
C524   H546    1.083   .     S
C524   C398    1.384   1_655 S
C525   H530    1.083   .     S
Cu527  Cu528   2.676   .     S
Cu527  O553    1.965   .     S
Cu527  O557    1.968   .     S
Cu527  O551    1.965   .     S
Cu527  N547    2.011   .     S
Cu527  O555    1.968   .     S
Cu528  O554    1.965   .     S
Cu528  O558    1.968   .     S
Cu528  O556    1.968   .     S
Cu528  N548    2.011   .     S
Cu528  O552    1.965   .     S
H535   N549    1.046   .     S
H536   N549    1.046   .     S
H537   N550    1.044   .     S
H538   N550    1.046   .     S
C559   O613    1.290   .     A
C559   O616    1.290   .     A
C559   C560    1.450   .     S
C560   C584    1.401   .     A
C560   C587    1.401   .     A
C561   N610    1.367   .     A
C561   H593    1.082   .     S
C561   C936    1.416   1_545 S
C562   H594    1.082   .     S
C562   N609    1.367   .     A
C562   C749    1.416   .     S
C563   H595    1.082   .     S
C563   N610    1.367   .     A
C563   C934    1.416   1_545 S
C564   H596    1.082   .     S
C564   N609    1.367   .     A
C564   C747    1.416   .     S
C565   O620    1.293   .     A
C565   C571    1.459   .     S
C565   O617    1.293   .     A
C566   C569    1.460   .     S
C566   O619    1.293   .     A
C566   O618    1.293   .     A
C567   C578    1.392   .     A
C567   H591    1.085   .     S
C567   C569    1.399   .     A
C568   C579    1.393   .     A
C568   C571    1.399   .     A
C568   H601    1.085   .     S
C569   C572    1.401   .     A
C570   C588    1.450   .     S
C570   O614    1.290   .     A
C570   O615    1.290   .     A
C571   C573    1.401   .     A
C572   C574    1.399   .     A
C572   H602    1.083   .     S
C573   C575    1.398   .     A
C573   H603    1.083   .     S
C574   C580    1.413   .     A
C574   C576    1.416   .     A
C575   C577    1.416   .     A
C575   C582    1.410   .     A
C576   C578    1.412   .     A
C576   C19     1.403   1_556 S
C577   C579    1.410   .     A
C578   C583    1.399   .     A
C579   C581    1.399   .     A
C580   N611    1.439   .     S
C580   C23     1.401   1_556 S
C581   H604    1.084   .     S
C582   N612    1.433   .     S
C583   H605    1.085   .     S
C583   C24     1.398   1_556 S
C584   H606    1.083   .     S
C584   C710    1.384   1_455 S
C585   C588    1.401   .     A
C585   H607    1.083   .     S
C585   C649    1.384   .     S
C586   C588    1.401   .     A
C586   H608    1.083   .     S
C586   C646    1.384   .     S
C587   H592    1.083   .     S
C587   C709    1.384   1_455 S
Cu589  Cu590   2.676   .     S
Cu589  O615    1.965   .     S
Cu589  O619    1.968   .     S
Cu589  O613    1.965   .     S
Cu589  N609    2.011   .     S
Cu589  O617    1.968   .     S
Cu590  O616    1.965   .     S
Cu590  O620    1.968   .     S
Cu590  O618    1.968   .     S
Cu590  N610    2.011   .     S
Cu590  O614    1.965   .     S
H597   N611    1.046   .     S
H598   N611    1.046   .     S
H599   N612    1.044   .     S
H600   N612    1.046   .     S
C621   O675    1.290   .     A
C621   O678    1.290   .     A
C621   C622    1.450   .     S
C622   C646    1.401   .     A
C622   C649    1.401   .     A
C623   N672    1.367   .     A
C623   H655    1.082   .     S
C623   C998    1.416   1_545 S
C624   H656    1.082   .     S
C624   N671    1.367   .     A
C624   C811    1.416   .     S
C625   H657    1.082   .     S
C625   N672    1.367   .     A
C625   C996    1.416   1_545 S
C626   H658    1.082   .     S
C626   N671    1.367   .     A
C626   C809    1.416   .     S
C627   O682    1.293   .     A
C627   C633    1.459   .     S
C627   O679    1.293   .     A
C628   C631    1.460   .     S
C628   O681    1.293   .     A
C628   O680    1.293   .     A
C629   C640    1.392   .     A
C629   H653    1.085   .     S
C629   C631    1.399   .     A
C630   C641    1.393   .     A
C630   C633    1.399   .     A
C630   H663    1.085   .     S
C631   C634    1.401   .     A
C632   C650    1.450   .     S
C632   O676    1.290   .     A
C632   O677    1.290   .     A
C633   C635    1.401   .     A
C634   C636    1.399   .     A
C634   H664    1.083   .     S
C635   C637    1.398   .     A
C635   H665    1.083   .     S
C636   C642    1.413   .     A
C636   C638    1.416   .     A
C637   C639    1.416   .     A
C637   C644    1.410   .     A
C638   C640    1.412   .     A
C638   C81     1.403   1_556 S
C639   C641    1.410   .     A
C640   C645    1.399   .     A
C641   C643    1.399   .     A
C642   N673    1.439   .     S
C642   C85     1.401   1_556 S
C643   H666    1.084   .     S
C644   N674    1.433   .     S
C645   H667    1.085   .     S
C645   C86     1.398   1_556 S
C646   H668    1.083   .     S
C647   C650    1.401   .     A
C647   H669    1.083   .     S
C647   C711    1.384   .     S
C648   C650    1.401   .     A
C648   H670    1.083   .     S
C648   C708    1.384   .     S
C649   H654    1.083   .     S
Cu651  Cu652   2.676   .     S
Cu651  O677    1.965   .     S
Cu651  O681    1.968   .     S
Cu651  O675    1.965   .     S
Cu651  N671    2.011   .     S
Cu651  O679    1.968   .     S
Cu652  O678    1.965   .     S
Cu652  O682    1.968   .     S
Cu652  O680    1.968   .     S
Cu652  N672    2.011   .     S
Cu652  O676    1.965   .     S
H659   N673    1.046   .     S
H660   N673    1.046   .     S
H661   N674    1.044   .     S
H662   N674    1.046   .     S
C683   O737    1.290   .     A
C683   O740    1.290   .     A
C683   C684    1.450   .     S
C684   C708    1.401   .     A
C684   C711    1.401   .     A
C685   N734    1.367   .     A
C685   H717    1.082   .     S
C685   C1060   1.416   1_545 S
C686   H718    1.082   .     S
C686   N733    1.367   .     A
C686   C873    1.416   .     S
C687   H719    1.082   .     S
C687   N734    1.367   .     A
C687   C1058   1.416   1_545 S
C688   H720    1.082   .     S
C688   N733    1.367   .     A
C688   C871    1.416   .     S
C689   O744    1.293   .     A
C689   C695    1.459   .     S
C689   O741    1.293   .     A
C690   C693    1.460   .     S
C690   O743    1.293   .     A
C690   O742    1.293   .     A
C691   C702    1.392   .     A
C691   H715    1.085   .     S
C691   C693    1.399   .     A
C692   C703    1.393   .     A
C692   C695    1.399   .     A
C692   H725    1.085   .     S
C693   C696    1.401   .     A
C694   C712    1.450   .     S
C694   O738    1.290   .     A
C694   O739    1.290   .     A
C695   C697    1.401   .     A
C696   C698    1.399   .     A
C696   H726    1.083   .     S
C697   C699    1.398   .     A
C697   H727    1.083   .     S
C698   C704    1.413   .     A
C698   C700    1.416   .     A
C699   C701    1.416   .     A
C699   C706    1.410   .     A
C700   C702    1.412   .     A
C700   C143    1.403   1_556 S
C701   C703    1.410   .     A
C702   C707    1.399   .     A
C703   C705    1.399   .     A
C704   N735    1.439   .     S
C704   C147    1.401   1_556 S
C705   H728    1.084   .     S
C706   N736    1.433   .     S
C707   H729    1.085   .     S
C707   C148    1.398   1_556 S
C708   H730    1.083   .     S
C709   C712    1.401   .     A
C709   H731    1.083   .     S
C709   C587    1.384   1_655 S
C710   C712    1.401   .     A
C710   H732    1.083   .     S
C710   C584    1.384   1_655 S
C711   H716    1.083   .     S
Cu713  Cu714   2.676   .     S
Cu713  O739    1.965   .     S
Cu713  O743    1.968   .     S
Cu713  O737    1.965   .     S
Cu713  N733    2.011   .     S
Cu713  O741    1.968   .     S
Cu714  O740    1.965   .     S
Cu714  O744    1.968   .     S
Cu714  O742    1.968   .     S
Cu714  N734    2.011   .     S
Cu714  O738    1.965   .     S
H721   N735    1.046   .     S
H722   N735    1.046   .     S
H723   N736    1.044   .     S
H724   N736    1.046   .     S
C745   O799    1.290   .     A
C745   O802    1.290   .     A
C745   C746    1.450   .     S
C746   C770    1.401   .     A
C746   C773    1.401   .     A
C747   N796    1.367   .     A
C747   H779    1.082   .     S
C748   H780    1.082   .     S
C748   N795    1.367   .     A
C748   C935    1.416   .     S
C749   H781    1.082   .     S
C749   N796    1.367   .     A
C750   H782    1.082   .     S
C750   N795    1.367   .     A
C750   C933    1.416   .     S
C751   O806    1.293   .     A
C751   C757    1.459   .     S
C751   O803    1.293   .     A
C752   C755    1.460   .     S
C752   O805    1.293   .     A
C752   O804    1.293   .     A
C753   C764    1.392   .     A
C753   H777    1.085   .     S
C753   C755    1.399   .     A
C754   C765    1.393   .     A
C754   C757    1.399   .     A
C754   H787    1.085   .     S
C755   C758    1.401   .     A
C756   C774    1.450   .     S
C756   O800    1.290   .     A
C756   O801    1.290   .     A
C757   C759    1.401   .     A
C758   C760    1.399   .     A
C758   H788    1.083   .     S
C759   C761    1.398   .     A
C759   H789    1.083   .     S
C760   C766    1.413   .     A
C760   C762    1.416   .     A
C761   C763    1.416   .     A
C761   C768    1.410   .     A
C762   C764    1.412   .     A
C762   C205    1.403   1_556 S
C763   C765    1.410   .     A
C764   C769    1.399   .     A
C765   C767    1.399   .     A
C766   N797    1.439   .     S
C766   C209    1.401   1_556 S
C767   H790    1.084   .     S
C768   N798    1.433   .     S
C769   H791    1.085   .     S
C769   C210    1.398   1_556 S
C770   H792    1.083   .     S
C770   C896    1.384   1_455 S
C771   C774    1.401   .     A
C771   H793    1.083   .     S
C771   C835    1.384   .     S
C772   C774    1.401   .     A
C772   H794    1.083   .     S
C772   C832    1.384   .     S
C773   H778    1.083   .     S
C773   C895    1.384   1_455 S
Cu775  Cu776   2.676   .     S
Cu775  O801    1.965   .     S
Cu775  O805    1.968   .     S
Cu775  O799    1.965   .     S
Cu775  N795    2.011   .     S
Cu775  O803    1.968   .     S
Cu776  O802    1.965   .     S
Cu776  O806    1.968   .     S
Cu776  O804    1.968   .     S
Cu776  N796    2.011   .     S
Cu776  O800    1.965   .     S
H783   N797    1.046   .     S
H784   N797    1.046   .     S
H785   N798    1.044   .     S
H786   N798    1.046   .     S
C807   O861    1.290   .     A
C807   O864    1.290   .     A
C807   C808    1.450   .     S
C808   C832    1.401   .     A
C808   C835    1.401   .     A
C809   N858    1.367   .     A
C809   H841    1.082   .     S
C810   H842    1.082   .     S
C810   N857    1.367   .     A
C810   C997    1.416   .     S
C811   H843    1.082   .     S
C811   N858    1.367   .     A
C812   H844    1.082   .     S
C812   N857    1.367   .     A
C812   C995    1.416   .     S
C813   O868    1.293   .     A
C813   C819    1.459   .     S
C813   O865    1.293   .     A
C814   C817    1.460   .     S
C814   O867    1.293   .     A
C814   O866    1.293   .     A
C815   C826    1.392   .     A
C815   H839    1.085   .     S
C815   C817    1.399   .     A
C816   C827    1.393   .     A
C816   C819    1.399   .     A
C816   H849    1.085   .     S
C817   C820    1.401   .     A
C818   C836    1.450   .     S
C818   O862    1.290   .     A
C818   O863    1.290   .     A
C819   C821    1.401   .     A
C820   C822    1.399   .     A
C820   H850    1.083   .     S
C821   C823    1.398   .     A
C821   H851    1.083   .     S
C822   C828    1.413   .     A
C822   C824    1.416   .     A
C823   C825    1.416   .     A
C823   C830    1.410   .     A
C824   C826    1.412   .     A
C824   C267    1.403   1_556 S
C825   C827    1.410   .     A
C826   C831    1.399   .     A
C827   C829    1.399   .     A
C828   N859    1.439   .     S
C828   C271    1.401   1_556 S
C829   H852    1.084   .     S
C830   N860    1.433   .     S
C831   H853    1.085   .     S
C831   C272    1.398   1_556 S
C832   H854    1.083   .     S
C833   C836    1.401   .     A
C833   H855    1.083   .     S
C833   C897    1.384   .     S
C834   C836    1.401   .     A
C834   H856    1.083   .     S
C834   C894    1.384   .     S
C835   H840    1.083   .     S
Cu837  Cu838   2.676   .     S
Cu837  O863    1.965   .     S
Cu837  O867    1.968   .     S
Cu837  O861    1.965   .     S
Cu837  N857    2.011   .     S
Cu837  O865    1.968   .     S
Cu838  O864    1.965   .     S
Cu838  O868    1.968   .     S
Cu838  O866    1.968   .     S
Cu838  N858    2.011   .     S
Cu838  O862    1.965   .     S
H845   N859    1.046   .     S
H846   N859    1.046   .     S
H847   N860    1.044   .     S
H848   N860    1.046   .     S
C869   O923    1.290   .     A
C869   O926    1.290   .     A
C869   C870    1.450   .     S
C870   C894    1.401   .     A
C870   C897    1.401   .     A
C871   N920    1.367   .     A
C871   H903    1.082   .     S
C872   H904    1.082   .     S
C872   N919    1.367   .     A
C872   C1059   1.416   .     S
C873   H905    1.082   .     S
C873   N920    1.367   .     A
C874   H906    1.082   .     S
C874   N919    1.367   .     A
C874   C1057   1.416   .     S
C875   O930    1.293   .     A
C875   C881    1.459   .     S
C875   O927    1.293   .     A
C876   C879    1.460   .     S
C876   O929    1.293   .     A
C876   O928    1.293   .     A
C877   C888    1.392   .     A
C877   H901    1.085   .     S
C877   C879    1.399   .     A
C878   C889    1.393   .     A
C878   C881    1.399   .     A
C878   H911    1.085   .     S
C879   C882    1.401   .     A
C880   C898    1.450   .     S
C880   O924    1.290   .     A
C880   O925    1.290   .     A
C881   C883    1.401   .     A
C882   C884    1.399   .     A
C882   H912    1.083   .     S
C883   C885    1.398   .     A
C883   H913    1.083   .     S
C884   C890    1.413   .     A
C884   C886    1.416   .     A
C885   C887    1.416   .     A
C885   C892    1.410   .     A
C886   C888    1.412   .     A
C886   C329    1.403   1_556 S
C887   C889    1.410   .     A
C888   C893    1.399   .     A
C889   C891    1.399   .     A
C890   N921    1.439   .     S
C890   C333    1.401   1_556 S
C891   H914    1.084   .     S
C892   N922    1.433   .     S
C893   H915    1.085   .     S
C893   C334    1.398   1_556 S
C894   H916    1.083   .     S
C895   C898    1.401   .     A
C895   H917    1.083   .     S
C895   C773    1.384   1_655 S
C896   C898    1.401   .     A
C896   H918    1.083   .     S
C896   C770    1.384   1_655 S
C897   H902    1.083   .     S
Cu899  Cu900   2.676   .     S
Cu899  O925    1.965   .     S
Cu899  O929    1.968   .     S
Cu899  O923    1.965   .     S
Cu899  N919    2.011   .     S
Cu899  O927    1.968   .     S
Cu900  O926    1.965   .     S
Cu900  O930    1.968   .     S
Cu900  O928    1.968   .     S
Cu900  N920    2.011   .     S
Cu900  O924    1.965   .     S
H907   N921    1.046   .     S
H908   N921    1.046   .     S
H909   N922    1.044   .     S
H910   N922    1.046   .     S
C931   O985    1.290   .     A
C931   O988    1.290   .     A
C931   C932    1.450   .     S
C932   C956    1.401   .     A
C932   C959    1.401   .     A
C933   N982    1.367   .     A
C933   H965    1.082   .     S
C934   H966    1.082   .     S
C934   N981    1.367   .     A
C934   C563    1.416   1_565 S
C935   H967    1.082   .     S
C935   N982    1.367   .     A
C936   H968    1.082   .     S
C936   N981    1.367   .     A
C936   C561    1.416   1_565 S
C937   O992    1.293   .     A
C937   C943    1.459   .     S
C937   O989    1.293   .     A
C938   C941    1.460   .     S
C938   O991    1.293   .     A
C938   O990    1.293   .     A
C939   C950    1.392   .     A
C939   H963    1.085   .     S
C939   C941    1.399   .     A
C940   C951    1.393   .     A
C940   C943    1.399   .     A
C940   H973    1.085   .     S
C941   C944    1.401   .     A
C942   C960    1.450   .     S
C942   O986    1.290   .     A
C942   O987    1.290   .     A
C943   C945    1.401   .     A
C944   C946    1.399   .     A
C944   H974    1.083   .     S
C945   C947    1.398   .     A
C945   H975    1.083   .     S
C946   C952    1.413   .     A
C946   C948    1.416   .     A
C947   C949    1.416   .     A
C947   C954    1.410   .     A
C948   C950    1.412   .     A
C948   C391    1.403   1_556 S
C949   C951    1.410   .     A
C950   C955    1.399   .     A
C951   C953    1.399   .     A
C952   N983    1.439   .     S
C952   C395    1.401   1_556 S
C953   H976    1.084   .     S
C954   N984    1.433   .     S
C955   H977    1.085   .     S
C955   C396    1.398   1_556 S
C956   H978    1.083   .     S
C956   C1082   1.384   1_455 S
C957   C960    1.401   .     A
C957   H979    1.083   .     S
C957   C1021   1.384   .     S
C958   C960    1.401   .     A
C958   H980    1.083   .     S
C958   C1018   1.384   .     S
C959   H964    1.083   .     S
C959   C1081   1.384   1_455 S
Cu961  Cu962   2.676   .     S
Cu961  O987    1.965   .     S
Cu961  O991    1.968   .     S
Cu961  O985    1.965   .     S
Cu961  N981    2.011   .     S
Cu961  O989    1.968   .     S
Cu962  O988    1.965   .     S
Cu962  O992    1.968   .     S
Cu962  O990    1.968   .     S
Cu962  N982    2.011   .     S
Cu962  O986    1.965   .     S
H969   N983    1.046   .     S
H970   N983    1.046   .     S
H971   N984    1.044   .     S
H972   N984    1.046   .     S
C993   O1047   1.290   .     A
C993   O1050   1.290   .     A
C993   C994    1.450   .     S
C994   C1018   1.401   .     A
C994   C1021   1.401   .     A
C995   N1044   1.367   .     A
C995   H1027   1.082   .     S
C996   H1028   1.082   .     S
C996   N1043   1.367   .     A
C996   C625    1.416   1_565 S
C997   H1029   1.082   .     S
C997   N1044   1.367   .     A
C998   H1030   1.082   .     S
C998   N1043   1.367   .     A
C998   C623    1.416   1_565 S
C999   O1054   1.293   .     A
C999   C1005   1.459   .     S
C999   O1051   1.293   .     A
C1000  C1003   1.460   .     S
C1000  O1053   1.293   .     A
C1000  O1052   1.293   .     A
C1001  C1012   1.392   .     A
C1001  H1025   1.085   .     S
C1001  C1003   1.399   .     A
C1002  C1013   1.393   .     A
C1002  C1005   1.399   .     A
C1002  H1035   1.085   .     S
C1003  C1006   1.401   .     A
C1004  C1022   1.450   .     S
C1004  O1048   1.290   .     A
C1004  O1049   1.290   .     A
C1005  C1007   1.401   .     A
C1006  C1008   1.399   .     A
C1006  H1036   1.083   .     S
C1007  C1009   1.398   .     A
C1007  H1037   1.083   .     S
C1008  C1014   1.413   .     A
C1008  C1010   1.416   .     A
C1009  C1011   1.416   .     A
C1009  C1016   1.410   .     A
C1010  C1012   1.412   .     A
C1010  C453    1.403   1_556 S
C1011  C1013   1.410   .     A
C1012  C1017   1.399   .     A
C1013  C1015   1.399   .     A
C1014  N1045   1.439   .     S
C1014  C457    1.401   1_556 S
C1015  H1038   1.084   .     S
C1016  N1046   1.433   .     S
C1017  H1039   1.085   .     S
C1017  C458    1.398   1_556 S
C1018  H1040   1.083   .     S
C1019  C1022   1.401   .     A
C1019  H1041   1.083   .     S
C1019  C1083   1.384   .     S
C1020  C1022   1.401   .     A
C1020  H1042   1.083   .     S
C1020  C1080   1.384   .     S
C1021  H1026   1.083   .     S
Cu1023 Cu1024  2.676   .     S
Cu1023 O1049   1.965   .     S
Cu1023 O1053   1.968   .     S
Cu1023 O1047   1.965   .     S
Cu1023 N1043   2.011   .     S
Cu1023 O1051   1.968   .     S
Cu1024 O1050   1.965   .     S
Cu1024 O1054   1.968   .     S
Cu1024 O1052   1.968   .     S
Cu1024 N1044   2.011   .     S
Cu1024 O1048   1.965   .     S
H1031  N1045   1.046   .     S
H1032  N1045   1.046   .     S
H1033  N1046   1.044   .     S
H1034  N1046   1.046   .     S
C1055  O1109   1.290   .     A
C1055  O1112   1.290   .     A
C1055  C1056   1.450   .     S
C1056  C1080   1.401   .     A
C1056  C1083   1.401   .     A
C1057  N1106   1.367   .     A
C1057  H1089   1.082   .     S
C1058  H1090   1.082   .     S
C1058  N1105   1.367   .     A
C1058  C687    1.416   1_565 S
C1059  H1091   1.082   .     S
C1059  N1106   1.367   .     A
C1060  H1092   1.082   .     S
C1060  N1105   1.367   .     A
C1060  C685    1.416   1_565 S
C1061  O1116   1.293   .     A
C1061  C1067   1.459   .     S
C1061  O1113   1.293   .     A
C1062  C1065   1.460   .     S
C1062  O1115   1.293   .     A
C1062  O1114   1.293   .     A
C1063  C1074   1.392   .     A
C1063  H1087   1.085   .     S
C1063  C1065   1.399   .     A
C1064  C1075   1.393   .     A
C1064  C1067   1.399   .     A
C1064  H1097   1.085   .     S
C1065  C1068   1.401   .     A
C1066  C1084   1.450   .     S
C1066  O1110   1.290   .     A
C1066  O1111   1.290   .     A
C1067  C1069   1.401   .     A
C1068  C1070   1.399   .     A
C1068  H1098   1.083   .     S
C1069  C1071   1.398   .     A
C1069  H1099   1.083   .     S
C1070  C1076   1.413   .     A
C1070  C1072   1.416   .     A
C1071  C1073   1.416   .     A
C1071  C1078   1.410   .     A
C1072  C1074   1.412   .     A
C1072  C515    1.403   1_556 S
C1073  C1075   1.410   .     A
C1074  C1079   1.399   .     A
C1075  C1077   1.399   .     A
C1076  N1107   1.439   .     S
C1076  C519    1.401   1_556 S
C1077  H1100   1.084   .     S
C1078  N1108   1.433   .     S
C1079  H1101   1.085   .     S
C1079  C520    1.398   1_556 S
C1080  H1102   1.083   .     S
C1081  C1084   1.401   .     A
C1081  H1103   1.083   .     S
C1081  C959    1.384   1_655 S
C1082  C1084   1.401   .     A
C1082  H1104   1.083   .     S
C1082  C956    1.384   1_655 S
C1083  H1088   1.083   .     S
Cu1085 Cu1086  2.676   .     S
Cu1085 O1111   1.965   .     S
Cu1085 O1115   1.968   .     S
Cu1085 O1109   1.965   .     S
Cu1085 N1105   2.011   .     S
Cu1085 O1113   1.968   .     S
Cu1086 O1112   1.965   .     S
Cu1086 O1116   1.968   .     S
Cu1086 O1114   1.968   .     S
Cu1086 N1106   2.011   .     S
Cu1086 O1110   1.965   .     S
H1093  N1107   1.046   .     S
H1094  N1107   1.046   .     S
H1095  N1108   1.044   .     S
H1096  N1108   1.046   .     S
