data_str_m2_o1_o5_pcu_sym.90
_audit_creation_date              2020-01-03
_audit_creation_method            'Materials Studio'
_symmetry_space_group_name_H-M    'P1'
_symmetry_Int_Tables_number       1
_symmetry_cell_setting            triclinic
loop_
_symmetry_equiv_pos_as_xyz
  x,y,z
_cell_length_a                    32.7184
_cell_length_b                    28.8092
_cell_length_c                    27.2731
_cell_angle_alpha                 90.0000
_cell_angle_beta                  92.0507
_cell_angle_gamma                 89.9999
loop_
_atom_site_label
_atom_site_type_symbol
_atom_site_fract_x
_atom_site_fract_y
_atom_site_fract_z
_atom_site_U_iso_or_equiv
_atom_site_adp_type
_atom_site_occupancy
C1     C     0.08760   0.16682   0.17025   0.00000  Uiso   1.00
C2     C     0.02110   0.21008   0.17123   0.00000  Uiso   1.00
C3     C     0.29063   0.16757   0.15998   0.00000  Uiso   1.00
C4     C     0.04271   0.16757   0.17335   0.00000  Uiso   1.00
C5     C     0.14266   0.02528   0.13329   0.00000  Uiso   1.00
C6     C     0.18895   0.30863   0.20163   0.00000  Uiso   1.00
C7     C     0.19067   0.02528   0.20005   0.00000  Uiso   1.00
C8     C     0.14439   0.30863   0.13170   0.00000  Uiso   1.00
C9     C     0.03831   0.08423   0.19535   0.00000  Uiso   1.00
C10    C     0.29234   0.25367   0.14965   0.00000  Uiso   1.00
C11    C     0.29503   0.08423   0.13799   0.00000  Uiso   1.00
C12    C     0.24573   0.16682   0.16308   0.00000  Uiso   1.00
C13    C     0.04099   0.25367   0.18368   0.00000  Uiso   1.00
C14    C     0.07857   0.03767   0.09564   0.00000  Uiso   1.00
C15    C     0.19179   0.29041   0.28276   0.00000  Uiso   1.00
C16    C     0.25476   0.03767   0.23770   0.00000  Uiso   1.00
C17    C     0.14154   0.29041   0.05058   0.00000  Uiso   1.00
C18    C     0.16657   0.16666   0.07360   0.00000  Uiso   1.00
C19    C     0.16676   0.16666   0.25973   0.00000  Uiso   1.00
C20    C     0.16664   0.16663   0.02185   0.00000  Uiso   1.00
C21    C     0.16670   0.16663   0.31148   0.00000  Uiso   1.00
C22    C     0.02071   0.12563   0.17326   0.00000  Uiso   1.00
C23    C     0.31223   0.21008   0.16210   0.00000  Uiso   1.00
C24    C     0.31262   0.12563   0.16007   0.00000  Uiso   1.00
Cu25   Cu    0.16667   0.21355   0.16667   0.00000  Uiso   1.00
Cu26   Cu    0.16667   0.11978   0.16667   0.00000  Uiso   1.00
H27    H     0.05965   0.06956   0.09286   0.00000  Uiso   1.00
H28    H     0.12857   0.26445   0.02434   0.00000  Uiso   1.00
H29    H     0.13549   0.32520   0.03454   0.00000  Uiso   1.00
H30    H     0.17520   0.28461   0.05393   0.00000  Uiso   1.00
H31    H     0.06838   0.01757   0.12765   0.00000  Uiso   1.00
H32    H     0.07207   0.01734   0.06173   0.00000  Uiso   1.00
H33    H     0.20476   0.26445   0.30899   0.00000  Uiso   1.00
H34    H     0.19784   0.32520   0.29880   0.00000  Uiso   1.00
H35    H     0.15814   0.28461   0.27940   0.00000  Uiso   1.00
H36    H     0.27368   0.06956   0.24047   0.00000  Uiso   1.00
H37    H     0.26496   0.01757   0.20568   0.00000  Uiso   1.00
H38    H     0.26126   0.01734   0.27160   0.00000  Uiso   1.00
N39    N     0.16667   0.28402   0.16667   0.00000  Uiso   1.00
N40    N     0.16667   0.04931   0.16667   0.00000  Uiso   1.00
N41    N     0.05238   0.05176   0.21426   0.00000  Uiso   1.00
N42    N     0.27627   0.28812   0.13900   0.00000  Uiso   1.00
N43    N     0.28095   0.05176   0.11908   0.00000  Uiso   1.00
N44    N     0.05706   0.28812   0.19433   0.00000  Uiso   1.00
O45    O     0.10655   0.20625   0.16666   0.00000  Uiso   1.00
O46    O     0.21087   0.28452   0.23753   0.00000  Uiso   1.00
O47    O     0.21311   0.05082   0.23482   0.00000  Uiso   1.00
O48    O     0.12246   0.28452   0.09580   0.00000  Uiso   1.00
O49    O     0.22679   0.12709   0.16667   0.00000  Uiso   1.00
O50    O     0.22679   0.20625   0.16667   0.00000  Uiso   1.00
O51    O     0.10655   0.12709   0.16666   0.00000  Uiso   1.00
O52    O     0.16667   0.20625   0.09613   0.00000  Uiso   1.00
O53    O     0.16667   0.12708   0.23720   0.00000  Uiso   1.00
O54    O     0.16667   0.20625   0.23720   0.00000  Uiso   1.00
O55    O     0.16667   0.12708   0.09613   0.00000  Uiso   1.00
O56    O     0.12023   0.05082   0.09851   0.00000  Uiso   1.00
C57    C     0.42094   0.16682   0.17025   0.00000  Uiso   1.00
C58    C     0.35444   0.21008   0.17123   0.00000  Uiso   1.00
C59    C     0.62396   0.16757   0.15998   0.00000  Uiso   1.00
C60    C     0.37604   0.16757   0.17335   0.00000  Uiso   1.00
C61    C     0.47599   0.02528   0.13329   0.00000  Uiso   1.00
C62    C     0.52228   0.30863   0.20163   0.00000  Uiso   1.00
C63    C     0.52401   0.02528   0.20005   0.00000  Uiso   1.00
C64    C     0.47772   0.30863   0.13170   0.00000  Uiso   1.00
C65    C     0.37164   0.08423   0.19535   0.00000  Uiso   1.00
C66    C     0.62568   0.25367   0.14965   0.00000  Uiso   1.00
C67    C     0.62836   0.08423   0.13799   0.00000  Uiso   1.00
C68    C     0.57906   0.16682   0.16308   0.00000  Uiso   1.00
C69    C     0.37432   0.25367   0.18368   0.00000  Uiso   1.00
C70    C     0.41190   0.03767   0.09564   0.00000  Uiso   1.00
C71    C     0.52513   0.29041   0.28276   0.00000  Uiso   1.00
C72    C     0.58810   0.03767   0.23770   0.00000  Uiso   1.00
C73    C     0.47487   0.29041   0.05058   0.00000  Uiso   1.00
C74    C     0.49990   0.16666   0.07360   0.00000  Uiso   1.00
C75    C     0.50010   0.16666   0.25973   0.00000  Uiso   1.00
C76    C     0.49997   0.16663   0.02185   0.00000  Uiso   1.00
C77    C     0.50003   0.16663   0.31148   0.00000  Uiso   1.00
C78    C     0.35405   0.12563   0.17326   0.00000  Uiso   1.00
C79    C     0.64556   0.21008   0.16210   0.00000  Uiso   1.00
C80    C     0.64596   0.12563   0.16007   0.00000  Uiso   1.00
Cu81   Cu    0.50000   0.21355   0.16667   0.00000  Uiso   1.00
Cu82   Cu    0.50000   0.11978   0.16667   0.00000  Uiso   1.00
H83    H     0.39299   0.06956   0.09286   0.00000  Uiso   1.00
H84    H     0.46190   0.26445   0.02434   0.00000  Uiso   1.00
H85    H     0.46883   0.32520   0.03454   0.00000  Uiso   1.00
H86    H     0.50853   0.28461   0.05393   0.00000  Uiso   1.00
H87    H     0.40171   0.01757   0.12765   0.00000  Uiso   1.00
H88    H     0.40541   0.01734   0.06173   0.00000  Uiso   1.00
H89    H     0.53810   0.26445   0.30899   0.00000  Uiso   1.00
H90    H     0.53117   0.32520   0.29880   0.00000  Uiso   1.00
H91    H     0.49147   0.28461   0.27940   0.00000  Uiso   1.00
H92    H     0.60701   0.06956   0.24047   0.00000  Uiso   1.00
H93    H     0.59829   0.01757   0.20568   0.00000  Uiso   1.00
H94    H     0.59460   0.01734   0.27160   0.00000  Uiso   1.00
N95    N     0.50000   0.28402   0.16667   0.00000  Uiso   1.00
N96    N     0.50000   0.04931   0.16667   0.00000  Uiso   1.00
N97    N     0.38571   0.05176   0.21426   0.00000  Uiso   1.00
N98    N     0.60960   0.28812   0.13900   0.00000  Uiso   1.00
N99    N     0.61429   0.05176   0.11908   0.00000  Uiso   1.00
N100   N     0.39040   0.28812   0.19433   0.00000  Uiso   1.00
O101   O     0.43988   0.20625   0.16666   0.00000  Uiso   1.00
O102   O     0.54420   0.28452   0.23753   0.00000  Uiso   1.00
O103   O     0.54644   0.05082   0.23482   0.00000  Uiso   1.00
O104   O     0.45580   0.28452   0.09580   0.00000  Uiso   1.00
O105   O     0.56012   0.12709   0.16667   0.00000  Uiso   1.00
O106   O     0.56012   0.20625   0.16667   0.00000  Uiso   1.00
O107   O     0.43988   0.12709   0.16666   0.00000  Uiso   1.00
O108   O     0.50000   0.20625   0.09613   0.00000  Uiso   1.00
O109   O     0.50000   0.12708   0.23720   0.00000  Uiso   1.00
O110   O     0.50000   0.20625   0.23720   0.00000  Uiso   1.00
O111   O     0.50000   0.12708   0.09613   0.00000  Uiso   1.00
O112   O     0.45356   0.05082   0.09851   0.00000  Uiso   1.00
C113   C     0.75427   0.16682   0.17025   0.00000  Uiso   1.00
C114   C     0.68777   0.21008   0.17123   0.00000  Uiso   1.00
C115   C     0.95729   0.16757   0.15998   0.00000  Uiso   1.00
C116   C     0.70937   0.16757   0.17335   0.00000  Uiso   1.00
C117   C     0.80933   0.02528   0.13329   0.00000  Uiso   1.00
C118   C     0.85561   0.30863   0.20163   0.00000  Uiso   1.00
C119   C     0.85734   0.02528   0.20005   0.00000  Uiso   1.00
C120   C     0.81106   0.30863   0.13170   0.00000  Uiso   1.00
C121   C     0.70497   0.08423   0.19535   0.00000  Uiso   1.00
C122   C     0.95901   0.25367   0.14965   0.00000  Uiso   1.00
C123   C     0.96169   0.08423   0.13799   0.00000  Uiso   1.00
C124   C     0.91240   0.16682   0.16308   0.00000  Uiso   1.00
C125   C     0.70766   0.25367   0.18368   0.00000  Uiso   1.00
C126   C     0.74524   0.03767   0.09564   0.00000  Uiso   1.00
C127   C     0.85846   0.29041   0.28276   0.00000  Uiso   1.00
C128   C     0.92143   0.03767   0.23770   0.00000  Uiso   1.00
C129   C     0.80821   0.29041   0.05058   0.00000  Uiso   1.00
C130   C     0.83324   0.16666   0.07360   0.00000  Uiso   1.00
C131   C     0.83343   0.16666   0.25973   0.00000  Uiso   1.00
C132   C     0.83330   0.16663   0.02185   0.00000  Uiso   1.00
C133   C     0.83336   0.16663   0.31148   0.00000  Uiso   1.00
C134   C     0.68738   0.12563   0.17326   0.00000  Uiso   1.00
C135   C     0.97890   0.21008   0.16210   0.00000  Uiso   1.00
C136   C     0.97929   0.12563   0.16007   0.00000  Uiso   1.00
Cu137  Cu    0.83333   0.21355   0.16667   0.00000  Uiso   1.00
Cu138  Cu    0.83333   0.11978   0.16667   0.00000  Uiso   1.00
H139   H     0.72632   0.06956   0.09286   0.00000  Uiso   1.00
H140   H     0.79524   0.26445   0.02434   0.00000  Uiso   1.00
H141   H     0.80216   0.32520   0.03454   0.00000  Uiso   1.00
H142   H     0.84186   0.28461   0.05393   0.00000  Uiso   1.00
H143   H     0.73504   0.01757   0.12765   0.00000  Uiso   1.00
H144   H     0.73874   0.01734   0.06173   0.00000  Uiso   1.00
H145   H     0.87143   0.26445   0.30899   0.00000  Uiso   1.00
H146   H     0.86451   0.32520   0.29880   0.00000  Uiso   1.00
H147   H     0.82480   0.28461   0.27940   0.00000  Uiso   1.00
H148   H     0.94035   0.06956   0.24047   0.00000  Uiso   1.00
H149   H     0.93162   0.01757   0.20568   0.00000  Uiso   1.00
H150   H     0.92793   0.01734   0.27160   0.00000  Uiso   1.00
N151   N     0.83333   0.28402   0.16667   0.00000  Uiso   1.00
N152   N     0.83333   0.04931   0.16667   0.00000  Uiso   1.00
N153   N     0.71905   0.05176   0.21426   0.00000  Uiso   1.00
N154   N     0.94294   0.28812   0.13900   0.00000  Uiso   1.00
N155   N     0.94762   0.05176   0.11908   0.00000  Uiso   1.00
N156   N     0.72373   0.28812   0.19433   0.00000  Uiso   1.00
O157   O     0.77321   0.20625   0.16666   0.00000  Uiso   1.00
O158   O     0.87754   0.28452   0.23753   0.00000  Uiso   1.00
O159   O     0.87977   0.05082   0.23482   0.00000  Uiso   1.00
O160   O     0.78913   0.28452   0.09580   0.00000  Uiso   1.00
O161   O     0.89345   0.12709   0.16667   0.00000  Uiso   1.00
O162   O     0.89345   0.20625   0.16667   0.00000  Uiso   1.00
O163   O     0.77321   0.12709   0.16666   0.00000  Uiso   1.00
O164   O     0.83333   0.20625   0.09613   0.00000  Uiso   1.00
O165   O     0.83333   0.12708   0.23720   0.00000  Uiso   1.00
O166   O     0.83333   0.20625   0.23720   0.00000  Uiso   1.00
O167   O     0.83333   0.12708   0.09613   0.00000  Uiso   1.00
O168   O     0.78689   0.05082   0.09851   0.00000  Uiso   1.00
C169   C     0.08760   0.50015   0.17025   0.00000  Uiso   1.00
C170   C     0.02110   0.54341   0.17123   0.00000  Uiso   1.00
C171   C     0.29063   0.50091   0.15998   0.00000  Uiso   1.00
C172   C     0.04271   0.50091   0.17335   0.00000  Uiso   1.00
C173   C     0.14266   0.35862   0.13329   0.00000  Uiso   1.00
C174   C     0.18895   0.64197   0.20163   0.00000  Uiso   1.00
C175   C     0.19067   0.35861   0.20005   0.00000  Uiso   1.00
C176   C     0.14439   0.64197   0.13170   0.00000  Uiso   1.00
C177   C     0.03831   0.41757   0.19535   0.00000  Uiso   1.00
C178   C     0.29234   0.58701   0.14965   0.00000  Uiso   1.00
C179   C     0.29503   0.41757   0.13799   0.00000  Uiso   1.00
C180   C     0.24573   0.50015   0.16308   0.00000  Uiso   1.00
C181   C     0.04099   0.58701   0.18368   0.00000  Uiso   1.00
C182   C     0.07857   0.37100   0.09564   0.00000  Uiso   1.00
C183   C     0.19179   0.62375   0.28276   0.00000  Uiso   1.00
C184   C     0.25476   0.37100   0.23770   0.00000  Uiso   1.00
C185   C     0.14154   0.62375   0.05058   0.00000  Uiso   1.00
C186   C     0.16657   0.49999   0.07360   0.00000  Uiso   1.00
C187   C     0.16676   0.49999   0.25973   0.00000  Uiso   1.00
C188   C     0.16664   0.49997   0.02185   0.00000  Uiso   1.00
C189   C     0.16670   0.49997   0.31148   0.00000  Uiso   1.00
C190   C     0.02071   0.45896   0.17326   0.00000  Uiso   1.00
C191   C     0.31223   0.54341   0.16210   0.00000  Uiso   1.00
C192   C     0.31262   0.45897   0.16007   0.00000  Uiso   1.00
Cu193  Cu    0.16667   0.54689   0.16667   0.00000  Uiso   1.00
Cu194  Cu    0.16667   0.45311   0.16667   0.00000  Uiso   1.00
H195   H     0.05965   0.40290   0.09286   0.00000  Uiso   1.00
H196   H     0.12857   0.59779   0.02434   0.00000  Uiso   1.00
H197   H     0.13549   0.65853   0.03454   0.00000  Uiso   1.00
H198   H     0.17520   0.61794   0.05393   0.00000  Uiso   1.00
H199   H     0.06838   0.35090   0.12765   0.00000  Uiso   1.00
H200   H     0.07207   0.35067   0.06173   0.00000  Uiso   1.00
H201   H     0.20476   0.59779   0.30899   0.00000  Uiso   1.00
H202   H     0.19784   0.65853   0.29880   0.00000  Uiso   1.00
H203   H     0.15814   0.61794   0.27940   0.00000  Uiso   1.00
H204   H     0.27368   0.40290   0.24047   0.00000  Uiso   1.00
H205   H     0.26496   0.35090   0.20568   0.00000  Uiso   1.00
H206   H     0.26126   0.35067   0.27160   0.00000  Uiso   1.00
N207   N     0.16667   0.61736   0.16667   0.00000  Uiso   1.00
N208   N     0.16667   0.38264   0.16667   0.00000  Uiso   1.00
N209   N     0.05238   0.38509   0.21426   0.00000  Uiso   1.00
N210   N     0.27627   0.62145   0.13900   0.00000  Uiso   1.00
N211   N     0.28095   0.38509   0.11908   0.00000  Uiso   1.00
N212   N     0.05706   0.62145   0.19433   0.00000  Uiso   1.00
O213   O     0.10655   0.53958   0.16666   0.00000  Uiso   1.00
O214   O     0.21087   0.61785   0.23753   0.00000  Uiso   1.00
O215   O     0.21311   0.38415   0.23482   0.00000  Uiso   1.00
O216   O     0.12246   0.61785   0.09580   0.00000  Uiso   1.00
O217   O     0.22679   0.46042   0.16667   0.00000  Uiso   1.00
O218   O     0.22679   0.53958   0.16667   0.00000  Uiso   1.00
O219   O     0.10655   0.46042   0.16666   0.00000  Uiso   1.00
O220   O     0.16667   0.53959   0.09613   0.00000  Uiso   1.00
O221   O     0.16667   0.46041   0.23720   0.00000  Uiso   1.00
O222   O     0.16667   0.53959   0.23720   0.00000  Uiso   1.00
O223   O     0.16667   0.46041   0.09613   0.00000  Uiso   1.00
O224   O     0.12023   0.38415   0.09851   0.00000  Uiso   1.00
C225   C     0.42094   0.50015   0.17025   0.00000  Uiso   1.00
C226   C     0.35444   0.54341   0.17123   0.00000  Uiso   1.00
C227   C     0.62396   0.50091   0.15998   0.00000  Uiso   1.00
C228   C     0.37604   0.50091   0.17335   0.00000  Uiso   1.00
C229   C     0.47599   0.35862   0.13329   0.00000  Uiso   1.00
C230   C     0.52228   0.64197   0.20163   0.00000  Uiso   1.00
C231   C     0.52401   0.35861   0.20005   0.00000  Uiso   1.00
C232   C     0.47772   0.64197   0.13170   0.00000  Uiso   1.00
C233   C     0.37164   0.41757   0.19535   0.00000  Uiso   1.00
C234   C     0.62568   0.58701   0.14965   0.00000  Uiso   1.00
C235   C     0.62836   0.41757   0.13799   0.00000  Uiso   1.00
C236   C     0.57906   0.50015   0.16308   0.00000  Uiso   1.00
C237   C     0.37432   0.58701   0.18368   0.00000  Uiso   1.00
C238   C     0.41190   0.37100   0.09564   0.00000  Uiso   1.00
C239   C     0.52513   0.62375   0.28276   0.00000  Uiso   1.00
C240   C     0.58810   0.37100   0.23770   0.00000  Uiso   1.00
C241   C     0.47487   0.62375   0.05058   0.00000  Uiso   1.00
C242   C     0.49990   0.49999   0.07360   0.00000  Uiso   1.00
C243   C     0.50010   0.49999   0.25973   0.00000  Uiso   1.00
C244   C     0.49997   0.49997   0.02185   0.00000  Uiso   1.00
C245   C     0.50003   0.49997   0.31148   0.00000  Uiso   1.00
C246   C     0.35405   0.45896   0.17326   0.00000  Uiso   1.00
C247   C     0.64556   0.54341   0.16210   0.00000  Uiso   1.00
C248   C     0.64596   0.45897   0.16007   0.00000  Uiso   1.00
Cu249  Cu    0.50000   0.54689   0.16667   0.00000  Uiso   1.00
Cu250  Cu    0.50000   0.45311   0.16667   0.00000  Uiso   1.00
H251   H     0.39299   0.40290   0.09286   0.00000  Uiso   1.00
H252   H     0.46190   0.59779   0.02434   0.00000  Uiso   1.00
H253   H     0.46883   0.65853   0.03454   0.00000  Uiso   1.00
H254   H     0.50853   0.61794   0.05393   0.00000  Uiso   1.00
H255   H     0.40171   0.35090   0.12765   0.00000  Uiso   1.00
H256   H     0.40541   0.35067   0.06173   0.00000  Uiso   1.00
H257   H     0.53810   0.59779   0.30899   0.00000  Uiso   1.00
H258   H     0.53117   0.65853   0.29880   0.00000  Uiso   1.00
H259   H     0.49147   0.61794   0.27940   0.00000  Uiso   1.00
H260   H     0.60701   0.40290   0.24047   0.00000  Uiso   1.00
H261   H     0.59829   0.35090   0.20568   0.00000  Uiso   1.00
H262   H     0.59460   0.35067   0.27160   0.00000  Uiso   1.00
N263   N     0.50000   0.61736   0.16667   0.00000  Uiso   1.00
N264   N     0.50000   0.38264   0.16667   0.00000  Uiso   1.00
N265   N     0.38571   0.38509   0.21426   0.00000  Uiso   1.00
N266   N     0.60960   0.62145   0.13900   0.00000  Uiso   1.00
N267   N     0.61429   0.38509   0.11908   0.00000  Uiso   1.00
N268   N     0.39040   0.62145   0.19433   0.00000  Uiso   1.00
O269   O     0.43988   0.53958   0.16666   0.00000  Uiso   1.00
O270   O     0.54420   0.61785   0.23753   0.00000  Uiso   1.00
O271   O     0.54644   0.38415   0.23482   0.00000  Uiso   1.00
O272   O     0.45580   0.61785   0.09580   0.00000  Uiso   1.00
O273   O     0.56012   0.46042   0.16667   0.00000  Uiso   1.00
O274   O     0.56012   0.53958   0.16667   0.00000  Uiso   1.00
O275   O     0.43988   0.46042   0.16666   0.00000  Uiso   1.00
O276   O     0.50000   0.53959   0.09613   0.00000  Uiso   1.00
O277   O     0.50000   0.46041   0.23720   0.00000  Uiso   1.00
O278   O     0.50000   0.53959   0.23720   0.00000  Uiso   1.00
O279   O     0.50000   0.46041   0.09613   0.00000  Uiso   1.00
O280   O     0.45356   0.38415   0.09851   0.00000  Uiso   1.00
C281   C     0.75427   0.50015   0.17025   0.00000  Uiso   1.00
C282   C     0.68777   0.54341   0.17123   0.00000  Uiso   1.00
C283   C     0.95729   0.50091   0.15998   0.00000  Uiso   1.00
C284   C     0.70937   0.50091   0.17335   0.00000  Uiso   1.00
C285   C     0.80933   0.35862   0.13329   0.00000  Uiso   1.00
C286   C     0.85561   0.64197   0.20163   0.00000  Uiso   1.00
C287   C     0.85734   0.35861   0.20005   0.00000  Uiso   1.00
C288   C     0.81106   0.64197   0.13170   0.00000  Uiso   1.00
C289   C     0.70497   0.41757   0.19535   0.00000  Uiso   1.00
C290   C     0.95901   0.58701   0.14965   0.00000  Uiso   1.00
C291   C     0.96169   0.41757   0.13799   0.00000  Uiso   1.00
C292   C     0.91240   0.50015   0.16308   0.00000  Uiso   1.00
C293   C     0.70766   0.58701   0.18368   0.00000  Uiso   1.00
C294   C     0.74524   0.37100   0.09564   0.00000  Uiso   1.00
C295   C     0.85846   0.62375   0.28276   0.00000  Uiso   1.00
C296   C     0.92143   0.37100   0.23770   0.00000  Uiso   1.00
C297   C     0.80821   0.62375   0.05058   0.00000  Uiso   1.00
C298   C     0.83324   0.49999   0.07360   0.00000  Uiso   1.00
C299   C     0.83343   0.49999   0.25973   0.00000  Uiso   1.00
C300   C     0.83330   0.49997   0.02185   0.00000  Uiso   1.00
C301   C     0.83336   0.49997   0.31148   0.00000  Uiso   1.00
C302   C     0.68738   0.45896   0.17326   0.00000  Uiso   1.00
C303   C     0.97890   0.54341   0.16210   0.00000  Uiso   1.00
C304   C     0.97929   0.45897   0.16007   0.00000  Uiso   1.00
Cu305  Cu    0.83333   0.54689   0.16667   0.00000  Uiso   1.00
Cu306  Cu    0.83333   0.45311   0.16667   0.00000  Uiso   1.00
H307   H     0.72632   0.40290   0.09286   0.00000  Uiso   1.00
H308   H     0.79524   0.59779   0.02434   0.00000  Uiso   1.00
H309   H     0.80216   0.65853   0.03454   0.00000  Uiso   1.00
H310   H     0.84186   0.61794   0.05393   0.00000  Uiso   1.00
H311   H     0.73504   0.35090   0.12765   0.00000  Uiso   1.00
H312   H     0.73874   0.35067   0.06173   0.00000  Uiso   1.00
H313   H     0.87143   0.59779   0.30899   0.00000  Uiso   1.00
H314   H     0.86451   0.65853   0.29880   0.00000  Uiso   1.00
H315   H     0.82480   0.61794   0.27940   0.00000  Uiso   1.00
H316   H     0.94035   0.40290   0.24047   0.00000  Uiso   1.00
H317   H     0.93162   0.35090   0.20568   0.00000  Uiso   1.00
H318   H     0.92793   0.35067   0.27160   0.00000  Uiso   1.00
N319   N     0.83333   0.61736   0.16667   0.00000  Uiso   1.00
N320   N     0.83333   0.38264   0.16667   0.00000  Uiso   1.00
N321   N     0.71905   0.38509   0.21426   0.00000  Uiso   1.00
N322   N     0.94294   0.62145   0.13900   0.00000  Uiso   1.00
N323   N     0.94762   0.38509   0.11908   0.00000  Uiso   1.00
N324   N     0.72373   0.62145   0.19433   0.00000  Uiso   1.00
O325   O     0.77321   0.53958   0.16666   0.00000  Uiso   1.00
O326   O     0.87754   0.61785   0.23753   0.00000  Uiso   1.00
O327   O     0.87977   0.38415   0.23482   0.00000  Uiso   1.00
O328   O     0.78913   0.61785   0.09580   0.00000  Uiso   1.00
O329   O     0.89345   0.46042   0.16667   0.00000  Uiso   1.00
O330   O     0.89345   0.53958   0.16667   0.00000  Uiso   1.00
O331   O     0.77321   0.46042   0.16666   0.00000  Uiso   1.00
O332   O     0.83333   0.53959   0.09613   0.00000  Uiso   1.00
O333   O     0.83333   0.46041   0.23720   0.00000  Uiso   1.00
O334   O     0.83333   0.53959   0.23720   0.00000  Uiso   1.00
O335   O     0.83333   0.46041   0.09613   0.00000  Uiso   1.00
O336   O     0.78689   0.38415   0.09851   0.00000  Uiso   1.00
C337   C     0.08760   0.83348   0.17025   0.00000  Uiso   1.00
C338   C     0.02110   0.87674   0.17123   0.00000  Uiso   1.00
C339   C     0.29063   0.83424   0.15998   0.00000  Uiso   1.00
C340   C     0.04271   0.83424   0.17335   0.00000  Uiso   1.00
C341   C     0.14266   0.69195   0.13329   0.00000  Uiso   1.00
C342   C     0.18895   0.97530   0.20163   0.00000  Uiso   1.00
C343   C     0.19067   0.69195   0.20005   0.00000  Uiso   1.00
C344   C     0.14439   0.97530   0.13170   0.00000  Uiso   1.00
C345   C     0.03831   0.75090   0.19535   0.00000  Uiso   1.00
C346   C     0.29234   0.92034   0.14965   0.00000  Uiso   1.00
C347   C     0.29503   0.75090   0.13799   0.00000  Uiso   1.00
C348   C     0.24573   0.83348   0.16308   0.00000  Uiso   1.00
C349   C     0.04099   0.92034   0.18368   0.00000  Uiso   1.00
C350   C     0.07857   0.70433   0.09564   0.00000  Uiso   1.00
C351   C     0.19179   0.95708   0.28276   0.00000  Uiso   1.00
C352   C     0.25476   0.70433   0.23770   0.00000  Uiso   1.00
C353   C     0.14154   0.95708   0.05058   0.00000  Uiso   1.00
C354   C     0.16657   0.83333   0.07360   0.00000  Uiso   1.00
C355   C     0.16676   0.83333   0.25973   0.00000  Uiso   1.00
C356   C     0.16664   0.83330   0.02185   0.00000  Uiso   1.00
C357   C     0.16670   0.83330   0.31148   0.00000  Uiso   1.00
C358   C     0.02071   0.79230   0.17326   0.00000  Uiso   1.00
C359   C     0.31223   0.87674   0.16210   0.00000  Uiso   1.00
C360   C     0.31262   0.79230   0.16007   0.00000  Uiso   1.00
Cu361  Cu    0.16667   0.88022   0.16667   0.00000  Uiso   1.00
Cu362  Cu    0.16667   0.78645   0.16667   0.00000  Uiso   1.00
H363   H     0.05965   0.73623   0.09286   0.00000  Uiso   1.00
H364   H     0.12857   0.93112   0.02434   0.00000  Uiso   1.00
H365   H     0.13549   0.99187   0.03454   0.00000  Uiso   1.00
H366   H     0.17520   0.95128   0.05393   0.00000  Uiso   1.00
H367   H     0.06838   0.68424   0.12765   0.00000  Uiso   1.00
H368   H     0.07207   0.68401   0.06173   0.00000  Uiso   1.00
H369   H     0.20476   0.93112   0.30899   0.00000  Uiso   1.00
H370   H     0.19784   0.99187   0.29880   0.00000  Uiso   1.00
H371   H     0.15814   0.95128   0.27940   0.00000  Uiso   1.00
H372   H     0.27368   0.73623   0.24047   0.00000  Uiso   1.00
H373   H     0.26496   0.68424   0.20568   0.00000  Uiso   1.00
H374   H     0.26126   0.68401   0.27160   0.00000  Uiso   1.00
N375   N     0.16667   0.95069   0.16667   0.00000  Uiso   1.00
N376   N     0.16667   0.71598   0.16667   0.00000  Uiso   1.00
N377   N     0.05238   0.71842   0.21426   0.00000  Uiso   1.00
N378   N     0.27627   0.95478   0.13900   0.00000  Uiso   1.00
N379   N     0.28095   0.71842   0.11908   0.00000  Uiso   1.00
N380   N     0.05706   0.95478   0.19433   0.00000  Uiso   1.00
O381   O     0.10655   0.87291   0.16666   0.00000  Uiso   1.00
O382   O     0.21087   0.95118   0.23753   0.00000  Uiso   1.00
O383   O     0.21311   0.71748   0.23482   0.00000  Uiso   1.00
O384   O     0.12246   0.95118   0.09580   0.00000  Uiso   1.00
O385   O     0.22679   0.79375   0.16667   0.00000  Uiso   1.00
O386   O     0.22679   0.87291   0.16667   0.00000  Uiso   1.00
O387   O     0.10655   0.79375   0.16666   0.00000  Uiso   1.00
O388   O     0.16667   0.87292   0.09613   0.00000  Uiso   1.00
O389   O     0.16667   0.79375   0.23720   0.00000  Uiso   1.00
O390   O     0.16667   0.87292   0.23720   0.00000  Uiso   1.00
O391   O     0.16667   0.79375   0.09613   0.00000  Uiso   1.00
O392   O     0.12023   0.71748   0.09851   0.00000  Uiso   1.00
C393   C     0.42094   0.83348   0.17025   0.00000  Uiso   1.00
C394   C     0.35444   0.87674   0.17123   0.00000  Uiso   1.00
C395   C     0.62396   0.83424   0.15998   0.00000  Uiso   1.00
C396   C     0.37604   0.83424   0.17335   0.00000  Uiso   1.00
C397   C     0.47599   0.69195   0.13329   0.00000  Uiso   1.00
C398   C     0.52228   0.97530   0.20163   0.00000  Uiso   1.00
C399   C     0.52401   0.69195   0.20005   0.00000  Uiso   1.00
C400   C     0.47772   0.97530   0.13170   0.00000  Uiso   1.00
C401   C     0.37164   0.75090   0.19535   0.00000  Uiso   1.00
C402   C     0.62568   0.92034   0.14965   0.00000  Uiso   1.00
C403   C     0.62836   0.75090   0.13799   0.00000  Uiso   1.00
C404   C     0.57906   0.83348   0.16308   0.00000  Uiso   1.00
C405   C     0.37432   0.92034   0.18368   0.00000  Uiso   1.00
C406   C     0.41190   0.70433   0.09564   0.00000  Uiso   1.00
C407   C     0.52513   0.95708   0.28276   0.00000  Uiso   1.00
C408   C     0.58810   0.70433   0.23770   0.00000  Uiso   1.00
C409   C     0.47487   0.95708   0.05058   0.00000  Uiso   1.00
C410   C     0.49990   0.83333   0.07360   0.00000  Uiso   1.00
C411   C     0.50010   0.83333   0.25973   0.00000  Uiso   1.00
C412   C     0.49997   0.83330   0.02185   0.00000  Uiso   1.00
C413   C     0.50003   0.83330   0.31148   0.00000  Uiso   1.00
C414   C     0.35405   0.79230   0.17326   0.00000  Uiso   1.00
C415   C     0.64556   0.87674   0.16210   0.00000  Uiso   1.00
C416   C     0.64596   0.79230   0.16007   0.00000  Uiso   1.00
Cu417  Cu    0.50000   0.88022   0.16667   0.00000  Uiso   1.00
Cu418  Cu    0.50000   0.78645   0.16667   0.00000  Uiso   1.00
H419   H     0.39299   0.73623   0.09286   0.00000  Uiso   1.00
H420   H     0.46190   0.93112   0.02434   0.00000  Uiso   1.00
H421   H     0.46883   0.99187   0.03454   0.00000  Uiso   1.00
H422   H     0.50853   0.95128   0.05393   0.00000  Uiso   1.00
H423   H     0.40171   0.68424   0.12765   0.00000  Uiso   1.00
H424   H     0.40541   0.68401   0.06173   0.00000  Uiso   1.00
H425   H     0.53810   0.93112   0.30899   0.00000  Uiso   1.00
H426   H     0.53117   0.99187   0.29880   0.00000  Uiso   1.00
H427   H     0.49147   0.95128   0.27940   0.00000  Uiso   1.00
H428   H     0.60701   0.73623   0.24047   0.00000  Uiso   1.00
H429   H     0.59829   0.68424   0.20568   0.00000  Uiso   1.00
H430   H     0.59460   0.68401   0.27160   0.00000  Uiso   1.00
N431   N     0.50000   0.95069   0.16667   0.00000  Uiso   1.00
N432   N     0.50000   0.71598   0.16667   0.00000  Uiso   1.00
N433   N     0.38571   0.71842   0.21426   0.00000  Uiso   1.00
N434   N     0.60960   0.95478   0.13900   0.00000  Uiso   1.00
N435   N     0.61429   0.71842   0.11908   0.00000  Uiso   1.00
N436   N     0.39040   0.95478   0.19433   0.00000  Uiso   1.00
O437   O     0.43988   0.87291   0.16666   0.00000  Uiso   1.00
O438   O     0.54420   0.95118   0.23753   0.00000  Uiso   1.00
O439   O     0.54644   0.71748   0.23482   0.00000  Uiso   1.00
O440   O     0.45580   0.95118   0.09580   0.00000  Uiso   1.00
O441   O     0.56012   0.79375   0.16667   0.00000  Uiso   1.00
O442   O     0.56012   0.87291   0.16667   0.00000  Uiso   1.00
O443   O     0.43988   0.79375   0.16666   0.00000  Uiso   1.00
O444   O     0.50000   0.87292   0.09613   0.00000  Uiso   1.00
O445   O     0.50000   0.79375   0.23720   0.00000  Uiso   1.00
O446   O     0.50000   0.87292   0.23720   0.00000  Uiso   1.00
O447   O     0.50000   0.79375   0.09613   0.00000  Uiso   1.00
O448   O     0.45356   0.71748   0.09851   0.00000  Uiso   1.00
C449   C     0.75427   0.83348   0.17025   0.00000  Uiso   1.00
C450   C     0.68777   0.87674   0.17123   0.00000  Uiso   1.00
C451   C     0.95729   0.83424   0.15998   0.00000  Uiso   1.00
C452   C     0.70937   0.83424   0.17335   0.00000  Uiso   1.00
C453   C     0.80933   0.69195   0.13329   0.00000  Uiso   1.00
C454   C     0.85561   0.97530   0.20163   0.00000  Uiso   1.00
C455   C     0.85734   0.69195   0.20005   0.00000  Uiso   1.00
C456   C     0.81106   0.97530   0.13170   0.00000  Uiso   1.00
C457   C     0.70497   0.75090   0.19535   0.00000  Uiso   1.00
C458   C     0.95901   0.92034   0.14965   0.00000  Uiso   1.00
C459   C     0.96169   0.75090   0.13799   0.00000  Uiso   1.00
C460   C     0.91240   0.83348   0.16308   0.00000  Uiso   1.00
C461   C     0.70766   0.92034   0.18368   0.00000  Uiso   1.00
C462   C     0.74524   0.70433   0.09564   0.00000  Uiso   1.00
C463   C     0.85846   0.95708   0.28276   0.00000  Uiso   1.00
C464   C     0.92143   0.70433   0.23770   0.00000  Uiso   1.00
C465   C     0.80821   0.95708   0.05058   0.00000  Uiso   1.00
C466   C     0.83324   0.83333   0.07360   0.00000  Uiso   1.00
C467   C     0.83343   0.83333   0.25973   0.00000  Uiso   1.00
C468   C     0.83330   0.83330   0.02185   0.00000  Uiso   1.00
C469   C     0.83336   0.83330   0.31148   0.00000  Uiso   1.00
C470   C     0.68738   0.79230   0.17326   0.00000  Uiso   1.00
C471   C     0.97890   0.87674   0.16210   0.00000  Uiso   1.00
C472   C     0.97929   0.79230   0.16007   0.00000  Uiso   1.00
Cu473  Cu    0.83333   0.88022   0.16667   0.00000  Uiso   1.00
Cu474  Cu    0.83333   0.78645   0.16667   0.00000  Uiso   1.00
H475   H     0.72632   0.73623   0.09286   0.00000  Uiso   1.00
H476   H     0.79524   0.93112   0.02434   0.00000  Uiso   1.00
H477   H     0.80216   0.99187   0.03454   0.00000  Uiso   1.00
H478   H     0.84186   0.95128   0.05393   0.00000  Uiso   1.00
H479   H     0.73504   0.68424   0.12765   0.00000  Uiso   1.00
H480   H     0.73874   0.68401   0.06173   0.00000  Uiso   1.00
H481   H     0.87143   0.93112   0.30899   0.00000  Uiso   1.00
H482   H     0.86451   0.99187   0.29880   0.00000  Uiso   1.00
H483   H     0.82480   0.95128   0.27940   0.00000  Uiso   1.00
H484   H     0.94035   0.73623   0.24047   0.00000  Uiso   1.00
H485   H     0.93162   0.68424   0.20568   0.00000  Uiso   1.00
H486   H     0.92793   0.68401   0.27160   0.00000  Uiso   1.00
N487   N     0.83333   0.95069   0.16667   0.00000  Uiso   1.00
N488   N     0.83333   0.71598   0.16667   0.00000  Uiso   1.00
N489   N     0.71905   0.71842   0.21426   0.00000  Uiso   1.00
N490   N     0.94294   0.95478   0.13900   0.00000  Uiso   1.00
N491   N     0.94762   0.71842   0.11908   0.00000  Uiso   1.00
N492   N     0.72373   0.95478   0.19433   0.00000  Uiso   1.00
O493   O     0.77321   0.87291   0.16666   0.00000  Uiso   1.00
O494   O     0.87754   0.95118   0.23753   0.00000  Uiso   1.00
O495   O     0.87977   0.71748   0.23482   0.00000  Uiso   1.00
O496   O     0.78913   0.95118   0.09580   0.00000  Uiso   1.00
O497   O     0.89345   0.79375   0.16667   0.00000  Uiso   1.00
O498   O     0.89345   0.87291   0.16667   0.00000  Uiso   1.00
O499   O     0.77321   0.79375   0.16666   0.00000  Uiso   1.00
O500   O     0.83333   0.87292   0.09613   0.00000  Uiso   1.00
O501   O     0.83333   0.79375   0.23720   0.00000  Uiso   1.00
O502   O     0.83333   0.87292   0.23720   0.00000  Uiso   1.00
O503   O     0.83333   0.79375   0.09613   0.00000  Uiso   1.00
O504   O     0.78689   0.71748   0.09851   0.00000  Uiso   1.00
C505   C     0.08760   0.16682   0.50358   0.00000  Uiso   1.00
C506   C     0.02110   0.21008   0.50456   0.00000  Uiso   1.00
C507   C     0.29063   0.16757   0.49332   0.00000  Uiso   1.00
C508   C     0.04271   0.16757   0.50668   0.00000  Uiso   1.00
C509   C     0.14266   0.02528   0.46662   0.00000  Uiso   1.00
C510   C     0.18895   0.30863   0.53496   0.00000  Uiso   1.00
C511   C     0.19067   0.02528   0.53338   0.00000  Uiso   1.00
C512   C     0.14439   0.30863   0.46504   0.00000  Uiso   1.00
C513   C     0.03831   0.08423   0.52868   0.00000  Uiso   1.00
C514   C     0.29234   0.25367   0.48299   0.00000  Uiso   1.00
C515   C     0.29503   0.08423   0.47132   0.00000  Uiso   1.00
C516   C     0.24573   0.16682   0.49642   0.00000  Uiso   1.00
C517   C     0.04099   0.25367   0.51701   0.00000  Uiso   1.00
C518   C     0.07857   0.03767   0.42897   0.00000  Uiso   1.00
C519   C     0.19179   0.29041   0.61609   0.00000  Uiso   1.00
C520   C     0.25476   0.03767   0.57103   0.00000  Uiso   1.00
C521   C     0.14154   0.29041   0.38391   0.00000  Uiso   1.00
C522   C     0.16657   0.16666   0.40694   0.00000  Uiso   1.00
C523   C     0.16676   0.16666   0.59306   0.00000  Uiso   1.00
C524   C     0.16664   0.16663   0.35518   0.00000  Uiso   1.00
C525   C     0.16670   0.16663   0.64482   0.00000  Uiso   1.00
C526   C     0.02071   0.12563   0.50660   0.00000  Uiso   1.00
C527   C     0.31223   0.21008   0.49544   0.00000  Uiso   1.00
C528   C     0.31262   0.12563   0.49340   0.00000  Uiso   1.00
Cu529  Cu    0.16667   0.21355   0.50000   0.00000  Uiso   1.00
Cu530  Cu    0.16667   0.11978   0.50000   0.00000  Uiso   1.00
H531   H     0.05965   0.06956   0.42620   0.00000  Uiso   1.00
H532   H     0.12857   0.26445   0.35767   0.00000  Uiso   1.00
H533   H     0.13549   0.32520   0.36787   0.00000  Uiso   1.00
H534   H     0.17520   0.28461   0.38726   0.00000  Uiso   1.00
H535   H     0.06838   0.01757   0.46099   0.00000  Uiso   1.00
H536   H     0.07207   0.01734   0.39507   0.00000  Uiso   1.00
H537   H     0.20476   0.26445   0.64233   0.00000  Uiso   1.00
H538   H     0.19784   0.32520   0.63213   0.00000  Uiso   1.00
H539   H     0.15814   0.28461   0.61274   0.00000  Uiso   1.00
H540   H     0.27368   0.06956   0.57380   0.00000  Uiso   1.00
H541   H     0.26496   0.01757   0.53901   0.00000  Uiso   1.00
H542   H     0.26126   0.01734   0.60493   0.00000  Uiso   1.00
N543   N     0.16667   0.28402   0.50000   0.00000  Uiso   1.00
N544   N     0.16667   0.04931   0.50000   0.00000  Uiso   1.00
N545   N     0.05238   0.05176   0.54759   0.00000  Uiso   1.00
N546   N     0.27627   0.28812   0.47233   0.00000  Uiso   1.00
N547   N     0.28095   0.05176   0.45241   0.00000  Uiso   1.00
N548   N     0.05706   0.28812   0.52766   0.00000  Uiso   1.00
O549   O     0.10655   0.20625   0.50000   0.00000  Uiso   1.00
O550   O     0.21087   0.28452   0.57087   0.00000  Uiso   1.00
O551   O     0.21311   0.05082   0.56816   0.00000  Uiso   1.00
O552   O     0.12246   0.28452   0.42913   0.00000  Uiso   1.00
O553   O     0.22679   0.12709   0.50000   0.00000  Uiso   1.00
O554   O     0.22679   0.20625   0.50000   0.00000  Uiso   1.00
O555   O     0.10655   0.12709   0.50000   0.00000  Uiso   1.00
O556   O     0.16667   0.20625   0.42946   0.00000  Uiso   1.00
O557   O     0.16667   0.12708   0.57054   0.00000  Uiso   1.00
O558   O     0.16667   0.20625   0.57054   0.00000  Uiso   1.00
O559   O     0.16667   0.12708   0.42946   0.00000  Uiso   1.00
O560   O     0.12023   0.05082   0.43184   0.00000  Uiso   1.00
C561   C     0.42094   0.16682   0.50358   0.00000  Uiso   1.00
C562   C     0.35444   0.21008   0.50456   0.00000  Uiso   1.00
C563   C     0.62396   0.16757   0.49332   0.00000  Uiso   1.00
C564   C     0.37604   0.16757   0.50668   0.00000  Uiso   1.00
C565   C     0.47599   0.02528   0.46662   0.00000  Uiso   1.00
C566   C     0.52228   0.30863   0.53496   0.00000  Uiso   1.00
C567   C     0.52401   0.02528   0.53338   0.00000  Uiso   1.00
C568   C     0.47772   0.30863   0.46504   0.00000  Uiso   1.00
C569   C     0.37164   0.08423   0.52868   0.00000  Uiso   1.00
C570   C     0.62568   0.25367   0.48299   0.00000  Uiso   1.00
C571   C     0.62836   0.08423   0.47132   0.00000  Uiso   1.00
C572   C     0.57906   0.16682   0.49642   0.00000  Uiso   1.00
C573   C     0.37432   0.25367   0.51701   0.00000  Uiso   1.00
C574   C     0.41190   0.03767   0.42897   0.00000  Uiso   1.00
C575   C     0.52513   0.29041   0.61609   0.00000  Uiso   1.00
C576   C     0.58810   0.03767   0.57103   0.00000  Uiso   1.00
C577   C     0.47487   0.29041   0.38391   0.00000  Uiso   1.00
C578   C     0.49990   0.16666   0.40694   0.00000  Uiso   1.00
C579   C     0.50010   0.16666   0.59306   0.00000  Uiso   1.00
C580   C     0.49997   0.16663   0.35518   0.00000  Uiso   1.00
C581   C     0.50003   0.16663   0.64482   0.00000  Uiso   1.00
C582   C     0.35405   0.12563   0.50660   0.00000  Uiso   1.00
C583   C     0.64556   0.21008   0.49544   0.00000  Uiso   1.00
C584   C     0.64596   0.12563   0.49340   0.00000  Uiso   1.00
Cu585  Cu    0.50000   0.21355   0.50000   0.00000  Uiso   1.00
Cu586  Cu    0.50000   0.11978   0.50000   0.00000  Uiso   1.00
H587   H     0.39299   0.06956   0.42620   0.00000  Uiso   1.00
H588   H     0.46190   0.26445   0.35767   0.00000  Uiso   1.00
H589   H     0.46883   0.32520   0.36787   0.00000  Uiso   1.00
H590   H     0.50853   0.28461   0.38726   0.00000  Uiso   1.00
H591   H     0.40171   0.01757   0.46099   0.00000  Uiso   1.00
H592   H     0.40541   0.01734   0.39507   0.00000  Uiso   1.00
H593   H     0.53810   0.26445   0.64233   0.00000  Uiso   1.00
H594   H     0.53117   0.32520   0.63213   0.00000  Uiso   1.00
H595   H     0.49147   0.28461   0.61274   0.00000  Uiso   1.00
H596   H     0.60701   0.06956   0.57380   0.00000  Uiso   1.00
H597   H     0.59829   0.01757   0.53901   0.00000  Uiso   1.00
H598   H     0.59460   0.01734   0.60493   0.00000  Uiso   1.00
N599   N     0.50000   0.28402   0.50000   0.00000  Uiso   1.00
N600   N     0.50000   0.04931   0.50000   0.00000  Uiso   1.00
N601   N     0.38571   0.05176   0.54759   0.00000  Uiso   1.00
N602   N     0.60960   0.28812   0.47233   0.00000  Uiso   1.00
N603   N     0.61429   0.05176   0.45241   0.00000  Uiso   1.00
N604   N     0.39040   0.28812   0.52766   0.00000  Uiso   1.00
O605   O     0.43988   0.20625   0.50000   0.00000  Uiso   1.00
O606   O     0.54420   0.28452   0.57087   0.00000  Uiso   1.00
O607   O     0.54644   0.05082   0.56816   0.00000  Uiso   1.00
O608   O     0.45580   0.28452   0.42913   0.00000  Uiso   1.00
O609   O     0.56012   0.12709   0.50000   0.00000  Uiso   1.00
O610   O     0.56012   0.20625   0.50000   0.00000  Uiso   1.00
O611   O     0.43988   0.12709   0.50000   0.00000  Uiso   1.00
O612   O     0.50000   0.20625   0.42946   0.00000  Uiso   1.00
O613   O     0.50000   0.12708   0.57054   0.00000  Uiso   1.00
O614   O     0.50000   0.20625   0.57054   0.00000  Uiso   1.00
O615   O     0.50000   0.12708   0.42946   0.00000  Uiso   1.00
O616   O     0.45356   0.05082   0.43184   0.00000  Uiso   1.00
C617   C     0.75427   0.16682   0.50358   0.00000  Uiso   1.00
C618   C     0.68777   0.21008   0.50456   0.00000  Uiso   1.00
C619   C     0.95729   0.16757   0.49332   0.00000  Uiso   1.00
C620   C     0.70937   0.16757   0.50668   0.00000  Uiso   1.00
C621   C     0.80933   0.02528   0.46662   0.00000  Uiso   1.00
C622   C     0.85561   0.30863   0.53496   0.00000  Uiso   1.00
C623   C     0.85734   0.02528   0.53338   0.00000  Uiso   1.00
C624   C     0.81106   0.30863   0.46504   0.00000  Uiso   1.00
C625   C     0.70497   0.08423   0.52868   0.00000  Uiso   1.00
C626   C     0.95901   0.25367   0.48299   0.00000  Uiso   1.00
C627   C     0.96169   0.08423   0.47132   0.00000  Uiso   1.00
C628   C     0.91240   0.16682   0.49642   0.00000  Uiso   1.00
C629   C     0.70766   0.25367   0.51701   0.00000  Uiso   1.00
C630   C     0.74524   0.03767   0.42897   0.00000  Uiso   1.00
C631   C     0.85846   0.29041   0.61609   0.00000  Uiso   1.00
C632   C     0.92143   0.03767   0.57103   0.00000  Uiso   1.00
C633   C     0.80821   0.29041   0.38391   0.00000  Uiso   1.00
C634   C     0.83324   0.16666   0.40694   0.00000  Uiso   1.00
C635   C     0.83343   0.16666   0.59306   0.00000  Uiso   1.00
C636   C     0.83330   0.16663   0.35518   0.00000  Uiso   1.00
C637   C     0.83336   0.16663   0.64482   0.00000  Uiso   1.00
C638   C     0.68738   0.12563   0.50660   0.00000  Uiso   1.00
C639   C     0.97890   0.21008   0.49544   0.00000  Uiso   1.00
C640   C     0.97929   0.12563   0.49340   0.00000  Uiso   1.00
Cu641  Cu    0.83333   0.21355   0.50000   0.00000  Uiso   1.00
Cu642  Cu    0.83333   0.11978   0.50000   0.00000  Uiso   1.00
H643   H     0.72632   0.06956   0.42620   0.00000  Uiso   1.00
H644   H     0.79524   0.26445   0.35767   0.00000  Uiso   1.00
H645   H     0.80216   0.32520   0.36787   0.00000  Uiso   1.00
H646   H     0.84186   0.28461   0.38726   0.00000  Uiso   1.00
H647   H     0.73504   0.01757   0.46099   0.00000  Uiso   1.00
H648   H     0.73874   0.01734   0.39507   0.00000  Uiso   1.00
H649   H     0.87143   0.26445   0.64233   0.00000  Uiso   1.00
H650   H     0.86451   0.32520   0.63213   0.00000  Uiso   1.00
H651   H     0.82480   0.28461   0.61274   0.00000  Uiso   1.00
H652   H     0.94035   0.06956   0.57380   0.00000  Uiso   1.00
H653   H     0.93162   0.01757   0.53901   0.00000  Uiso   1.00
H654   H     0.92793   0.01734   0.60493   0.00000  Uiso   1.00
N655   N     0.83333   0.28402   0.50000   0.00000  Uiso   1.00
N656   N     0.83333   0.04931   0.50000   0.00000  Uiso   1.00
N657   N     0.71905   0.05176   0.54759   0.00000  Uiso   1.00
N658   N     0.94294   0.28812   0.47233   0.00000  Uiso   1.00
N659   N     0.94762   0.05176   0.45241   0.00000  Uiso   1.00
N660   N     0.72373   0.28812   0.52766   0.00000  Uiso   1.00
O661   O     0.77321   0.20625   0.50000   0.00000  Uiso   1.00
O662   O     0.87754   0.28452   0.57087   0.00000  Uiso   1.00
O663   O     0.87977   0.05082   0.56816   0.00000  Uiso   1.00
O664   O     0.78913   0.28452   0.42913   0.00000  Uiso   1.00
O665   O     0.89345   0.12709   0.50000   0.00000  Uiso   1.00
O666   O     0.89345   0.20625   0.50000   0.00000  Uiso   1.00
O667   O     0.77321   0.12709   0.50000   0.00000  Uiso   1.00
O668   O     0.83333   0.20625   0.42946   0.00000  Uiso   1.00
O669   O     0.83333   0.12708   0.57054   0.00000  Uiso   1.00
O670   O     0.83333   0.20625   0.57054   0.00000  Uiso   1.00
O671   O     0.83333   0.12708   0.42946   0.00000  Uiso   1.00
O672   O     0.78689   0.05082   0.43184   0.00000  Uiso   1.00
C673   C     0.08760   0.50015   0.50358   0.00000  Uiso   1.00
C674   C     0.02110   0.54341   0.50456   0.00000  Uiso   1.00
C675   C     0.29063   0.50091   0.49332   0.00000  Uiso   1.00
C676   C     0.04271   0.50091   0.50668   0.00000  Uiso   1.00
C677   C     0.14266   0.35862   0.46662   0.00000  Uiso   1.00
C678   C     0.18895   0.64197   0.53496   0.00000  Uiso   1.00
C679   C     0.19067   0.35861   0.53338   0.00000  Uiso   1.00
C680   C     0.14439   0.64197   0.46504   0.00000  Uiso   1.00
C681   C     0.03831   0.41757   0.52868   0.00000  Uiso   1.00
C682   C     0.29234   0.58701   0.48299   0.00000  Uiso   1.00
C683   C     0.29503   0.41757   0.47132   0.00000  Uiso   1.00
C684   C     0.24573   0.50015   0.49642   0.00000  Uiso   1.00
C685   C     0.04099   0.58701   0.51701   0.00000  Uiso   1.00
C686   C     0.07857   0.37100   0.42897   0.00000  Uiso   1.00
C687   C     0.19179   0.62375   0.61609   0.00000  Uiso   1.00
C688   C     0.25476   0.37100   0.57103   0.00000  Uiso   1.00
C689   C     0.14154   0.62375   0.38391   0.00000  Uiso   1.00
C690   C     0.16657   0.49999   0.40694   0.00000  Uiso   1.00
C691   C     0.16676   0.49999   0.59306   0.00000  Uiso   1.00
C692   C     0.16664   0.49997   0.35518   0.00000  Uiso   1.00
C693   C     0.16670   0.49997   0.64482   0.00000  Uiso   1.00
C694   C     0.02071   0.45896   0.50660   0.00000  Uiso   1.00
C695   C     0.31223   0.54341   0.49544   0.00000  Uiso   1.00
C696   C     0.31262   0.45897   0.49340   0.00000  Uiso   1.00
Cu697  Cu    0.16667   0.54689   0.50000   0.00000  Uiso   1.00
Cu698  Cu    0.16667   0.45311   0.50000   0.00000  Uiso   1.00
H699   H     0.05965   0.40290   0.42620   0.00000  Uiso   1.00
H700   H     0.12857   0.59779   0.35767   0.00000  Uiso   1.00
H701   H     0.13549   0.65853   0.36787   0.00000  Uiso   1.00
H702   H     0.17520   0.61794   0.38726   0.00000  Uiso   1.00
H703   H     0.06838   0.35090   0.46099   0.00000  Uiso   1.00
H704   H     0.07207   0.35067   0.39507   0.00000  Uiso   1.00
H705   H     0.20476   0.59779   0.64233   0.00000  Uiso   1.00
H706   H     0.19784   0.65853   0.63213   0.00000  Uiso   1.00
H707   H     0.15814   0.61794   0.61274   0.00000  Uiso   1.00
H708   H     0.27368   0.40290   0.57380   0.00000  Uiso   1.00
H709   H     0.26496   0.35090   0.53901   0.00000  Uiso   1.00
H710   H     0.26126   0.35067   0.60493   0.00000  Uiso   1.00
N711   N     0.16667   0.61736   0.50000   0.00000  Uiso   1.00
N712   N     0.16667   0.38264   0.50000   0.00000  Uiso   1.00
N713   N     0.05238   0.38509   0.54759   0.00000  Uiso   1.00
N714   N     0.27627   0.62145   0.47233   0.00000  Uiso   1.00
N715   N     0.28095   0.38509   0.45241   0.00000  Uiso   1.00
N716   N     0.05706   0.62145   0.52766   0.00000  Uiso   1.00
O717   O     0.10655   0.53958   0.50000   0.00000  Uiso   1.00
O718   O     0.21087   0.61785   0.57087   0.00000  Uiso   1.00
O719   O     0.21311   0.38415   0.56816   0.00000  Uiso   1.00
O720   O     0.12246   0.61785   0.42913   0.00000  Uiso   1.00
O721   O     0.22679   0.46042   0.50000   0.00000  Uiso   1.00
O722   O     0.22679   0.53958   0.50000   0.00000  Uiso   1.00
O723   O     0.10655   0.46042   0.50000   0.00000  Uiso   1.00
O724   O     0.16667   0.53959   0.42946   0.00000  Uiso   1.00
O725   O     0.16667   0.46041   0.57054   0.00000  Uiso   1.00
O726   O     0.16667   0.53959   0.57054   0.00000  Uiso   1.00
O727   O     0.16667   0.46041   0.42946   0.00000  Uiso   1.00
O728   O     0.12023   0.38415   0.43184   0.00000  Uiso   1.00
C729   C     0.42094   0.50015   0.50358   0.00000  Uiso   1.00
C730   C     0.35444   0.54341   0.50456   0.00000  Uiso   1.00
C731   C     0.62396   0.50091   0.49332   0.00000  Uiso   1.00
C732   C     0.37604   0.50091   0.50668   0.00000  Uiso   1.00
C733   C     0.47599   0.35862   0.46662   0.00000  Uiso   1.00
C734   C     0.52228   0.64197   0.53496   0.00000  Uiso   1.00
C735   C     0.52401   0.35861   0.53338   0.00000  Uiso   1.00
C736   C     0.47772   0.64197   0.46504   0.00000  Uiso   1.00
C737   C     0.37164   0.41757   0.52868   0.00000  Uiso   1.00
C738   C     0.62568   0.58701   0.48299   0.00000  Uiso   1.00
C739   C     0.62836   0.41757   0.47132   0.00000  Uiso   1.00
C740   C     0.57906   0.50015   0.49642   0.00000  Uiso   1.00
C741   C     0.37432   0.58701   0.51701   0.00000  Uiso   1.00
C742   C     0.41190   0.37100   0.42897   0.00000  Uiso   1.00
C743   C     0.52513   0.62375   0.61609   0.00000  Uiso   1.00
C744   C     0.58810   0.37100   0.57103   0.00000  Uiso   1.00
C745   C     0.47487   0.62375   0.38391   0.00000  Uiso   1.00
C746   C     0.49990   0.49999   0.40694   0.00000  Uiso   1.00
C747   C     0.50010   0.49999   0.59306   0.00000  Uiso   1.00
C748   C     0.49997   0.49997   0.35518   0.00000  Uiso   1.00
C749   C     0.50003   0.49997   0.64482   0.00000  Uiso   1.00
C750   C     0.35405   0.45896   0.50660   0.00000  Uiso   1.00
C751   C     0.64556   0.54341   0.49544   0.00000  Uiso   1.00
C752   C     0.64596   0.45897   0.49340   0.00000  Uiso   1.00
Cu753  Cu    0.50000   0.54689   0.50000   0.00000  Uiso   1.00
Cu754  Cu    0.50000   0.45311   0.50000   0.00000  Uiso   1.00
H755   H     0.39299   0.40290   0.42620   0.00000  Uiso   1.00
H756   H     0.46190   0.59779   0.35767   0.00000  Uiso   1.00
H757   H     0.46883   0.65853   0.36787   0.00000  Uiso   1.00
H758   H     0.50853   0.61794   0.38726   0.00000  Uiso   1.00
H759   H     0.40171   0.35090   0.46099   0.00000  Uiso   1.00
H760   H     0.40541   0.35067   0.39507   0.00000  Uiso   1.00
H761   H     0.53810   0.59779   0.64233   0.00000  Uiso   1.00
H762   H     0.53117   0.65853   0.63213   0.00000  Uiso   1.00
H763   H     0.49147   0.61794   0.61274   0.00000  Uiso   1.00
H764   H     0.60701   0.40290   0.57380   0.00000  Uiso   1.00
H765   H     0.59829   0.35090   0.53901   0.00000  Uiso   1.00
H766   H     0.59460   0.35067   0.60493   0.00000  Uiso   1.00
N767   N     0.50000   0.61736   0.50000   0.00000  Uiso   1.00
N768   N     0.50000   0.38264   0.50000   0.00000  Uiso   1.00
N769   N     0.38571   0.38509   0.54759   0.00000  Uiso   1.00
N770   N     0.60960   0.62145   0.47233   0.00000  Uiso   1.00
N771   N     0.61429   0.38509   0.45241   0.00000  Uiso   1.00
N772   N     0.39040   0.62145   0.52766   0.00000  Uiso   1.00
O773   O     0.43988   0.53958   0.50000   0.00000  Uiso   1.00
O774   O     0.54420   0.61785   0.57087   0.00000  Uiso   1.00
O775   O     0.54644   0.38415   0.56816   0.00000  Uiso   1.00
O776   O     0.45580   0.61785   0.42913   0.00000  Uiso   1.00
O777   O     0.56012   0.46042   0.50000   0.00000  Uiso   1.00
O778   O     0.56012   0.53958   0.50000   0.00000  Uiso   1.00
O779   O     0.43988   0.46042   0.50000   0.00000  Uiso   1.00
O780   O     0.50000   0.53959   0.42946   0.00000  Uiso   1.00
O781   O     0.50000   0.46041   0.57054   0.00000  Uiso   1.00
O782   O     0.50000   0.53959   0.57054   0.00000  Uiso   1.00
O783   O     0.50000   0.46041   0.42946   0.00000  Uiso   1.00
O784   O     0.45356   0.38415   0.43184   0.00000  Uiso   1.00
C785   C     0.75427   0.50015   0.50358   0.00000  Uiso   1.00
C786   C     0.68777   0.54341   0.50456   0.00000  Uiso   1.00
C787   C     0.95729   0.50091   0.49332   0.00000  Uiso   1.00
C788   C     0.70937   0.50091   0.50668   0.00000  Uiso   1.00
C789   C     0.80933   0.35862   0.46662   0.00000  Uiso   1.00
C790   C     0.85561   0.64197   0.53496   0.00000  Uiso   1.00
C791   C     0.85734   0.35861   0.53338   0.00000  Uiso   1.00
C792   C     0.81106   0.64197   0.46504   0.00000  Uiso   1.00
C793   C     0.70497   0.41757   0.52868   0.00000  Uiso   1.00
C794   C     0.95901   0.58701   0.48299   0.00000  Uiso   1.00
C795   C     0.96169   0.41757   0.47132   0.00000  Uiso   1.00
C796   C     0.91240   0.50015   0.49642   0.00000  Uiso   1.00
C797   C     0.70766   0.58701   0.51701   0.00000  Uiso   1.00
C798   C     0.74524   0.37100   0.42897   0.00000  Uiso   1.00
C799   C     0.85846   0.62375   0.61609   0.00000  Uiso   1.00
C800   C     0.92143   0.37100   0.57103   0.00000  Uiso   1.00
C801   C     0.80821   0.62375   0.38391   0.00000  Uiso   1.00
C802   C     0.83324   0.49999   0.40694   0.00000  Uiso   1.00
C803   C     0.83343   0.49999   0.59306   0.00000  Uiso   1.00
C804   C     0.83330   0.49997   0.35518   0.00000  Uiso   1.00
C805   C     0.83336   0.49997   0.64482   0.00000  Uiso   1.00
C806   C     0.68738   0.45896   0.50660   0.00000  Uiso   1.00
C807   C     0.97890   0.54341   0.49544   0.00000  Uiso   1.00
C808   C     0.97929   0.45897   0.49340   0.00000  Uiso   1.00
Cu809  Cu    0.83333   0.54689   0.50000   0.00000  Uiso   1.00
Cu810  Cu    0.83333   0.45311   0.50000   0.00000  Uiso   1.00
H811   H     0.72632   0.40290   0.42620   0.00000  Uiso   1.00
H812   H     0.79524   0.59779   0.35767   0.00000  Uiso   1.00
H813   H     0.80216   0.65853   0.36787   0.00000  Uiso   1.00
H814   H     0.84186   0.61794   0.38726   0.00000  Uiso   1.00
H815   H     0.73504   0.35090   0.46099   0.00000  Uiso   1.00
H816   H     0.73874   0.35067   0.39507   0.00000  Uiso   1.00
H817   H     0.87143   0.59779   0.64233   0.00000  Uiso   1.00
H818   H     0.86451   0.65853   0.63213   0.00000  Uiso   1.00
H819   H     0.82480   0.61794   0.61274   0.00000  Uiso   1.00
H820   H     0.94035   0.40290   0.57380   0.00000  Uiso   1.00
H821   H     0.93162   0.35090   0.53901   0.00000  Uiso   1.00
H822   H     0.92793   0.35067   0.60493   0.00000  Uiso   1.00
N823   N     0.83333   0.61736   0.50000   0.00000  Uiso   1.00
N824   N     0.83333   0.38264   0.50000   0.00000  Uiso   1.00
N825   N     0.71905   0.38509   0.54759   0.00000  Uiso   1.00
N826   N     0.94294   0.62145   0.47233   0.00000  Uiso   1.00
N827   N     0.94762   0.38509   0.45241   0.00000  Uiso   1.00
N828   N     0.72373   0.62145   0.52766   0.00000  Uiso   1.00
O829   O     0.77321   0.53958   0.50000   0.00000  Uiso   1.00
O830   O     0.87754   0.61785   0.57087   0.00000  Uiso   1.00
O831   O     0.87977   0.38415   0.56816   0.00000  Uiso   1.00
O832   O     0.78913   0.61785   0.42913   0.00000  Uiso   1.00
O833   O     0.89345   0.46042   0.50000   0.00000  Uiso   1.00
O834   O     0.89345   0.53958   0.50000   0.00000  Uiso   1.00
O835   O     0.77321   0.46042   0.50000   0.00000  Uiso   1.00
O836   O     0.83333   0.53959   0.42946   0.00000  Uiso   1.00
O837   O     0.83333   0.46041   0.57054   0.00000  Uiso   1.00
O838   O     0.83333   0.53959   0.57054   0.00000  Uiso   1.00
O839   O     0.83333   0.46041   0.42946   0.00000  Uiso   1.00
O840   O     0.78689   0.38415   0.43184   0.00000  Uiso   1.00
C841   C     0.08760   0.83348   0.50358   0.00000  Uiso   1.00
C842   C     0.02110   0.87674   0.50456   0.00000  Uiso   1.00
C843   C     0.29063   0.83424   0.49332   0.00000  Uiso   1.00
C844   C     0.04271   0.83424   0.50668   0.00000  Uiso   1.00
C845   C     0.14266   0.69195   0.46662   0.00000  Uiso   1.00
C846   C     0.18895   0.97530   0.53496   0.00000  Uiso   1.00
C847   C     0.19067   0.69195   0.53338   0.00000  Uiso   1.00
C848   C     0.14439   0.97530   0.46504   0.00000  Uiso   1.00
C849   C     0.03831   0.75090   0.52868   0.00000  Uiso   1.00
C850   C     0.29234   0.92034   0.48299   0.00000  Uiso   1.00
C851   C     0.29503   0.75090   0.47132   0.00000  Uiso   1.00
C852   C     0.24573   0.83348   0.49642   0.00000  Uiso   1.00
C853   C     0.04099   0.92034   0.51701   0.00000  Uiso   1.00
C854   C     0.07857   0.70433   0.42897   0.00000  Uiso   1.00
C855   C     0.19179   0.95708   0.61609   0.00000  Uiso   1.00
C856   C     0.25476   0.70433   0.57103   0.00000  Uiso   1.00
C857   C     0.14154   0.95708   0.38391   0.00000  Uiso   1.00
C858   C     0.16657   0.83333   0.40694   0.00000  Uiso   1.00
C859   C     0.16676   0.83333   0.59306   0.00000  Uiso   1.00
C860   C     0.16664   0.83330   0.35518   0.00000  Uiso   1.00
C861   C     0.16670   0.83330   0.64482   0.00000  Uiso   1.00
C862   C     0.02071   0.79230   0.50660   0.00000  Uiso   1.00
C863   C     0.31223   0.87674   0.49544   0.00000  Uiso   1.00
C864   C     0.31262   0.79230   0.49340   0.00000  Uiso   1.00
Cu865  Cu    0.16667   0.88022   0.50000   0.00000  Uiso   1.00
Cu866  Cu    0.16667   0.78645   0.50000   0.00000  Uiso   1.00
H867   H     0.05965   0.73623   0.42620   0.00000  Uiso   1.00
H868   H     0.12857   0.93112   0.35767   0.00000  Uiso   1.00
H869   H     0.13549   0.99187   0.36787   0.00000  Uiso   1.00
H870   H     0.17520   0.95128   0.38726   0.00000  Uiso   1.00
H871   H     0.06838   0.68424   0.46099   0.00000  Uiso   1.00
H872   H     0.07207   0.68401   0.39507   0.00000  Uiso   1.00
H873   H     0.20476   0.93112   0.64233   0.00000  Uiso   1.00
H874   H     0.19784   0.99187   0.63213   0.00000  Uiso   1.00
H875   H     0.15814   0.95128   0.61274   0.00000  Uiso   1.00
H876   H     0.27368   0.73623   0.57380   0.00000  Uiso   1.00
H877   H     0.26496   0.68424   0.53901   0.00000  Uiso   1.00
H878   H     0.26126   0.68401   0.60493   0.00000  Uiso   1.00
N879   N     0.16667   0.95069   0.50000   0.00000  Uiso   1.00
N880   N     0.16667   0.71598   0.50000   0.00000  Uiso   1.00
N881   N     0.05238   0.71842   0.54759   0.00000  Uiso   1.00
N882   N     0.27627   0.95478   0.47233   0.00000  Uiso   1.00
N883   N     0.28095   0.71842   0.45241   0.00000  Uiso   1.00
N884   N     0.05706   0.95478   0.52766   0.00000  Uiso   1.00
O885   O     0.10655   0.87291   0.50000   0.00000  Uiso   1.00
O886   O     0.21087   0.95118   0.57087   0.00000  Uiso   1.00
O887   O     0.21311   0.71748   0.56816   0.00000  Uiso   1.00
O888   O     0.12246   0.95118   0.42913   0.00000  Uiso   1.00
O889   O     0.22679   0.79375   0.50000   0.00000  Uiso   1.00
O890   O     0.22679   0.87291   0.50000   0.00000  Uiso   1.00
O891   O     0.10655   0.79375   0.50000   0.00000  Uiso   1.00
O892   O     0.16667   0.87292   0.42946   0.00000  Uiso   1.00
O893   O     0.16667   0.79375   0.57054   0.00000  Uiso   1.00
O894   O     0.16667   0.87292   0.57054   0.00000  Uiso   1.00
O895   O     0.16667   0.79375   0.42946   0.00000  Uiso   1.00
O896   O     0.12023   0.71748   0.43184   0.00000  Uiso   1.00
C897   C     0.42094   0.83348   0.50358   0.00000  Uiso   1.00
C898   C     0.35444   0.87674   0.50456   0.00000  Uiso   1.00
C899   C     0.62396   0.83424   0.49332   0.00000  Uiso   1.00
C900   C     0.37604   0.83424   0.50668   0.00000  Uiso   1.00
C901   C     0.47599   0.69195   0.46662   0.00000  Uiso   1.00
C902   C     0.52228   0.97530   0.53496   0.00000  Uiso   1.00
C903   C     0.52401   0.69195   0.53338   0.00000  Uiso   1.00
C904   C     0.47772   0.97530   0.46504   0.00000  Uiso   1.00
C905   C     0.37164   0.75090   0.52868   0.00000  Uiso   1.00
C906   C     0.62568   0.92034   0.48299   0.00000  Uiso   1.00
C907   C     0.62836   0.75090   0.47132   0.00000  Uiso   1.00
C908   C     0.57906   0.83348   0.49642   0.00000  Uiso   1.00
C909   C     0.37432   0.92034   0.51701   0.00000  Uiso   1.00
C910   C     0.41190   0.70433   0.42897   0.00000  Uiso   1.00
C911   C     0.52513   0.95708   0.61609   0.00000  Uiso   1.00
C912   C     0.58810   0.70433   0.57103   0.00000  Uiso   1.00
C913   C     0.47487   0.95708   0.38391   0.00000  Uiso   1.00
C914   C     0.49990   0.83333   0.40694   0.00000  Uiso   1.00
C915   C     0.50010   0.83333   0.59306   0.00000  Uiso   1.00
C916   C     0.49997   0.83330   0.35518   0.00000  Uiso   1.00
C917   C     0.50003   0.83330   0.64482   0.00000  Uiso   1.00
C918   C     0.35405   0.79230   0.50660   0.00000  Uiso   1.00
C919   C     0.64556   0.87674   0.49544   0.00000  Uiso   1.00
C920   C     0.64596   0.79230   0.49340   0.00000  Uiso   1.00
Cu921  Cu    0.50000   0.88022   0.50000   0.00000  Uiso   1.00
Cu922  Cu    0.50000   0.78645   0.50000   0.00000  Uiso   1.00
H923   H     0.39299   0.73623   0.42620   0.00000  Uiso   1.00
H924   H     0.46190   0.93112   0.35767   0.00000  Uiso   1.00
H925   H     0.46883   0.99187   0.36787   0.00000  Uiso   1.00
H926   H     0.50853   0.95128   0.38726   0.00000  Uiso   1.00
H927   H     0.40171   0.68424   0.46099   0.00000  Uiso   1.00
H928   H     0.40541   0.68401   0.39507   0.00000  Uiso   1.00
H929   H     0.53810   0.93112   0.64233   0.00000  Uiso   1.00
H930   H     0.53117   0.99187   0.63213   0.00000  Uiso   1.00
H931   H     0.49147   0.95128   0.61274   0.00000  Uiso   1.00
H932   H     0.60701   0.73623   0.57380   0.00000  Uiso   1.00
H933   H     0.59829   0.68424   0.53901   0.00000  Uiso   1.00
H934   H     0.59460   0.68401   0.60493   0.00000  Uiso   1.00
N935   N     0.50000   0.95069   0.50000   0.00000  Uiso   1.00
N936   N     0.50000   0.71598   0.50000   0.00000  Uiso   1.00
N937   N     0.38571   0.71842   0.54759   0.00000  Uiso   1.00
N938   N     0.60960   0.95478   0.47233   0.00000  Uiso   1.00
N939   N     0.61429   0.71842   0.45241   0.00000  Uiso   1.00
N940   N     0.39040   0.95478   0.52766   0.00000  Uiso   1.00
O941   O     0.43988   0.87291   0.50000   0.00000  Uiso   1.00
O942   O     0.54420   0.95118   0.57087   0.00000  Uiso   1.00
O943   O     0.54644   0.71748   0.56816   0.00000  Uiso   1.00
O944   O     0.45580   0.95118   0.42913   0.00000  Uiso   1.00
O945   O     0.56012   0.79375   0.50000   0.00000  Uiso   1.00
O946   O     0.56012   0.87291   0.50000   0.00000  Uiso   1.00
O947   O     0.43988   0.79375   0.50000   0.00000  Uiso   1.00
O948   O     0.50000   0.87292   0.42946   0.00000  Uiso   1.00
O949   O     0.50000   0.79375   0.57054   0.00000  Uiso   1.00
O950   O     0.50000   0.87292   0.57054   0.00000  Uiso   1.00
O951   O     0.50000   0.79375   0.42946   0.00000  Uiso   1.00
O952   O     0.45356   0.71748   0.43184   0.00000  Uiso   1.00
C953   C     0.75427   0.83348   0.50358   0.00000  Uiso   1.00
C954   C     0.68777   0.87674   0.50456   0.00000  Uiso   1.00
C955   C     0.95729   0.83424   0.49332   0.00000  Uiso   1.00
C956   C     0.70937   0.83424   0.50668   0.00000  Uiso   1.00
C957   C     0.80933   0.69195   0.46662   0.00000  Uiso   1.00
C958   C     0.85561   0.97530   0.53496   0.00000  Uiso   1.00
C959   C     0.85734   0.69195   0.53338   0.00000  Uiso   1.00
C960   C     0.81106   0.97530   0.46504   0.00000  Uiso   1.00
C961   C     0.70497   0.75090   0.52868   0.00000  Uiso   1.00
C962   C     0.95901   0.92034   0.48299   0.00000  Uiso   1.00
C963   C     0.96169   0.75090   0.47132   0.00000  Uiso   1.00
C964   C     0.91240   0.83348   0.49642   0.00000  Uiso   1.00
C965   C     0.70766   0.92034   0.51701   0.00000  Uiso   1.00
C966   C     0.74524   0.70433   0.42897   0.00000  Uiso   1.00
C967   C     0.85846   0.95708   0.61609   0.00000  Uiso   1.00
C968   C     0.92143   0.70433   0.57103   0.00000  Uiso   1.00
C969   C     0.80821   0.95708   0.38391   0.00000  Uiso   1.00
C970   C     0.83324   0.83333   0.40694   0.00000  Uiso   1.00
C971   C     0.83343   0.83333   0.59306   0.00000  Uiso   1.00
C972   C     0.83330   0.83330   0.35518   0.00000  Uiso   1.00
C973   C     0.83336   0.83330   0.64482   0.00000  Uiso   1.00
C974   C     0.68738   0.79230   0.50660   0.00000  Uiso   1.00
C975   C     0.97890   0.87674   0.49544   0.00000  Uiso   1.00
C976   C     0.97929   0.79230   0.49340   0.00000  Uiso   1.00
Cu977  Cu    0.83333   0.88022   0.50000   0.00000  Uiso   1.00
Cu978  Cu    0.83333   0.78645   0.50000   0.00000  Uiso   1.00
H979   H     0.72632   0.73623   0.42620   0.00000  Uiso   1.00
H980   H     0.79524   0.93112   0.35767   0.00000  Uiso   1.00
H981   H     0.80216   0.99187   0.36787   0.00000  Uiso   1.00
H982   H     0.84186   0.95128   0.38726   0.00000  Uiso   1.00
H983   H     0.73504   0.68424   0.46099   0.00000  Uiso   1.00
H984   H     0.73874   0.68401   0.39507   0.00000  Uiso   1.00
H985   H     0.87143   0.93112   0.64233   0.00000  Uiso   1.00
H986   H     0.86451   0.99187   0.63213   0.00000  Uiso   1.00
H987   H     0.82480   0.95128   0.61274   0.00000  Uiso   1.00
H988   H     0.94035   0.73623   0.57380   0.00000  Uiso   1.00
H989   H     0.93162   0.68424   0.53901   0.00000  Uiso   1.00
H990   H     0.92793   0.68401   0.60493   0.00000  Uiso   1.00
N991   N     0.83333   0.95069   0.50000   0.00000  Uiso   1.00
N992   N     0.83333   0.71598   0.50000   0.00000  Uiso   1.00
N993   N     0.71905   0.71842   0.54759   0.00000  Uiso   1.00
N994   N     0.94294   0.95478   0.47233   0.00000  Uiso   1.00
N995   N     0.94762   0.71842   0.45241   0.00000  Uiso   1.00
N996   N     0.72373   0.95478   0.52766   0.00000  Uiso   1.00
O997   O     0.77321   0.87291   0.50000   0.00000  Uiso   1.00
O998   O     0.87754   0.95118   0.57087   0.00000  Uiso   1.00
O999   O     0.87977   0.71748   0.56816   0.00000  Uiso   1.00
O1000  O     0.78913   0.95118   0.42913   0.00000  Uiso   1.00
O1001  O     0.89345   0.79375   0.50000   0.00000  Uiso   1.00
O1002  O     0.89345   0.87291   0.50000   0.00000  Uiso   1.00
O1003  O     0.77321   0.79375   0.50000   0.00000  Uiso   1.00
O1004  O     0.83333   0.87292   0.42946   0.00000  Uiso   1.00
O1005  O     0.83333   0.79375   0.57054   0.00000  Uiso   1.00
O1006  O     0.83333   0.87292   0.57054   0.00000  Uiso   1.00
O1007  O     0.83333   0.79375   0.42946   0.00000  Uiso   1.00
O1008  O     0.78689   0.71748   0.43184   0.00000  Uiso   1.00
C1009  C     0.08760   0.16682   0.83692   0.00000  Uiso   1.00
C1010  C     0.02110   0.21008   0.83790   0.00000  Uiso   1.00
C1011  C     0.29063   0.16757   0.82665   0.00000  Uiso   1.00
C1012  C     0.04271   0.16757   0.84002   0.00000  Uiso   1.00
C1013  C     0.14266   0.02528   0.79995   0.00000  Uiso   1.00
C1014  C     0.18895   0.30863   0.86830   0.00000  Uiso   1.00
C1015  C     0.19067   0.02528   0.86671   0.00000  Uiso   1.00
C1016  C     0.14439   0.30863   0.79837   0.00000  Uiso   1.00
C1017  C     0.03831   0.08423   0.86202   0.00000  Uiso   1.00
C1018  C     0.29234   0.25367   0.81632   0.00000  Uiso   1.00
C1019  C     0.29503   0.08423   0.80465   0.00000  Uiso   1.00
C1020  C     0.24573   0.16682   0.82975   0.00000  Uiso   1.00
C1021  C     0.04099   0.25367   0.85035   0.00000  Uiso   1.00
C1022  C     0.07857   0.03767   0.76230   0.00000  Uiso   1.00
C1023  C     0.19179   0.29041   0.94942   0.00000  Uiso   1.00
C1024  C     0.25476   0.03767   0.90436   0.00000  Uiso   1.00
C1025  C     0.14154   0.29041   0.71724   0.00000  Uiso   1.00
C1026  C     0.16657   0.16666   0.74027   0.00000  Uiso   1.00
C1027  C     0.16676   0.16666   0.92639   0.00000  Uiso   1.00
C1028  C     0.16664   0.16663   0.68852   0.00000  Uiso   1.00
C1029  C     0.16670   0.16663   0.97815   0.00000  Uiso   1.00
C1030  C     0.02071   0.12563   0.83993   0.00000  Uiso   1.00
C1031  C     0.31223   0.21008   0.82877   0.00000  Uiso   1.00
C1032  C     0.31262   0.12563   0.82674   0.00000  Uiso   1.00
Cu1033 Cu    0.16667   0.21355   0.83333   0.00000  Uiso   1.00
Cu1034 Cu    0.16667   0.11978   0.83333   0.00000  Uiso   1.00
H1035  H     0.05965   0.06956   0.75953   0.00000  Uiso   1.00
H1036  H     0.12857   0.26445   0.69101   0.00000  Uiso   1.00
H1037  H     0.13549   0.32520   0.70120   0.00000  Uiso   1.00
H1038  H     0.17520   0.28461   0.72060   0.00000  Uiso   1.00
H1039  H     0.06838   0.01757   0.79432   0.00000  Uiso   1.00
H1040  H     0.07207   0.01734   0.72840   0.00000  Uiso   1.00
H1041  H     0.20476   0.26445   0.97566   0.00000  Uiso   1.00
H1042  H     0.19784   0.32520   0.96546   0.00000  Uiso   1.00
H1043  H     0.15814   0.28461   0.94607   0.00000  Uiso   1.00
H1044  H     0.27368   0.06956   0.90714   0.00000  Uiso   1.00
H1045  H     0.26496   0.01757   0.87235   0.00000  Uiso   1.00
H1046  H     0.26126   0.01734   0.93827   0.00000  Uiso   1.00
N1047  N     0.16667   0.28402   0.83333   0.00000  Uiso   1.00
N1048  N     0.16667   0.04931   0.83333   0.00000  Uiso   1.00
N1049  N     0.05238   0.05176   0.88092   0.00000  Uiso   1.00
N1050  N     0.27627   0.28812   0.80567   0.00000  Uiso   1.00
N1051  N     0.28095   0.05176   0.78575   0.00000  Uiso   1.00
N1052  N     0.05706   0.28812   0.86100   0.00000  Uiso   1.00
O1053  O     0.10655   0.20625   0.83333   0.00000  Uiso   1.00
O1054  O     0.21087   0.28452   0.90420   0.00000  Uiso   1.00
O1055  O     0.21311   0.05082   0.90149   0.00000  Uiso   1.00
O1056  O     0.12246   0.28452   0.76247   0.00000  Uiso   1.00
O1057  O     0.22679   0.12709   0.83334   0.00000  Uiso   1.00
O1058  O     0.22679   0.20625   0.83334   0.00000  Uiso   1.00
O1059  O     0.10655   0.12709   0.83333   0.00000  Uiso   1.00
O1060  O     0.16667   0.20625   0.76280   0.00000  Uiso   1.00
O1061  O     0.16667   0.12708   0.90387   0.00000  Uiso   1.00
O1062  O     0.16667   0.20625   0.90387   0.00000  Uiso   1.00
O1063  O     0.16667   0.12708   0.76280   0.00000  Uiso   1.00
O1064  O     0.12023   0.05082   0.76518   0.00000  Uiso   1.00
C1065  C     0.42094   0.16682   0.83692   0.00000  Uiso   1.00
C1066  C     0.35444   0.21008   0.83790   0.00000  Uiso   1.00
C1067  C     0.62396   0.16757   0.82665   0.00000  Uiso   1.00
C1068  C     0.37604   0.16757   0.84002   0.00000  Uiso   1.00
C1069  C     0.47599   0.02528   0.79995   0.00000  Uiso   1.00
C1070  C     0.52228   0.30863   0.86830   0.00000  Uiso   1.00
C1071  C     0.52401   0.02528   0.86671   0.00000  Uiso   1.00
C1072  C     0.47772   0.30863   0.79837   0.00000  Uiso   1.00
C1073  C     0.37164   0.08423   0.86202   0.00000  Uiso   1.00
C1074  C     0.62568   0.25367   0.81632   0.00000  Uiso   1.00
C1075  C     0.62836   0.08423   0.80465   0.00000  Uiso   1.00
C1076  C     0.57906   0.16682   0.82975   0.00000  Uiso   1.00
C1077  C     0.37432   0.25367   0.85035   0.00000  Uiso   1.00
C1078  C     0.41190   0.03767   0.76230   0.00000  Uiso   1.00
C1079  C     0.52513   0.29041   0.94942   0.00000  Uiso   1.00
C1080  C     0.58810   0.03767   0.90436   0.00000  Uiso   1.00
C1081  C     0.47487   0.29041   0.71724   0.00000  Uiso   1.00
C1082  C     0.49990   0.16666   0.74027   0.00000  Uiso   1.00
C1083  C     0.50010   0.16666   0.92639   0.00000  Uiso   1.00
C1084  C     0.49997   0.16663   0.68852   0.00000  Uiso   1.00
C1085  C     0.50003   0.16663   0.97815   0.00000  Uiso   1.00
C1086  C     0.35405   0.12563   0.83993   0.00000  Uiso   1.00
C1087  C     0.64556   0.21008   0.82877   0.00000  Uiso   1.00
C1088  C     0.64596   0.12563   0.82674   0.00000  Uiso   1.00
Cu1089 Cu    0.50000   0.21355   0.83333   0.00000  Uiso   1.00
Cu1090 Cu    0.50000   0.11978   0.83333   0.00000  Uiso   1.00
H1091  H     0.39299   0.06956   0.75953   0.00000  Uiso   1.00
H1092  H     0.46190   0.26445   0.69101   0.00000  Uiso   1.00
H1093  H     0.46883   0.32520   0.70120   0.00000  Uiso   1.00
H1094  H     0.50853   0.28461   0.72060   0.00000  Uiso   1.00
H1095  H     0.40171   0.01757   0.79432   0.00000  Uiso   1.00
H1096  H     0.40541   0.01734   0.72840   0.00000  Uiso   1.00
H1097  H     0.53810   0.26445   0.97566   0.00000  Uiso   1.00
H1098  H     0.53117   0.32520   0.96546   0.00000  Uiso   1.00
H1099  H     0.49147   0.28461   0.94607   0.00000  Uiso   1.00
H1100  H     0.60701   0.06956   0.90714   0.00000  Uiso   1.00
H1101  H     0.59829   0.01757   0.87235   0.00000  Uiso   1.00
H1102  H     0.59460   0.01734   0.93827   0.00000  Uiso   1.00
N1103  N     0.50000   0.28402   0.83333   0.00000  Uiso   1.00
N1104  N     0.50000   0.04931   0.83333   0.00000  Uiso   1.00
N1105  N     0.38571   0.05176   0.88092   0.00000  Uiso   1.00
N1106  N     0.60960   0.28812   0.80567   0.00000  Uiso   1.00
N1107  N     0.61429   0.05176   0.78575   0.00000  Uiso   1.00
N1108  N     0.39040   0.28812   0.86100   0.00000  Uiso   1.00
O1109  O     0.43988   0.20625   0.83333   0.00000  Uiso   1.00
O1110  O     0.54420   0.28452   0.90420   0.00000  Uiso   1.00
O1111  O     0.54644   0.05082   0.90149   0.00000  Uiso   1.00
O1112  O     0.45580   0.28452   0.76247   0.00000  Uiso   1.00
O1113  O     0.56012   0.12709   0.83334   0.00000  Uiso   1.00
O1114  O     0.56012   0.20625   0.83334   0.00000  Uiso   1.00
O1115  O     0.43988   0.12709   0.83333   0.00000  Uiso   1.00
O1116  O     0.50000   0.20625   0.76280   0.00000  Uiso   1.00
O1117  O     0.50000   0.12708   0.90387   0.00000  Uiso   1.00
O1118  O     0.50000   0.20625   0.90387   0.00000  Uiso   1.00
O1119  O     0.50000   0.12708   0.76280   0.00000  Uiso   1.00
O1120  O     0.45356   0.05082   0.76518   0.00000  Uiso   1.00
C1121  C     0.75427   0.16682   0.83692   0.00000  Uiso   1.00
C1122  C     0.68777   0.21008   0.83790   0.00000  Uiso   1.00
C1123  C     0.95729   0.16757   0.82665   0.00000  Uiso   1.00
C1124  C     0.70937   0.16757   0.84002   0.00000  Uiso   1.00
C1125  C     0.80933   0.02528   0.79995   0.00000  Uiso   1.00
C1126  C     0.85561   0.30863   0.86830   0.00000  Uiso   1.00
C1127  C     0.85734   0.02528   0.86671   0.00000  Uiso   1.00
C1128  C     0.81106   0.30863   0.79837   0.00000  Uiso   1.00
C1129  C     0.70497   0.08423   0.86202   0.00000  Uiso   1.00
C1130  C     0.95901   0.25367   0.81632   0.00000  Uiso   1.00
C1131  C     0.96169   0.08423   0.80465   0.00000  Uiso   1.00
C1132  C     0.91240   0.16682   0.82975   0.00000  Uiso   1.00
C1133  C     0.70766   0.25367   0.85035   0.00000  Uiso   1.00
C1134  C     0.74524   0.03767   0.76230   0.00000  Uiso   1.00
C1135  C     0.85846   0.29041   0.94942   0.00000  Uiso   1.00
C1136  C     0.92143   0.03767   0.90436   0.00000  Uiso   1.00
C1137  C     0.80821   0.29041   0.71724   0.00000  Uiso   1.00
C1138  C     0.83324   0.16666   0.74027   0.00000  Uiso   1.00
C1139  C     0.83343   0.16666   0.92639   0.00000  Uiso   1.00
C1140  C     0.83330   0.16663   0.68852   0.00000  Uiso   1.00
C1141  C     0.83336   0.16663   0.97815   0.00000  Uiso   1.00
C1142  C     0.68738   0.12563   0.83993   0.00000  Uiso   1.00
C1143  C     0.97890   0.21008   0.82877   0.00000  Uiso   1.00
C1144  C     0.97929   0.12563   0.82674   0.00000  Uiso   1.00
Cu1145 Cu    0.83333   0.21355   0.83333   0.00000  Uiso   1.00
Cu1146 Cu    0.83333   0.11978   0.83333   0.00000  Uiso   1.00
H1147  H     0.72632   0.06956   0.75953   0.00000  Uiso   1.00
H1148  H     0.79524   0.26445   0.69101   0.00000  Uiso   1.00
H1149  H     0.80216   0.32520   0.70120   0.00000  Uiso   1.00
H1150  H     0.84186   0.28461   0.72060   0.00000  Uiso   1.00
H1151  H     0.73504   0.01757   0.79432   0.00000  Uiso   1.00
H1152  H     0.73874   0.01734   0.72840   0.00000  Uiso   1.00
H1153  H     0.87143   0.26445   0.97566   0.00000  Uiso   1.00
H1154  H     0.86451   0.32520   0.96546   0.00000  Uiso   1.00
H1155  H     0.82480   0.28461   0.94607   0.00000  Uiso   1.00
H1156  H     0.94035   0.06956   0.90714   0.00000  Uiso   1.00
H1157  H     0.93162   0.01757   0.87235   0.00000  Uiso   1.00
H1158  H     0.92793   0.01734   0.93827   0.00000  Uiso   1.00
N1159  N     0.83333   0.28402   0.83333   0.00000  Uiso   1.00
N1160  N     0.83333   0.04931   0.83333   0.00000  Uiso   1.00
N1161  N     0.71905   0.05176   0.88092   0.00000  Uiso   1.00
N1162  N     0.94294   0.28812   0.80567   0.00000  Uiso   1.00
N1163  N     0.94762   0.05176   0.78575   0.00000  Uiso   1.00
N1164  N     0.72373   0.28812   0.86100   0.00000  Uiso   1.00
O1165  O     0.77321   0.20625   0.83333   0.00000  Uiso   1.00
O1166  O     0.87754   0.28452   0.90420   0.00000  Uiso   1.00
O1167  O     0.87977   0.05082   0.90149   0.00000  Uiso   1.00
O1168  O     0.78913   0.28452   0.76247   0.00000  Uiso   1.00
O1169  O     0.89345   0.12709   0.83334   0.00000  Uiso   1.00
O1170  O     0.89345   0.20625   0.83334   0.00000  Uiso   1.00
O1171  O     0.77321   0.12709   0.83333   0.00000  Uiso   1.00
O1172  O     0.83333   0.20625   0.76280   0.00000  Uiso   1.00
O1173  O     0.83333   0.12708   0.90387   0.00000  Uiso   1.00
O1174  O     0.83333   0.20625   0.90387   0.00000  Uiso   1.00
O1175  O     0.83333   0.12708   0.76280   0.00000  Uiso   1.00
O1176  O     0.78689   0.05082   0.76518   0.00000  Uiso   1.00
C1177  C     0.08760   0.50015   0.83692   0.00000  Uiso   1.00
C1178  C     0.02110   0.54341   0.83790   0.00000  Uiso   1.00
C1179  C     0.29063   0.50091   0.82665   0.00000  Uiso   1.00
C1180  C     0.04271   0.50091   0.84002   0.00000  Uiso   1.00
C1181  C     0.14266   0.35862   0.79995   0.00000  Uiso   1.00
C1182  C     0.18895   0.64197   0.86830   0.00000  Uiso   1.00
C1183  C     0.19067   0.35861   0.86671   0.00000  Uiso   1.00
C1184  C     0.14439   0.64197   0.79837   0.00000  Uiso   1.00
C1185  C     0.03831   0.41757   0.86202   0.00000  Uiso   1.00
C1186  C     0.29234   0.58701   0.81632   0.00000  Uiso   1.00
C1187  C     0.29503   0.41757   0.80465   0.00000  Uiso   1.00
C1188  C     0.24573   0.50015   0.82975   0.00000  Uiso   1.00
C1189  C     0.04099   0.58701   0.85035   0.00000  Uiso   1.00
C1190  C     0.07857   0.37100   0.76230   0.00000  Uiso   1.00
C1191  C     0.19179   0.62375   0.94942   0.00000  Uiso   1.00
C1192  C     0.25476   0.37100   0.90436   0.00000  Uiso   1.00
C1193  C     0.14154   0.62375   0.71724   0.00000  Uiso   1.00
C1194  C     0.16657   0.49999   0.74027   0.00000  Uiso   1.00
C1195  C     0.16676   0.49999   0.92639   0.00000  Uiso   1.00
C1196  C     0.16664   0.49997   0.68852   0.00000  Uiso   1.00
C1197  C     0.16670   0.49997   0.97815   0.00000  Uiso   1.00
C1198  C     0.02071   0.45896   0.83993   0.00000  Uiso   1.00
C1199  C     0.31223   0.54341   0.82877   0.00000  Uiso   1.00
C1200  C     0.31262   0.45897   0.82674   0.00000  Uiso   1.00
Cu1201 Cu    0.16667   0.54689   0.83333   0.00000  Uiso   1.00
Cu1202 Cu    0.16667   0.45311   0.83333   0.00000  Uiso   1.00
H1203  H     0.05965   0.40290   0.75953   0.00000  Uiso   1.00
H1204  H     0.12857   0.59779   0.69101   0.00000  Uiso   1.00
H1205  H     0.13549   0.65853   0.70120   0.00000  Uiso   1.00
H1206  H     0.17520   0.61794   0.72060   0.00000  Uiso   1.00
H1207  H     0.06838   0.35090   0.79432   0.00000  Uiso   1.00
H1208  H     0.07207   0.35067   0.72840   0.00000  Uiso   1.00
H1209  H     0.20476   0.59779   0.97566   0.00000  Uiso   1.00
H1210  H     0.19784   0.65853   0.96546   0.00000  Uiso   1.00
H1211  H     0.15814   0.61794   0.94607   0.00000  Uiso   1.00
H1212  H     0.27368   0.40290   0.90714   0.00000  Uiso   1.00
H1213  H     0.26496   0.35090   0.87235   0.00000  Uiso   1.00
H1214  H     0.26126   0.35067   0.93827   0.00000  Uiso   1.00
N1215  N     0.16667   0.61736   0.83333   0.00000  Uiso   1.00
N1216  N     0.16667   0.38264   0.83333   0.00000  Uiso   1.00
N1217  N     0.05238   0.38509   0.88092   0.00000  Uiso   1.00
N1218  N     0.27627   0.62145   0.80567   0.00000  Uiso   1.00
N1219  N     0.28095   0.38509   0.78575   0.00000  Uiso   1.00
N1220  N     0.05706   0.62145   0.86100   0.00000  Uiso   1.00
O1221  O     0.10655   0.53958   0.83333   0.00000  Uiso   1.00
O1222  O     0.21087   0.61785   0.90420   0.00000  Uiso   1.00
O1223  O     0.21311   0.38415   0.90149   0.00000  Uiso   1.00
O1224  O     0.12246   0.61785   0.76247   0.00000  Uiso   1.00
O1225  O     0.22679   0.46042   0.83334   0.00000  Uiso   1.00
O1226  O     0.22679   0.53958   0.83334   0.00000  Uiso   1.00
O1227  O     0.10655   0.46042   0.83333   0.00000  Uiso   1.00
O1228  O     0.16667   0.53959   0.76280   0.00000  Uiso   1.00
O1229  O     0.16667   0.46041   0.90387   0.00000  Uiso   1.00
O1230  O     0.16667   0.53959   0.90387   0.00000  Uiso   1.00
O1231  O     0.16667   0.46041   0.76280   0.00000  Uiso   1.00
O1232  O     0.12023   0.38415   0.76518   0.00000  Uiso   1.00
C1233  C     0.42094   0.50015   0.83692   0.00000  Uiso   1.00
C1234  C     0.35444   0.54341   0.83790   0.00000  Uiso   1.00
C1235  C     0.62396   0.50091   0.82665   0.00000  Uiso   1.00
C1236  C     0.37604   0.50091   0.84002   0.00000  Uiso   1.00
C1237  C     0.47599   0.35862   0.79995   0.00000  Uiso   1.00
C1238  C     0.52228   0.64197   0.86830   0.00000  Uiso   1.00
C1239  C     0.52401   0.35861   0.86671   0.00000  Uiso   1.00
C1240  C     0.47772   0.64197   0.79837   0.00000  Uiso   1.00
C1241  C     0.37164   0.41757   0.86202   0.00000  Uiso   1.00
C1242  C     0.62568   0.58701   0.81632   0.00000  Uiso   1.00
C1243  C     0.62836   0.41757   0.80465   0.00000  Uiso   1.00
C1244  C     0.57906   0.50015   0.82975   0.00000  Uiso   1.00
C1245  C     0.37432   0.58701   0.85035   0.00000  Uiso   1.00
C1246  C     0.41190   0.37100   0.76230   0.00000  Uiso   1.00
C1247  C     0.52513   0.62375   0.94942   0.00000  Uiso   1.00
C1248  C     0.58810   0.37100   0.90436   0.00000  Uiso   1.00
C1249  C     0.47487   0.62375   0.71724   0.00000  Uiso   1.00
C1250  C     0.49990   0.49999   0.74027   0.00000  Uiso   1.00
C1251  C     0.50010   0.49999   0.92639   0.00000  Uiso   1.00
C1252  C     0.49997   0.49997   0.68852   0.00000  Uiso   1.00
C1253  C     0.50003   0.49997   0.97815   0.00000  Uiso   1.00
C1254  C     0.35405   0.45896   0.83993   0.00000  Uiso   1.00
C1255  C     0.64556   0.54341   0.82877   0.00000  Uiso   1.00
C1256  C     0.64596   0.45897   0.82674   0.00000  Uiso   1.00
Cu1257 Cu    0.50000   0.54689   0.83333   0.00000  Uiso   1.00
Cu1258 Cu    0.50000   0.45311   0.83333   0.00000  Uiso   1.00
H1259  H     0.39299   0.40290   0.75953   0.00000  Uiso   1.00
H1260  H     0.46190   0.59779   0.69101   0.00000  Uiso   1.00
H1261  H     0.46883   0.65853   0.70120   0.00000  Uiso   1.00
H1262  H     0.50853   0.61794   0.72060   0.00000  Uiso   1.00
H1263  H     0.40171   0.35090   0.79432   0.00000  Uiso   1.00
H1264  H     0.40541   0.35067   0.72840   0.00000  Uiso   1.00
H1265  H     0.53810   0.59779   0.97566   0.00000  Uiso   1.00
H1266  H     0.53117   0.65853   0.96546   0.00000  Uiso   1.00
H1267  H     0.49147   0.61794   0.94607   0.00000  Uiso   1.00
H1268  H     0.60701   0.40290   0.90714   0.00000  Uiso   1.00
H1269  H     0.59829   0.35090   0.87235   0.00000  Uiso   1.00
H1270  H     0.59460   0.35067   0.93827   0.00000  Uiso   1.00
N1271  N     0.50000   0.61736   0.83333   0.00000  Uiso   1.00
N1272  N     0.50000   0.38264   0.83333   0.00000  Uiso   1.00
N1273  N     0.38571   0.38509   0.88092   0.00000  Uiso   1.00
N1274  N     0.60960   0.62145   0.80567   0.00000  Uiso   1.00
N1275  N     0.61429   0.38509   0.78575   0.00000  Uiso   1.00
N1276  N     0.39040   0.62145   0.86100   0.00000  Uiso   1.00
O1277  O     0.43988   0.53958   0.83333   0.00000  Uiso   1.00
O1278  O     0.54420   0.61785   0.90420   0.00000  Uiso   1.00
O1279  O     0.54644   0.38415   0.90149   0.00000  Uiso   1.00
O1280  O     0.45580   0.61785   0.76247   0.00000  Uiso   1.00
O1281  O     0.56012   0.46042   0.83334   0.00000  Uiso   1.00
O1282  O     0.56012   0.53958   0.83334   0.00000  Uiso   1.00
O1283  O     0.43988   0.46042   0.83333   0.00000  Uiso   1.00
O1284  O     0.50000   0.53959   0.76280   0.00000  Uiso   1.00
O1285  O     0.50000   0.46041   0.90387   0.00000  Uiso   1.00
O1286  O     0.50000   0.53959   0.90387   0.00000  Uiso   1.00
O1287  O     0.50000   0.46041   0.76280   0.00000  Uiso   1.00
O1288  O     0.45356   0.38415   0.76518   0.00000  Uiso   1.00
C1289  C     0.75427   0.50015   0.83692   0.00000  Uiso   1.00
C1290  C     0.68777   0.54341   0.83790   0.00000  Uiso   1.00
C1291  C     0.95729   0.50091   0.82665   0.00000  Uiso   1.00
C1292  C     0.70937   0.50091   0.84002   0.00000  Uiso   1.00
C1293  C     0.80933   0.35862   0.79995   0.00000  Uiso   1.00
C1294  C     0.85561   0.64197   0.86830   0.00000  Uiso   1.00
C1295  C     0.85734   0.35861   0.86671   0.00000  Uiso   1.00
C1296  C     0.81106   0.64197   0.79837   0.00000  Uiso   1.00
C1297  C     0.70497   0.41757   0.86202   0.00000  Uiso   1.00
C1298  C     0.95901   0.58701   0.81632   0.00000  Uiso   1.00
C1299  C     0.96169   0.41757   0.80465   0.00000  Uiso   1.00
C1300  C     0.91240   0.50015   0.82975   0.00000  Uiso   1.00
C1301  C     0.70766   0.58701   0.85035   0.00000  Uiso   1.00
C1302  C     0.74524   0.37100   0.76230   0.00000  Uiso   1.00
C1303  C     0.85846   0.62375   0.94942   0.00000  Uiso   1.00
C1304  C     0.92143   0.37100   0.90436   0.00000  Uiso   1.00
C1305  C     0.80821   0.62375   0.71724   0.00000  Uiso   1.00
C1306  C     0.83324   0.49999   0.74027   0.00000  Uiso   1.00
C1307  C     0.83343   0.49999   0.92639   0.00000  Uiso   1.00
C1308  C     0.83330   0.49997   0.68852   0.00000  Uiso   1.00
C1309  C     0.83336   0.49997   0.97815   0.00000  Uiso   1.00
C1310  C     0.68738   0.45896   0.83993   0.00000  Uiso   1.00
C1311  C     0.97890   0.54341   0.82877   0.00000  Uiso   1.00
C1312  C     0.97929   0.45897   0.82674   0.00000  Uiso   1.00
Cu1313 Cu    0.83333   0.54689   0.83333   0.00000  Uiso   1.00
Cu1314 Cu    0.83333   0.45311   0.83333   0.00000  Uiso   1.00
H1315  H     0.72632   0.40290   0.75953   0.00000  Uiso   1.00
H1316  H     0.79524   0.59779   0.69101   0.00000  Uiso   1.00
H1317  H     0.80216   0.65853   0.70120   0.00000  Uiso   1.00
H1318  H     0.84186   0.61794   0.72060   0.00000  Uiso   1.00
H1319  H     0.73504   0.35090   0.79432   0.00000  Uiso   1.00
H1320  H     0.73874   0.35067   0.72840   0.00000  Uiso   1.00
H1321  H     0.87143   0.59779   0.97566   0.00000  Uiso   1.00
H1322  H     0.86451   0.65853   0.96546   0.00000  Uiso   1.00
H1323  H     0.82480   0.61794   0.94607   0.00000  Uiso   1.00
H1324  H     0.94035   0.40290   0.90714   0.00000  Uiso   1.00
H1325  H     0.93162   0.35090   0.87235   0.00000  Uiso   1.00
H1326  H     0.92793   0.35067   0.93827   0.00000  Uiso   1.00
N1327  N     0.83333   0.61736   0.83333   0.00000  Uiso   1.00
N1328  N     0.83333   0.38264   0.83333   0.00000  Uiso   1.00
N1329  N     0.71905   0.38509   0.88092   0.00000  Uiso   1.00
N1330  N     0.94294   0.62145   0.80567   0.00000  Uiso   1.00
N1331  N     0.94762   0.38509   0.78575   0.00000  Uiso   1.00
N1332  N     0.72373   0.62145   0.86100   0.00000  Uiso   1.00
O1333  O     0.77321   0.53958   0.83333   0.00000  Uiso   1.00
O1334  O     0.87754   0.61785   0.90420   0.00000  Uiso   1.00
O1335  O     0.87977   0.38415   0.90149   0.00000  Uiso   1.00
O1336  O     0.78913   0.61785   0.76247   0.00000  Uiso   1.00
O1337  O     0.89345   0.46042   0.83334   0.00000  Uiso   1.00
O1338  O     0.89345   0.53958   0.83334   0.00000  Uiso   1.00
O1339  O     0.77321   0.46042   0.83333   0.00000  Uiso   1.00
O1340  O     0.83333   0.53959   0.76280   0.00000  Uiso   1.00
O1341  O     0.83333   0.46041   0.90387   0.00000  Uiso   1.00
O1342  O     0.83333   0.53959   0.90387   0.00000  Uiso   1.00
O1343  O     0.83333   0.46041   0.76280   0.00000  Uiso   1.00
O1344  O     0.78689   0.38415   0.76518   0.00000  Uiso   1.00
C1345  C     0.08760   0.83348   0.83692   0.00000  Uiso   1.00
C1346  C     0.02110   0.87674   0.83790   0.00000  Uiso   1.00
C1347  C     0.29063   0.83424   0.82665   0.00000  Uiso   1.00
C1348  C     0.04271   0.83424   0.84002   0.00000  Uiso   1.00
C1349  C     0.14266   0.69195   0.79995   0.00000  Uiso   1.00
C1350  C     0.18895   0.97530   0.86830   0.00000  Uiso   1.00
C1351  C     0.19067   0.69195   0.86671   0.00000  Uiso   1.00
C1352  C     0.14439   0.97530   0.79837   0.00000  Uiso   1.00
C1353  C     0.03831   0.75090   0.86202   0.00000  Uiso   1.00
C1354  C     0.29234   0.92034   0.81632   0.00000  Uiso   1.00
C1355  C     0.29503   0.75090   0.80465   0.00000  Uiso   1.00
C1356  C     0.24573   0.83348   0.82975   0.00000  Uiso   1.00
C1357  C     0.04099   0.92034   0.85035   0.00000  Uiso   1.00
C1358  C     0.07857   0.70433   0.76230   0.00000  Uiso   1.00
C1359  C     0.19179   0.95708   0.94942   0.00000  Uiso   1.00
C1360  C     0.25476   0.70433   0.90436   0.00000  Uiso   1.00
C1361  C     0.14154   0.95708   0.71724   0.00000  Uiso   1.00
C1362  C     0.16657   0.83333   0.74027   0.00000  Uiso   1.00
C1363  C     0.16676   0.83333   0.92639   0.00000  Uiso   1.00
C1364  C     0.16664   0.83330   0.68852   0.00000  Uiso   1.00
C1365  C     0.16670   0.83330   0.97815   0.00000  Uiso   1.00
C1366  C     0.02071   0.79230   0.83993   0.00000  Uiso   1.00
C1367  C     0.31223   0.87674   0.82877   0.00000  Uiso   1.00
C1368  C     0.31262   0.79230   0.82674   0.00000  Uiso   1.00
Cu1369 Cu    0.16667   0.88022   0.83333   0.00000  Uiso   1.00
Cu1370 Cu    0.16667   0.78645   0.83333   0.00000  Uiso   1.00
H1371  H     0.05965   0.73623   0.75953   0.00000  Uiso   1.00
H1372  H     0.12857   0.93112   0.69101   0.00000  Uiso   1.00
H1373  H     0.13549   0.99187   0.70120   0.00000  Uiso   1.00
H1374  H     0.17520   0.95128   0.72060   0.00000  Uiso   1.00
H1375  H     0.06838   0.68424   0.79432   0.00000  Uiso   1.00
H1376  H     0.07207   0.68401   0.72840   0.00000  Uiso   1.00
H1377  H     0.20476   0.93112   0.97566   0.00000  Uiso   1.00
H1378  H     0.19784   0.99187   0.96546   0.00000  Uiso   1.00
H1379  H     0.15814   0.95128   0.94607   0.00000  Uiso   1.00
H1380  H     0.27368   0.73623   0.90714   0.00000  Uiso   1.00
H1381  H     0.26496   0.68424   0.87235   0.00000  Uiso   1.00
H1382  H     0.26126   0.68401   0.93827   0.00000  Uiso   1.00
N1383  N     0.16667   0.95069   0.83333   0.00000  Uiso   1.00
N1384  N     0.16667   0.71598   0.83333   0.00000  Uiso   1.00
N1385  N     0.05238   0.71842   0.88092   0.00000  Uiso   1.00
N1386  N     0.27627   0.95478   0.80567   0.00000  Uiso   1.00
N1387  N     0.28095   0.71842   0.78575   0.00000  Uiso   1.00
N1388  N     0.05706   0.95478   0.86100   0.00000  Uiso   1.00
O1389  O     0.10655   0.87291   0.83333   0.00000  Uiso   1.00
O1390  O     0.21087   0.95118   0.90420   0.00000  Uiso   1.00
O1391  O     0.21311   0.71748   0.90149   0.00000  Uiso   1.00
O1392  O     0.12246   0.95118   0.76247   0.00000  Uiso   1.00
O1393  O     0.22679   0.79375   0.83334   0.00000  Uiso   1.00
O1394  O     0.22679   0.87291   0.83334   0.00000  Uiso   1.00
O1395  O     0.10655   0.79375   0.83333   0.00000  Uiso   1.00
O1396  O     0.16667   0.87292   0.76280   0.00000  Uiso   1.00
O1397  O     0.16667   0.79375   0.90387   0.00000  Uiso   1.00
O1398  O     0.16667   0.87292   0.90387   0.00000  Uiso   1.00
O1399  O     0.16667   0.79375   0.76280   0.00000  Uiso   1.00
O1400  O     0.12023   0.71748   0.76518   0.00000  Uiso   1.00
C1401  C     0.42094   0.83348   0.83692   0.00000  Uiso   1.00
C1402  C     0.35444   0.87674   0.83790   0.00000  Uiso   1.00
C1403  C     0.62396   0.83424   0.82665   0.00000  Uiso   1.00
C1404  C     0.37604   0.83424   0.84002   0.00000  Uiso   1.00
C1405  C     0.47599   0.69195   0.79995   0.00000  Uiso   1.00
C1406  C     0.52228   0.97530   0.86830   0.00000  Uiso   1.00
C1407  C     0.52401   0.69195   0.86671   0.00000  Uiso   1.00
C1408  C     0.47772   0.97530   0.79837   0.00000  Uiso   1.00
C1409  C     0.37164   0.75090   0.86202   0.00000  Uiso   1.00
C1410  C     0.62568   0.92034   0.81632   0.00000  Uiso   1.00
C1411  C     0.62836   0.75090   0.80465   0.00000  Uiso   1.00
C1412  C     0.57906   0.83348   0.82975   0.00000  Uiso   1.00
C1413  C     0.37432   0.92034   0.85035   0.00000  Uiso   1.00
C1414  C     0.41190   0.70433   0.76230   0.00000  Uiso   1.00
C1415  C     0.52513   0.95708   0.94942   0.00000  Uiso   1.00
C1416  C     0.58810   0.70433   0.90436   0.00000  Uiso   1.00
C1417  C     0.47487   0.95708   0.71724   0.00000  Uiso   1.00
C1418  C     0.49990   0.83333   0.74027   0.00000  Uiso   1.00
C1419  C     0.50010   0.83333   0.92639   0.00000  Uiso   1.00
C1420  C     0.49997   0.83330   0.68852   0.00000  Uiso   1.00
C1421  C     0.50003   0.83330   0.97815   0.00000  Uiso   1.00
C1422  C     0.35405   0.79230   0.83993   0.00000  Uiso   1.00
C1423  C     0.64556   0.87674   0.82877   0.00000  Uiso   1.00
C1424  C     0.64596   0.79230   0.82674   0.00000  Uiso   1.00
Cu1425 Cu    0.50000   0.88022   0.83333   0.00000  Uiso   1.00
Cu1426 Cu    0.50000   0.78645   0.83333   0.00000  Uiso   1.00
H1427  H     0.39299   0.73623   0.75953   0.00000  Uiso   1.00
H1428  H     0.46190   0.93112   0.69101   0.00000  Uiso   1.00
H1429  H     0.46883   0.99187   0.70120   0.00000  Uiso   1.00
H1430  H     0.50853   0.95128   0.72060   0.00000  Uiso   1.00
H1431  H     0.40171   0.68424   0.79432   0.00000  Uiso   1.00
H1432  H     0.40541   0.68401   0.72840   0.00000  Uiso   1.00
H1433  H     0.53810   0.93112   0.97566   0.00000  Uiso   1.00
H1434  H     0.53117   0.99187   0.96546   0.00000  Uiso   1.00
H1435  H     0.49147   0.95128   0.94607   0.00000  Uiso   1.00
H1436  H     0.60701   0.73623   0.90714   0.00000  Uiso   1.00
H1437  H     0.59829   0.68424   0.87235   0.00000  Uiso   1.00
H1438  H     0.59460   0.68401   0.93827   0.00000  Uiso   1.00
N1439  N     0.50000   0.95069   0.83333   0.00000  Uiso   1.00
N1440  N     0.50000   0.71598   0.83333   0.00000  Uiso   1.00
N1441  N     0.38571   0.71842   0.88092   0.00000  Uiso   1.00
N1442  N     0.60960   0.95478   0.80567   0.00000  Uiso   1.00
N1443  N     0.61429   0.71842   0.78575   0.00000  Uiso   1.00
N1444  N     0.39040   0.95478   0.86100   0.00000  Uiso   1.00
O1445  O     0.43988   0.87291   0.83333   0.00000  Uiso   1.00
O1446  O     0.54420   0.95118   0.90420   0.00000  Uiso   1.00
O1447  O     0.54644   0.71748   0.90149   0.00000  Uiso   1.00
O1448  O     0.45580   0.95118   0.76247   0.00000  Uiso   1.00
O1449  O     0.56012   0.79375   0.83334   0.00000  Uiso   1.00
O1450  O     0.56012   0.87291   0.83334   0.00000  Uiso   1.00
O1451  O     0.43988   0.79375   0.83333   0.00000  Uiso   1.00
O1452  O     0.50000   0.87292   0.76280   0.00000  Uiso   1.00
O1453  O     0.50000   0.79375   0.90387   0.00000  Uiso   1.00
O1454  O     0.50000   0.87292   0.90387   0.00000  Uiso   1.00
O1455  O     0.50000   0.79375   0.76280   0.00000  Uiso   1.00
O1456  O     0.45356   0.71748   0.76518   0.00000  Uiso   1.00
C1457  C     0.75427   0.83348   0.83692   0.00000  Uiso   1.00
C1458  C     0.68777   0.87674   0.83790   0.00000  Uiso   1.00
C1459  C     0.95729   0.83424   0.82665   0.00000  Uiso   1.00
C1460  C     0.70937   0.83424   0.84002   0.00000  Uiso   1.00
C1461  C     0.80933   0.69195   0.79995   0.00000  Uiso   1.00
C1462  C     0.85561   0.97530   0.86830   0.00000  Uiso   1.00
C1463  C     0.85734   0.69195   0.86671   0.00000  Uiso   1.00
C1464  C     0.81106   0.97530   0.79837   0.00000  Uiso   1.00
C1465  C     0.70497   0.75090   0.86202   0.00000  Uiso   1.00
C1466  C     0.95901   0.92034   0.81632   0.00000  Uiso   1.00
C1467  C     0.96169   0.75090   0.80465   0.00000  Uiso   1.00
C1468  C     0.91240   0.83348   0.82975   0.00000  Uiso   1.00
C1469  C     0.70766   0.92034   0.85035   0.00000  Uiso   1.00
C1470  C     0.74524   0.70433   0.76230   0.00000  Uiso   1.00
C1471  C     0.85846   0.95708   0.94942   0.00000  Uiso   1.00
C1472  C     0.92143   0.70433   0.90436   0.00000  Uiso   1.00
C1473  C     0.80821   0.95708   0.71724   0.00000  Uiso   1.00
C1474  C     0.83324   0.83333   0.74027   0.00000  Uiso   1.00
C1475  C     0.83343   0.83333   0.92639   0.00000  Uiso   1.00
C1476  C     0.83330   0.83330   0.68852   0.00000  Uiso   1.00
C1477  C     0.83336   0.83330   0.97815   0.00000  Uiso   1.00
C1478  C     0.68738   0.79230   0.83993   0.00000  Uiso   1.00
C1479  C     0.97890   0.87674   0.82877   0.00000  Uiso   1.00
C1480  C     0.97929   0.79230   0.82674   0.00000  Uiso   1.00
Cu1481 Cu    0.83333   0.88022   0.83333   0.00000  Uiso   1.00
Cu1482 Cu    0.83333   0.78645   0.83333   0.00000  Uiso   1.00
H1483  H     0.72632   0.73623   0.75953   0.00000  Uiso   1.00
H1484  H     0.79524   0.93112   0.69101   0.00000  Uiso   1.00
H1485  H     0.80216   0.99187   0.70120   0.00000  Uiso   1.00
H1486  H     0.84186   0.95128   0.72060   0.00000  Uiso   1.00
H1487  H     0.73504   0.68424   0.79432   0.00000  Uiso   1.00
H1488  H     0.73874   0.68401   0.72840   0.00000  Uiso   1.00
H1489  H     0.87143   0.93112   0.97566   0.00000  Uiso   1.00
H1490  H     0.86451   0.99187   0.96546   0.00000  Uiso   1.00
H1491  H     0.82480   0.95128   0.94607   0.00000  Uiso   1.00
H1492  H     0.94035   0.73623   0.90714   0.00000  Uiso   1.00
H1493  H     0.93162   0.68424   0.87235   0.00000  Uiso   1.00
H1494  H     0.92793   0.68401   0.93827   0.00000  Uiso   1.00
N1495  N     0.83333   0.95069   0.83333   0.00000  Uiso   1.00
N1496  N     0.83333   0.71598   0.83333   0.00000  Uiso   1.00
N1497  N     0.71905   0.71842   0.88092   0.00000  Uiso   1.00
N1498  N     0.94294   0.95478   0.80567   0.00000  Uiso   1.00
N1499  N     0.94762   0.71842   0.78575   0.00000  Uiso   1.00
N1500  N     0.72373   0.95478   0.86100   0.00000  Uiso   1.00
O1501  O     0.77321   0.87291   0.83333   0.00000  Uiso   1.00
O1502  O     0.87754   0.95118   0.90420   0.00000  Uiso   1.00
O1503  O     0.87977   0.71748   0.90149   0.00000  Uiso   1.00
O1504  O     0.78913   0.95118   0.76247   0.00000  Uiso   1.00
O1505  O     0.89345   0.79375   0.83334   0.00000  Uiso   1.00
O1506  O     0.89345   0.87291   0.83334   0.00000  Uiso   1.00
O1507  O     0.77321   0.79375   0.83333   0.00000  Uiso   1.00
O1508  O     0.83333   0.87292   0.76280   0.00000  Uiso   1.00
O1509  O     0.83333   0.79375   0.90387   0.00000  Uiso   1.00
O1510  O     0.83333   0.87292   0.90387   0.00000  Uiso   1.00
O1511  O     0.83333   0.79375   0.76280   0.00000  Uiso   1.00
O1512  O     0.78689   0.71748   0.76518   0.00000  Uiso   1.00
loop_
_geom_bond_atom_site_label_1
_geom_bond_atom_site_label_2
_geom_bond_distance
_geom_bond_site_symmetry_2
_ccdc_geom_bond_type
C1     C4      1.475   .     S
C1     O51     1.307   .     A
C1     O45     1.299   .     A
C2     C4      1.414   .     A
C2     C13     1.449   .     S
C2     C135    1.394   1_455 S
C3     C24     1.406   .     A
C3     C23     1.414   .     A
C3     C12     1.475   .     S
C4     C22     1.406   .     A
C5     N40     1.369   .     A
C5     O56     1.389   .     S
C5     C344    1.442   1_545 S
C6     O46     1.381   .     S
C6     N39     1.376   .     A
C6     C175    1.442   .     S
C7     N40     1.369   .     A
C7     O47     1.389   .     S
C7     C342    1.442   1_545 S
C8     O48     1.381   .     S
C8     N39     1.376   .     A
C8     C173    1.442   .     S
C9     C22     1.446   .     S
C9     N41     1.156   .     T
C10    C23     1.449   .     S
C10    N42     1.155   .     T
C11    N43     1.156   .     T
C11    C24     1.446   .     S
C12    O50     1.299   .     A
C12    O49     1.307   .     A
C13    N44     1.155   .     T
C14    O56     1.414   .     S
C14    H31     1.109   .     S
C14    H27     1.109   .     S
C14    H32     1.109   .     S
C15    H34     1.108   .     S
C15    H35     1.114   .     S
C15    O46     1.412   .     S
C15    H33     1.109   .     S
C16    H37     1.109   .     S
C16    H36     1.109   .     S
C16    O47     1.414   .     S
C16    H38     1.109   .     S
C17    H29     1.108   .     S
C17    O48     1.412   .     S
C17    H30     1.114   .     S
C17    H28     1.109   .     S
C18    O52     1.296   .     A
C18    O55     1.295   .     A
C18    C20     1.412   .     S
C19    O53     1.295   .     A
C19    C21     1.412   .     S
C19    O54     1.296   .     A
C20    C1029   1.192   1_554 S
C21    C524    1.192   .     S
C22    C136    1.390   1_455 S
C23    C58     1.394   .     S
C24    C78     1.390   .     S
Cu25   Cu26    2.702   .     S
Cu25   O52     1.935   .     S
Cu25   O45     1.978   .     S
Cu25   O54     1.935   .     S
Cu25   O50     1.978   .     S
Cu25   N39     2.030   .     S
Cu26   N40     2.030   .     S
Cu26   O55     1.935   .     S
Cu26   O51     1.978   .     S
Cu26   O53     1.935   .     S
Cu26   O49     1.978   .     S
C57    C60     1.475   .     S
C57    O107    1.307   .     A
C57    O101    1.299   .     A
C58    C60     1.414   .     A
C58    C69     1.449   .     S
C59    C80     1.406   .     A
C59    C79     1.414   .     A
C59    C68     1.475   .     S
C60    C78     1.406   .     A
C61    N96     1.369   .     A
C61    O112    1.389   .     S
C61    C400    1.442   1_545 S
C62    O102    1.381   .     S
C62    N95     1.376   .     A
C62    C231    1.442   .     S
C63    N96     1.369   .     A
C63    O103    1.389   .     S
C63    C398    1.442   1_545 S
C64    O104    1.381   .     S
C64    N95     1.376   .     A
C64    C229    1.442   .     S
C65    C78     1.446   .     S
C65    N97     1.156   .     T
C66    C79     1.449   .     S
C66    N98     1.155   .     T
C67    N99     1.156   .     T
C67    C80     1.446   .     S
C68    O106    1.299   .     A
C68    O105    1.307   .     A
C69    N100    1.155   .     T
C70    O112    1.414   .     S
C70    H87     1.109   .     S
C70    H83     1.109   .     S
C70    H88     1.109   .     S
C71    H90     1.108   .     S
C71    H91     1.114   .     S
C71    O102    1.412   .     S
C71    H89     1.109   .     S
C72    H93     1.109   .     S
C72    H92     1.109   .     S
C72    O103    1.414   .     S
C72    H94     1.109   .     S
C73    H85     1.108   .     S
C73    O104    1.412   .     S
C73    H86     1.114   .     S
C73    H84     1.109   .     S
C74    O108    1.296   .     A
C74    O111    1.295   .     A
C74    C76     1.412   .     S
C75    O109    1.295   .     A
C75    C77     1.412   .     S
C75    O110    1.296   .     A
C76    C1085   1.192   1_554 S
C77    C580    1.192   .     S
C79    C114    1.394   .     S
C80    C134    1.390   .     S
Cu81   Cu82    2.702   .     S
Cu81   O108    1.935   .     S
Cu81   O101    1.978   .     S
Cu81   O110    1.935   .     S
Cu81   O106    1.978   .     S
Cu81   N95     2.030   .     S
Cu82   N96     2.030   .     S
Cu82   O111    1.935   .     S
Cu82   O107    1.978   .     S
Cu82   O109    1.935   .     S
Cu82   O105    1.978   .     S
C113   C116    1.475   .     S
C113   O163    1.307   .     A
C113   O157    1.299   .     A
C114   C116    1.414   .     A
C114   C125    1.449   .     S
C115   C136    1.406   .     A
C115   C135    1.414   .     A
C115   C124    1.475   .     S
C116   C134    1.406   .     A
C117   N152    1.369   .     A
C117   O168    1.389   .     S
C117   C456    1.442   1_545 S
C118   O158    1.381   .     S
C118   N151    1.376   .     A
C118   C287    1.442   .     S
C119   N152    1.369   .     A
C119   O159    1.389   .     S
C119   C454    1.442   1_545 S
C120   O160    1.381   .     S
C120   N151    1.376   .     A
C120   C285    1.442   .     S
C121   C134    1.446   .     S
C121   N153    1.156   .     T
C122   C135    1.449   .     S
C122   N154    1.155   .     T
C123   N155    1.156   .     T
C123   C136    1.446   .     S
C124   O162    1.299   .     A
C124   O161    1.307   .     A
C125   N156    1.155   .     T
C126   O168    1.414   .     S
C126   H143    1.109   .     S
C126   H139    1.109   .     S
C126   H144    1.109   .     S
C127   H146    1.108   .     S
C127   H147    1.114   .     S
C127   O158    1.412   .     S
C127   H145    1.109   .     S
C128   H149    1.109   .     S
C128   H148    1.109   .     S
C128   O159    1.414   .     S
C128   H150    1.109   .     S
C129   H141    1.108   .     S
C129   O160    1.412   .     S
C129   H142    1.114   .     S
C129   H140    1.109   .     S
C130   O164    1.296   .     A
C130   O167    1.295   .     A
C130   C132    1.412   .     S
C131   O165    1.295   .     A
C131   C133    1.412   .     S
C131   O166    1.296   .     A
C132   C1141   1.192   1_554 S
C133   C636    1.192   .     S
C135   C2      1.394   1_655 S
C136   C22     1.390   1_655 S
Cu137  Cu138   2.702   .     S
Cu137  O164    1.935   .     S
Cu137  O157    1.978   .     S
Cu137  O166    1.935   .     S
Cu137  O162    1.978   .     S
Cu137  N151    2.030   .     S
Cu138  N152    2.030   .     S
Cu138  O167    1.935   .     S
Cu138  O163    1.978   .     S
Cu138  O165    1.935   .     S
Cu138  O161    1.978   .     S
C169   C172    1.475   .     S
C169   O219    1.307   .     A
C169   O213    1.299   .     A
C170   C172    1.414   .     A
C170   C181    1.449   .     S
C170   C303    1.394   1_455 S
C171   C192    1.406   .     A
C171   C191    1.414   .     A
C171   C180    1.475   .     S
C172   C190    1.406   .     A
C173   N208    1.369   .     A
C173   O224    1.389   .     S
C174   O214    1.381   .     S
C174   N207    1.376   .     A
C174   C343    1.442   .     S
C175   N208    1.369   .     A
C175   O215    1.389   .     S
C176   O216    1.381   .     S
C176   N207    1.376   .     A
C176   C341    1.442   .     S
C177   C190    1.446   .     S
C177   N209    1.156   .     T
C178   C191    1.449   .     S
C178   N210    1.155   .     T
C179   N211    1.156   .     T
C179   C192    1.446   .     S
C180   O218    1.299   .     A
C180   O217    1.307   .     A
C181   N212    1.155   .     T
C182   O224    1.414   .     S
C182   H199    1.109   .     S
C182   H195    1.109   .     S
C182   H200    1.109   .     S
C183   H202    1.108   .     S
C183   H203    1.114   .     S
C183   O214    1.412   .     S
C183   H201    1.109   .     S
C184   H205    1.109   .     S
C184   H204    1.109   .     S
C184   O215    1.414   .     S
C184   H206    1.109   .     S
C185   H197    1.108   .     S
C185   O216    1.412   .     S
C185   H198    1.114   .     S
C185   H196    1.109   .     S
C186   O220    1.296   .     A
C186   O223    1.295   .     A
C186   C188    1.412   .     S
C187   O221    1.295   .     A
C187   C189    1.412   .     S
C187   O222    1.296   .     A
C188   C1197   1.192   1_554 S
C189   C692    1.192   .     S
C190   C304    1.390   1_455 S
C191   C226    1.394   .     S
C192   C246    1.390   .     S
Cu193  Cu194   2.702   .     S
Cu193  O220    1.935   .     S
Cu193  O213    1.978   .     S
Cu193  O222    1.935   .     S
Cu193  O218    1.978   .     S
Cu193  N207    2.030   .     S
Cu194  N208    2.030   .     S
Cu194  O223    1.935   .     S
Cu194  O219    1.978   .     S
Cu194  O221    1.935   .     S
Cu194  O217    1.978   .     S
C225   C228    1.475   .     S
C225   O275    1.307   .     A
C225   O269    1.299   .     A
C226   C228    1.414   .     A
C226   C237    1.449   .     S
C227   C248    1.406   .     A
C227   C247    1.414   .     A
C227   C236    1.475   .     S
C228   C246    1.406   .     A
C229   N264    1.369   .     A
C229   O280    1.389   .     S
C230   O270    1.381   .     S
C230   N263    1.376   .     A
C230   C399    1.442   .     S
C231   N264    1.369   .     A
C231   O271    1.389   .     S
C232   O272    1.381   .     S
C232   N263    1.376   .     A
C232   C397    1.442   .     S
C233   C246    1.446   .     S
C233   N265    1.156   .     T
C234   C247    1.449   .     S
C234   N266    1.155   .     T
C235   N267    1.156   .     T
C235   C248    1.446   .     S
C236   O274    1.299   .     A
C236   O273    1.307   .     A
C237   N268    1.155   .     T
C238   O280    1.414   .     S
C238   H255    1.109   .     S
C238   H251    1.109   .     S
C238   H256    1.109   .     S
C239   H258    1.108   .     S
C239   H259    1.114   .     S
C239   O270    1.412   .     S
C239   H257    1.109   .     S
C240   H261    1.109   .     S
C240   H260    1.109   .     S
C240   O271    1.414   .     S
C240   H262    1.109   .     S
C241   H253    1.108   .     S
C241   O272    1.412   .     S
C241   H254    1.114   .     S
C241   H252    1.109   .     S
C242   O276    1.296   .     A
C242   O279    1.295   .     A
C242   C244    1.412   .     S
C243   O277    1.295   .     A
C243   C245    1.412   .     S
C243   O278    1.296   .     A
C244   C1253   1.192   1_554 S
C245   C748    1.192   .     S
C247   C282    1.394   .     S
C248   C302    1.390   .     S
Cu249  Cu250   2.702   .     S
Cu249  O276    1.935   .     S
Cu249  O269    1.978   .     S
Cu249  O278    1.935   .     S
Cu249  O274    1.978   .     S
Cu249  N263    2.030   .     S
Cu250  N264    2.030   .     S
Cu250  O279    1.935   .     S
Cu250  O275    1.978   .     S
Cu250  O277    1.935   .     S
Cu250  O273    1.978   .     S
C281   C284    1.475   .     S
C281   O331    1.307   .     A
C281   O325    1.299   .     A
C282   C284    1.414   .     A
C282   C293    1.449   .     S
C283   C304    1.406   .     A
C283   C303    1.414   .     A
C283   C292    1.475   .     S
C284   C302    1.406   .     A
C285   N320    1.369   .     A
C285   O336    1.389   .     S
C286   O326    1.381   .     S
C286   N319    1.376   .     A
C286   C455    1.442   .     S
C287   N320    1.369   .     A
C287   O327    1.389   .     S
C288   O328    1.381   .     S
C288   N319    1.376   .     A
C288   C453    1.442   .     S
C289   C302    1.446   .     S
C289   N321    1.156   .     T
C290   C303    1.449   .     S
C290   N322    1.155   .     T
C291   N323    1.156   .     T
C291   C304    1.446   .     S
C292   O330    1.299   .     A
C292   O329    1.307   .     A
C293   N324    1.155   .     T
C294   O336    1.414   .     S
C294   H311    1.109   .     S
C294   H307    1.109   .     S
C294   H312    1.109   .     S
C295   H314    1.108   .     S
C295   H315    1.114   .     S
C295   O326    1.412   .     S
C295   H313    1.109   .     S
C296   H317    1.109   .     S
C296   H316    1.109   .     S
C296   O327    1.414   .     S
C296   H318    1.109   .     S
C297   H309    1.108   .     S
C297   O328    1.412   .     S
C297   H310    1.114   .     S
C297   H308    1.109   .     S
C298   O332    1.296   .     A
C298   O335    1.295   .     A
C298   C300    1.412   .     S
C299   O333    1.295   .     A
C299   C301    1.412   .     S
C299   O334    1.296   .     A
C300   C1309   1.192   1_554 S
C301   C804    1.192   .     S
C303   C170    1.394   1_655 S
C304   C190    1.390   1_655 S
Cu305  Cu306   2.702   .     S
Cu305  O332    1.935   .     S
Cu305  O325    1.978   .     S
Cu305  O334    1.935   .     S
Cu305  O330    1.978   .     S
Cu305  N319    2.030   .     S
Cu306  N320    2.030   .     S
Cu306  O335    1.935   .     S
Cu306  O331    1.978   .     S
Cu306  O333    1.935   .     S
Cu306  O329    1.978   .     S
C337   C340    1.475   .     S
C337   O387    1.307   .     A
C337   O381    1.299   .     A
C338   C340    1.414   .     A
C338   C349    1.449   .     S
C338   C471    1.394   1_455 S
C339   C360    1.406   .     A
C339   C359    1.414   .     A
C339   C348    1.475   .     S
C340   C358    1.406   .     A
C341   N376    1.369   .     A
C341   O392    1.389   .     S
C342   O382    1.381   .     S
C342   N375    1.376   .     A
C342   C7      1.442   1_565 S
C343   N376    1.369   .     A
C343   O383    1.389   .     S
C344   O384    1.381   .     S
C344   N375    1.376   .     A
C344   C5      1.442   1_565 S
C345   C358    1.446   .     S
C345   N377    1.156   .     T
C346   C359    1.449   .     S
C346   N378    1.155   .     T
C347   N379    1.156   .     T
C347   C360    1.446   .     S
C348   O386    1.299   .     A
C348   O385    1.307   .     A
C349   N380    1.155   .     T
C350   O392    1.414   .     S
C350   H367    1.109   .     S
C350   H363    1.109   .     S
C350   H368    1.109   .     S
C351   H370    1.108   .     S
C351   H371    1.114   .     S
C351   O382    1.412   .     S
C351   H369    1.109   .     S
C352   H373    1.109   .     S
C352   H372    1.109   .     S
C352   O383    1.414   .     S
C352   H374    1.109   .     S
C353   H365    1.108   .     S
C353   O384    1.412   .     S
C353   H366    1.114   .     S
C353   H364    1.109   .     S
C354   O388    1.296   .     A
C354   O391    1.295   .     A
C354   C356    1.412   .     S
C355   O389    1.295   .     A
C355   C357    1.412   .     S
C355   O390    1.296   .     A
C356   C1365   1.192   1_554 S
C357   C860    1.192   .     S
C358   C472    1.390   1_455 S
C359   C394    1.394   .     S
C360   C414    1.390   .     S
Cu361  Cu362   2.702   .     S
Cu361  O388    1.935   .     S
Cu361  O381    1.978   .     S
Cu361  O390    1.935   .     S
Cu361  O386    1.978   .     S
Cu361  N375    2.030   .     S
Cu362  N376    2.030   .     S
Cu362  O391    1.935   .     S
Cu362  O387    1.978   .     S
Cu362  O389    1.935   .     S
Cu362  O385    1.978   .     S
C393   C396    1.475   .     S
C393   O443    1.307   .     A
C393   O437    1.299   .     A
C394   C396    1.414   .     A
C394   C405    1.449   .     S
C395   C416    1.406   .     A
C395   C415    1.414   .     A
C395   C404    1.475   .     S
C396   C414    1.406   .     A
C397   N432    1.369   .     A
C397   O448    1.389   .     S
C398   O438    1.381   .     S
C398   N431    1.376   .     A
C398   C63     1.442   1_565 S
C399   N432    1.369   .     A
C399   O439    1.389   .     S
C400   O440    1.381   .     S
C400   N431    1.376   .     A
C400   C61     1.442   1_565 S
C401   C414    1.446   .     S
C401   N433    1.156   .     T
C402   C415    1.449   .     S
C402   N434    1.155   .     T
C403   N435    1.156   .     T
C403   C416    1.446   .     S
C404   O442    1.299   .     A
C404   O441    1.307   .     A
C405   N436    1.155   .     T
C406   O448    1.414   .     S
C406   H423    1.109   .     S
C406   H419    1.109   .     S
C406   H424    1.109   .     S
C407   H426    1.108   .     S
C407   H427    1.114   .     S
C407   O438    1.412   .     S
C407   H425    1.109   .     S
C408   H429    1.109   .     S
C408   H428    1.109   .     S
C408   O439    1.414   .     S
C408   H430    1.109   .     S
C409   H421    1.108   .     S
C409   O440    1.412   .     S
C409   H422    1.114   .     S
C409   H420    1.109   .     S
C410   O444    1.296   .     A
C410   O447    1.295   .     A
C410   C412    1.412   .     S
C411   O445    1.295   .     A
C411   C413    1.412   .     S
C411   O446    1.296   .     A
C412   C1421   1.192   1_554 S
C413   C916    1.192   .     S
C415   C450    1.394   .     S
C416   C470    1.390   .     S
Cu417  Cu418   2.702   .     S
Cu417  O444    1.935   .     S
Cu417  O437    1.978   .     S
Cu417  O446    1.935   .     S
Cu417  O442    1.978   .     S
Cu417  N431    2.030   .     S
Cu418  N432    2.030   .     S
Cu418  O447    1.935   .     S
Cu418  O443    1.978   .     S
Cu418  O445    1.935   .     S
Cu418  O441    1.978   .     S
C449   C452    1.475   .     S
C449   O499    1.307   .     A
C449   O493    1.299   .     A
C450   C452    1.414   .     A
C450   C461    1.449   .     S
C451   C472    1.406   .     A
C451   C471    1.414   .     A
C451   C460    1.475   .     S
C452   C470    1.406   .     A
C453   N488    1.369   .     A
C453   O504    1.389   .     S
C454   O494    1.381   .     S
C454   N487    1.376   .     A
C454   C119    1.442   1_565 S
C455   N488    1.369   .     A
C455   O495    1.389   .     S
C456   O496    1.381   .     S
C456   N487    1.376   .     A
C456   C117    1.442   1_565 S
C457   C470    1.446   .     S
C457   N489    1.156   .     T
C458   C471    1.449   .     S
C458   N490    1.155   .     T
C459   N491    1.156   .     T
C459   C472    1.446   .     S
C460   O498    1.299   .     A
C460   O497    1.307   .     A
C461   N492    1.155   .     T
C462   O504    1.414   .     S
C462   H479    1.109   .     S
C462   H475    1.109   .     S
C462   H480    1.109   .     S
C463   H482    1.108   .     S
C463   H483    1.114   .     S
C463   O494    1.412   .     S
C463   H481    1.109   .     S
C464   H485    1.109   .     S
C464   H484    1.109   .     S
C464   O495    1.414   .     S
C464   H486    1.109   .     S
C465   H477    1.108   .     S
C465   O496    1.412   .     S
C465   H478    1.114   .     S
C465   H476    1.109   .     S
C466   O500    1.296   .     A
C466   O503    1.295   .     A
C466   C468    1.412   .     S
C467   O501    1.295   .     A
C467   C469    1.412   .     S
C467   O502    1.296   .     A
C468   C1477   1.192   1_554 S
C469   C972    1.192   .     S
C471   C338    1.394   1_655 S
C472   C358    1.390   1_655 S
Cu473  Cu474   2.702   .     S
Cu473  O500    1.935   .     S
Cu473  O493    1.978   .     S
Cu473  O502    1.935   .     S
Cu473  O498    1.978   .     S
Cu473  N487    2.030   .     S
Cu474  N488    2.030   .     S
Cu474  O503    1.935   .     S
Cu474  O499    1.978   .     S
Cu474  O501    1.935   .     S
Cu474  O497    1.978   .     S
C505   C508    1.475   .     S
C505   O555    1.307   .     A
C505   O549    1.299   .     A
C506   C508    1.414   .     A
C506   C517    1.449   .     S
C506   C639    1.394   1_455 S
C507   C528    1.406   .     A
C507   C527    1.414   .     A
C507   C516    1.475   .     S
C508   C526    1.406   .     A
C509   N544    1.369   .     A
C509   O560    1.389   .     S
C509   C848    1.442   1_545 S
C510   O550    1.381   .     S
C510   N543    1.376   .     A
C510   C679    1.442   .     S
C511   N544    1.369   .     A
C511   O551    1.389   .     S
C511   C846    1.442   1_545 S
C512   O552    1.381   .     S
C512   N543    1.376   .     A
C512   C677    1.442   .     S
C513   C526    1.446   .     S
C513   N545    1.156   .     T
C514   C527    1.449   .     S
C514   N546    1.155   .     T
C515   N547    1.156   .     T
C515   C528    1.446   .     S
C516   O554    1.299   .     A
C516   O553    1.307   .     A
C517   N548    1.155   .     T
C518   O560    1.414   .     S
C518   H535    1.109   .     S
C518   H531    1.109   .     S
C518   H536    1.109   .     S
C519   H538    1.108   .     S
C519   H539    1.114   .     S
C519   O550    1.412   .     S
C519   H537    1.109   .     S
C520   H541    1.109   .     S
C520   H540    1.109   .     S
C520   O551    1.414   .     S
C520   H542    1.109   .     S
C521   H533    1.108   .     S
C521   O552    1.412   .     S
C521   H534    1.114   .     S
C521   H532    1.109   .     S
C522   O556    1.296   .     A
C522   O559    1.295   .     A
C522   C524    1.412   .     S
C523   O557    1.295   .     A
C523   C525    1.412   .     S
C523   O558    1.296   .     A
C525   C1028   1.192   .     S
C526   C640    1.390   1_455 S
C527   C562    1.394   .     S
C528   C582    1.390   .     S
Cu529  Cu530   2.702   .     S
Cu529  O556    1.935   .     S
Cu529  O549    1.978   .     S
Cu529  O558    1.935   .     S
Cu529  O554    1.978   .     S
Cu529  N543    2.030   .     S
Cu530  N544    2.030   .     S
Cu530  O559    1.935   .     S
Cu530  O555    1.978   .     S
Cu530  O557    1.935   .     S
Cu530  O553    1.978   .     S
C561   C564    1.475   .     S
C561   O611    1.307   .     A
C561   O605    1.299   .     A
C562   C564    1.414   .     A
C562   C573    1.449   .     S
C563   C584    1.406   .     A
C563   C583    1.414   .     A
C563   C572    1.475   .     S
C564   C582    1.406   .     A
C565   N600    1.369   .     A
C565   O616    1.389   .     S
C565   C904    1.442   1_545 S
C566   O606    1.381   .     S
C566   N599    1.376   .     A
C566   C735    1.442   .     S
C567   N600    1.369   .     A
C567   O607    1.389   .     S
C567   C902    1.442   1_545 S
C568   O608    1.381   .     S
C568   N599    1.376   .     A
C568   C733    1.442   .     S
C569   C582    1.446   .     S
C569   N601    1.156   .     T
C570   C583    1.449   .     S
C570   N602    1.155   .     T
C571   N603    1.156   .     T
C571   C584    1.446   .     S
C572   O610    1.299   .     A
C572   O609    1.307   .     A
C573   N604    1.155   .     T
C574   O616    1.414   .     S
C574   H591    1.109   .     S
C574   H587    1.109   .     S
C574   H592    1.109   .     S
C575   H594    1.108   .     S
C575   H595    1.114   .     S
C575   O606    1.412   .     S
C575   H593    1.109   .     S
C576   H597    1.109   .     S
C576   H596    1.109   .     S
C576   O607    1.414   .     S
C576   H598    1.109   .     S
C577   H589    1.108   .     S
C577   O608    1.412   .     S
C577   H590    1.114   .     S
C577   H588    1.109   .     S
C578   O612    1.296   .     A
C578   O615    1.295   .     A
C578   C580    1.412   .     S
C579   O613    1.295   .     A
C579   C581    1.412   .     S
C579   O614    1.296   .     A
C581   C1084   1.192   .     S
C583   C618    1.394   .     S
C584   C638    1.390   .     S
Cu585  Cu586   2.702   .     S
Cu585  O612    1.935   .     S
Cu585  O605    1.978   .     S
Cu585  O614    1.935   .     S
Cu585  O610    1.978   .     S
Cu585  N599    2.030   .     S
Cu586  N600    2.030   .     S
Cu586  O615    1.935   .     S
Cu586  O611    1.978   .     S
Cu586  O613    1.935   .     S
Cu586  O609    1.978   .     S
C617   C620    1.475   .     S
C617   O667    1.307   .     A
C617   O661    1.299   .     A
C618   C620    1.414   .     A
C618   C629    1.449   .     S
C619   C640    1.406   .     A
C619   C639    1.414   .     A
C619   C628    1.475   .     S
C620   C638    1.406   .     A
C621   N656    1.369   .     A
C621   O672    1.389   .     S
C621   C960    1.442   1_545 S
C622   O662    1.381   .     S
C622   N655    1.376   .     A
C622   C791    1.442   .     S
C623   N656    1.369   .     A
C623   O663    1.389   .     S
C623   C958    1.442   1_545 S
C624   O664    1.381   .     S
C624   N655    1.376   .     A
C624   C789    1.442   .     S
C625   C638    1.446   .     S
C625   N657    1.156   .     T
C626   C639    1.449   .     S
C626   N658    1.155   .     T
C627   N659    1.156   .     T
C627   C640    1.446   .     S
C628   O666    1.299   .     A
C628   O665    1.307   .     A
C629   N660    1.155   .     T
C630   O672    1.414   .     S
C630   H647    1.109   .     S
C630   H643    1.109   .     S
C630   H648    1.109   .     S
C631   H650    1.108   .     S
C631   H651    1.114   .     S
C631   O662    1.412   .     S
C631   H649    1.109   .     S
C632   H653    1.109   .     S
C632   H652    1.109   .     S
C632   O663    1.414   .     S
C632   H654    1.109   .     S
C633   H645    1.108   .     S
C633   O664    1.412   .     S
C633   H646    1.114   .     S
C633   H644    1.109   .     S
C634   O668    1.296   .     A
C634   O671    1.295   .     A
C634   C636    1.412   .     S
C635   O669    1.295   .     A
C635   C637    1.412   .     S
C635   O670    1.296   .     A
C637   C1140   1.192   .     S
C639   C506    1.394   1_655 S
C640   C526    1.390   1_655 S
Cu641  Cu642   2.702   .     S
Cu641  O668    1.935   .     S
Cu641  O661    1.978   .     S
Cu641  O670    1.935   .     S
Cu641  O666    1.978   .     S
Cu641  N655    2.030   .     S
Cu642  N656    2.030   .     S
Cu642  O671    1.935   .     S
Cu642  O667    1.978   .     S
Cu642  O669    1.935   .     S
Cu642  O665    1.978   .     S
C673   C676    1.475   .     S
C673   O723    1.307   .     A
C673   O717    1.299   .     A
C674   C676    1.414   .     A
C674   C685    1.449   .     S
C674   C807    1.394   1_455 S
C675   C696    1.406   .     A
C675   C695    1.414   .     A
C675   C684    1.475   .     S
C676   C694    1.406   .     A
C677   N712    1.369   .     A
C677   O728    1.389   .     S
C678   O718    1.381   .     S
C678   N711    1.376   .     A
C678   C847    1.442   .     S
C679   N712    1.369   .     A
C679   O719    1.389   .     S
C680   O720    1.381   .     S
C680   N711    1.376   .     A
C680   C845    1.442   .     S
C681   C694    1.446   .     S
C681   N713    1.156   .     T
C682   C695    1.449   .     S
C682   N714    1.155   .     T
C683   N715    1.156   .     T
C683   C696    1.446   .     S
C684   O722    1.299   .     A
C684   O721    1.307   .     A
C685   N716    1.155   .     T
C686   O728    1.414   .     S
C686   H703    1.109   .     S
C686   H699    1.109   .     S
C686   H704    1.109   .     S
C687   H706    1.108   .     S
C687   H707    1.114   .     S
C687   O718    1.412   .     S
C687   H705    1.109   .     S
C688   H709    1.109   .     S
C688   H708    1.109   .     S
C688   O719    1.414   .     S
C688   H710    1.109   .     S
C689   H701    1.108   .     S
C689   O720    1.412   .     S
C689   H702    1.114   .     S
C689   H700    1.109   .     S
C690   O724    1.296   .     A
C690   O727    1.295   .     A
C690   C692    1.412   .     S
C691   O725    1.295   .     A
C691   C693    1.412   .     S
C691   O726    1.296   .     A
C693   C1196   1.192   .     S
C694   C808    1.390   1_455 S
C695   C730    1.394   .     S
C696   C750    1.390   .     S
Cu697  Cu698   2.702   .     S
Cu697  O724    1.935   .     S
Cu697  O717    1.978   .     S
Cu697  O726    1.935   .     S
Cu697  O722    1.978   .     S
Cu697  N711    2.030   .     S
Cu698  N712    2.030   .     S
Cu698  O727    1.935   .     S
Cu698  O723    1.978   .     S
Cu698  O725    1.935   .     S
Cu698  O721    1.978   .     S
C729   C732    1.475   .     S
C729   O779    1.307   .     A
C729   O773    1.299   .     A
C730   C732    1.414   .     A
C730   C741    1.449   .     S
C731   C752    1.406   .     A
C731   C751    1.414   .     A
C731   C740    1.475   .     S
C732   C750    1.406   .     A
C733   N768    1.369   .     A
C733   O784    1.389   .     S
C734   O774    1.381   .     S
C734   N767    1.376   .     A
C734   C903    1.442   .     S
C735   N768    1.369   .     A
C735   O775    1.389   .     S
C736   O776    1.381   .     S
C736   N767    1.376   .     A
C736   C901    1.442   .     S
C737   C750    1.446   .     S
C737   N769    1.156   .     T
C738   C751    1.449   .     S
C738   N770    1.155   .     T
C739   N771    1.156   .     T
C739   C752    1.446   .     S
C740   O778    1.299   .     A
C740   O777    1.307   .     A
C741   N772    1.155   .     T
C742   O784    1.414   .     S
C742   H759    1.109   .     S
C742   H755    1.109   .     S
C742   H760    1.109   .     S
C743   H762    1.108   .     S
C743   H763    1.114   .     S
C743   O774    1.412   .     S
C743   H761    1.109   .     S
C744   H765    1.109   .     S
C744   H764    1.109   .     S
C744   O775    1.414   .     S
C744   H766    1.109   .     S
C745   H757    1.108   .     S
C745   O776    1.412   .     S
C745   H758    1.114   .     S
C745   H756    1.109   .     S
C746   O780    1.296   .     A
C746   O783    1.295   .     A
C746   C748    1.412   .     S
C747   O781    1.295   .     A
C747   C749    1.412   .     S
C747   O782    1.296   .     A
C749   C1252   1.192   .     S
C751   C786    1.394   .     S
C752   C806    1.390   .     S
Cu753  Cu754   2.702   .     S
Cu753  O780    1.935   .     S
Cu753  O773    1.978   .     S
Cu753  O782    1.935   .     S
Cu753  O778    1.978   .     S
Cu753  N767    2.030   .     S
Cu754  N768    2.030   .     S
Cu754  O783    1.935   .     S
Cu754  O779    1.978   .     S
Cu754  O781    1.935   .     S
Cu754  O777    1.978   .     S
C785   C788    1.475   .     S
C785   O835    1.307   .     A
C785   O829    1.299   .     A
C786   C788    1.414   .     A
C786   C797    1.449   .     S
C787   C808    1.406   .     A
C787   C807    1.414   .     A
C787   C796    1.475   .     S
C788   C806    1.406   .     A
C789   N824    1.369   .     A
C789   O840    1.389   .     S
C790   O830    1.381   .     S
C790   N823    1.376   .     A
C790   C959    1.442   .     S
C791   N824    1.369   .     A
C791   O831    1.389   .     S
C792   O832    1.381   .     S
C792   N823    1.376   .     A
C792   C957    1.442   .     S
C793   C806    1.446   .     S
C793   N825    1.156   .     T
C794   C807    1.449   .     S
C794   N826    1.155   .     T
C795   N827    1.156   .     T
C795   C808    1.446   .     S
C796   O834    1.299   .     A
C796   O833    1.307   .     A
C797   N828    1.155   .     T
C798   O840    1.414   .     S
C798   H815    1.109   .     S
C798   H811    1.109   .     S
C798   H816    1.109   .     S
C799   H818    1.108   .     S
C799   H819    1.114   .     S
C799   O830    1.412   .     S
C799   H817    1.109   .     S
C800   H821    1.109   .     S
C800   H820    1.109   .     S
C800   O831    1.414   .     S
C800   H822    1.109   .     S
C801   H813    1.108   .     S
C801   O832    1.412   .     S
C801   H814    1.114   .     S
C801   H812    1.109   .     S
C802   O836    1.296   .     A
C802   O839    1.295   .     A
C802   C804    1.412   .     S
C803   O837    1.295   .     A
C803   C805    1.412   .     S
C803   O838    1.296   .     A
C805   C1308   1.192   .     S
C807   C674    1.394   1_655 S
C808   C694    1.390   1_655 S
Cu809  Cu810   2.702   .     S
Cu809  O836    1.935   .     S
Cu809  O829    1.978   .     S
Cu809  O838    1.935   .     S
Cu809  O834    1.978   .     S
Cu809  N823    2.030   .     S
Cu810  N824    2.030   .     S
Cu810  O839    1.935   .     S
Cu810  O835    1.978   .     S
Cu810  O837    1.935   .     S
Cu810  O833    1.978   .     S
C841   C844    1.475   .     S
C841   O891    1.307   .     A
C841   O885    1.299   .     A
C842   C844    1.414   .     A
C842   C853    1.449   .     S
C842   C975    1.394   1_455 S
C843   C864    1.406   .     A
C843   C863    1.414   .     A
C843   C852    1.475   .     S
C844   C862    1.406   .     A
C845   N880    1.369   .     A
C845   O896    1.389   .     S
C846   O886    1.381   .     S
C846   N879    1.376   .     A
C846   C511    1.442   1_565 S
C847   N880    1.369   .     A
C847   O887    1.389   .     S
C848   O888    1.381   .     S
C848   N879    1.376   .     A
C848   C509    1.442   1_565 S
C849   C862    1.446   .     S
C849   N881    1.156   .     T
C850   C863    1.449   .     S
C850   N882    1.155   .     T
C851   N883    1.156   .     T
C851   C864    1.446   .     S
C852   O890    1.299   .     A
C852   O889    1.307   .     A
C853   N884    1.155   .     T
C854   O896    1.414   .     S
C854   H871    1.109   .     S
C854   H867    1.109   .     S
C854   H872    1.109   .     S
C855   H874    1.108   .     S
C855   H875    1.114   .     S
C855   O886    1.412   .     S
C855   H873    1.109   .     S
C856   H877    1.109   .     S
C856   H876    1.109   .     S
C856   O887    1.414   .     S
C856   H878    1.109   .     S
C857   H869    1.108   .     S
C857   O888    1.412   .     S
C857   H870    1.114   .     S
C857   H868    1.109   .     S
C858   O892    1.296   .     A
C858   O895    1.295   .     A
C858   C860    1.412   .     S
C859   O893    1.295   .     A
C859   C861    1.412   .     S
C859   O894    1.296   .     A
C861   C1364   1.192   .     S
C862   C976    1.390   1_455 S
C863   C898    1.394   .     S
C864   C918    1.390   .     S
Cu865  Cu866   2.702   .     S
Cu865  O892    1.935   .     S
Cu865  O885    1.978   .     S
Cu865  O894    1.935   .     S
Cu865  O890    1.978   .     S
Cu865  N879    2.030   .     S
Cu866  N880    2.030   .     S
Cu866  O895    1.935   .     S
Cu866  O891    1.978   .     S
Cu866  O893    1.935   .     S
Cu866  O889    1.978   .     S
C897   C900    1.475   .     S
C897   O947    1.307   .     A
C897   O941    1.299   .     A
C898   C900    1.414   .     A
C898   C909    1.449   .     S
C899   C920    1.406   .     A
C899   C919    1.414   .     A
C899   C908    1.475   .     S
C900   C918    1.406   .     A
C901   N936    1.369   .     A
C901   O952    1.389   .     S
C902   O942    1.381   .     S
C902   N935    1.376   .     A
C902   C567    1.442   1_565 S
C903   N936    1.369   .     A
C903   O943    1.389   .     S
C904   O944    1.381   .     S
C904   N935    1.376   .     A
C904   C565    1.442   1_565 S
C905   C918    1.446   .     S
C905   N937    1.156   .     T
C906   C919    1.449   .     S
C906   N938    1.155   .     T
C907   N939    1.156   .     T
C907   C920    1.446   .     S
C908   O946    1.299   .     A
C908   O945    1.307   .     A
C909   N940    1.155   .     T
C910   O952    1.414   .     S
C910   H927    1.109   .     S
C910   H923    1.109   .     S
C910   H928    1.109   .     S
C911   H930    1.108   .     S
C911   H931    1.114   .     S
C911   O942    1.412   .     S
C911   H929    1.109   .     S
C912   H933    1.109   .     S
C912   H932    1.109   .     S
C912   O943    1.414   .     S
C912   H934    1.109   .     S
C913   H925    1.108   .     S
C913   O944    1.412   .     S
C913   H926    1.114   .     S
C913   H924    1.109   .     S
C914   O948    1.296   .     A
C914   O951    1.295   .     A
C914   C916    1.412   .     S
C915   O949    1.295   .     A
C915   C917    1.412   .     S
C915   O950    1.296   .     A
C917   C1420   1.192   .     S
C919   C954    1.394   .     S
C920   C974    1.390   .     S
Cu921  Cu922   2.702   .     S
Cu921  O948    1.935   .     S
Cu921  O941    1.978   .     S
Cu921  O950    1.935   .     S
Cu921  O946    1.978   .     S
Cu921  N935    2.030   .     S
Cu922  N936    2.030   .     S
Cu922  O951    1.935   .     S
Cu922  O947    1.978   .     S
Cu922  O949    1.935   .     S
Cu922  O945    1.978   .     S
C953   C956    1.475   .     S
C953   O1003   1.307   .     A
C953   O997    1.299   .     A
C954   C956    1.414   .     A
C954   C965    1.449   .     S
C955   C976    1.406   .     A
C955   C975    1.414   .     A
C955   C964    1.475   .     S
C956   C974    1.406   .     A
C957   N992    1.369   .     A
C957   O1008   1.389   .     S
C958   O998    1.381   .     S
C958   N991    1.376   .     A
C958   C623    1.442   1_565 S
C959   N992    1.369   .     A
C959   O999    1.389   .     S
C960   O1000   1.381   .     S
C960   N991    1.376   .     A
C960   C621    1.442   1_565 S
C961   C974    1.446   .     S
C961   N993    1.156   .     T
C962   C975    1.449   .     S
C962   N994    1.155   .     T
C963   N995    1.156   .     T
C963   C976    1.446   .     S
C964   O1002   1.299   .     A
C964   O1001   1.307   .     A
C965   N996    1.155   .     T
C966   O1008   1.414   .     S
C966   H983    1.109   .     S
C966   H979    1.109   .     S
C966   H984    1.109   .     S
C967   H986    1.108   .     S
C967   H987    1.114   .     S
C967   O998    1.412   .     S
C967   H985    1.109   .     S
C968   H989    1.109   .     S
C968   H988    1.109   .     S
C968   O999    1.414   .     S
C968   H990    1.109   .     S
C969   H981    1.108   .     S
C969   O1000   1.412   .     S
C969   H982    1.114   .     S
C969   H980    1.109   .     S
C970   O1004   1.296   .     A
C970   O1007   1.295   .     A
C970   C972    1.412   .     S
C971   O1005   1.295   .     A
C971   C973    1.412   .     S
C971   O1006   1.296   .     A
C973   C1476   1.192   .     S
C975   C842    1.394   1_655 S
C976   C862    1.390   1_655 S
Cu977  Cu978   2.702   .     S
Cu977  O1004   1.935   .     S
Cu977  O997    1.978   .     S
Cu977  O1006   1.935   .     S
Cu977  O1002   1.978   .     S
Cu977  N991    2.030   .     S
Cu978  N992    2.030   .     S
Cu978  O1007   1.935   .     S
Cu978  O1003   1.978   .     S
Cu978  O1005   1.935   .     S
Cu978  O1001   1.978   .     S
C1009  C1012   1.475   .     S
C1009  O1059   1.307   .     A
C1009  O1053   1.299   .     A
C1010  C1012   1.414   .     A
C1010  C1021   1.449   .     S
C1010  C1143   1.394   1_455 S
C1011  C1032   1.406   .     A
C1011  C1031   1.414   .     A
C1011  C1020   1.475   .     S
C1012  C1030   1.406   .     A
C1013  N1048   1.369   .     A
C1013  O1064   1.389   .     S
C1013  C1352   1.442   1_545 S
C1014  O1054   1.381   .     S
C1014  N1047   1.376   .     A
C1014  C1183   1.442   .     S
C1015  N1048   1.369   .     A
C1015  O1055   1.389   .     S
C1015  C1350   1.442   1_545 S
C1016  O1056   1.381   .     S
C1016  N1047   1.376   .     A
C1016  C1181   1.442   .     S
C1017  C1030   1.446   .     S
C1017  N1049   1.156   .     T
C1018  C1031   1.449   .     S
C1018  N1050   1.155   .     T
C1019  N1051   1.156   .     T
C1019  C1032   1.446   .     S
C1020  O1058   1.299   .     A
C1020  O1057   1.307   .     A
C1021  N1052   1.155   .     T
C1022  O1064   1.414   .     S
C1022  H1039   1.109   .     S
C1022  H1035   1.109   .     S
C1022  H1040   1.109   .     S
C1023  H1042   1.108   .     S
C1023  H1043   1.114   .     S
C1023  O1054   1.412   .     S
C1023  H1041   1.109   .     S
C1024  H1045   1.109   .     S
C1024  H1044   1.109   .     S
C1024  O1055   1.414   .     S
C1024  H1046   1.109   .     S
C1025  H1037   1.108   .     S
C1025  O1056   1.412   .     S
C1025  H1038   1.114   .     S
C1025  H1036   1.109   .     S
C1026  O1060   1.296   .     A
C1026  O1063   1.295   .     A
C1026  C1028   1.412   .     S
C1027  O1061   1.295   .     A
C1027  C1029   1.412   .     S
C1027  O1062   1.296   .     A
C1029  C20     1.192   1_556 S
C1030  C1144   1.390   1_455 S
C1031  C1066   1.394   .     S
C1032  C1086   1.390   .     S
Cu1033 Cu1034  2.702   .     S
Cu1033 O1060   1.935   .     S
Cu1033 O1053   1.978   .     S
Cu1033 O1062   1.935   .     S
Cu1033 O1058   1.978   .     S
Cu1033 N1047   2.030   .     S
Cu1034 N1048   2.030   .     S
Cu1034 O1063   1.935   .     S
Cu1034 O1059   1.978   .     S
Cu1034 O1061   1.935   .     S
Cu1034 O1057   1.978   .     S
C1065  C1068   1.475   .     S
C1065  O1115   1.307   .     A
C1065  O1109   1.299   .     A
C1066  C1068   1.414   .     A
C1066  C1077   1.449   .     S
C1067  C1088   1.406   .     A
C1067  C1087   1.414   .     A
C1067  C1076   1.475   .     S
C1068  C1086   1.406   .     A
C1069  N1104   1.369   .     A
C1069  O1120   1.389   .     S
C1069  C1408   1.442   1_545 S
C1070  O1110   1.381   .     S
C1070  N1103   1.376   .     A
C1070  C1239   1.442   .     S
C1071  N1104   1.369   .     A
C1071  O1111   1.389   .     S
C1071  C1406   1.442   1_545 S
C1072  O1112   1.381   .     S
C1072  N1103   1.376   .     A
C1072  C1237   1.442   .     S
C1073  C1086   1.446   .     S
C1073  N1105   1.156   .     T
C1074  C1087   1.449   .     S
C1074  N1106   1.155   .     T
C1075  N1107   1.156   .     T
C1075  C1088   1.446   .     S
C1076  O1114   1.299   .     A
C1076  O1113   1.307   .     A
C1077  N1108   1.155   .     T
C1078  O1120   1.414   .     S
C1078  H1095   1.109   .     S
C1078  H1091   1.109   .     S
C1078  H1096   1.109   .     S
C1079  H1098   1.108   .     S
C1079  H1099   1.114   .     S
C1079  O1110   1.412   .     S
C1079  H1097   1.109   .     S
C1080  H1101   1.109   .     S
C1080  H1100   1.109   .     S
C1080  O1111   1.414   .     S
C1080  H1102   1.109   .     S
C1081  H1093   1.108   .     S
C1081  O1112   1.412   .     S
C1081  H1094   1.114   .     S
C1081  H1092   1.109   .     S
C1082  O1116   1.296   .     A
C1082  O1119   1.295   .     A
C1082  C1084   1.412   .     S
C1083  O1117   1.295   .     A
C1083  C1085   1.412   .     S
C1083  O1118   1.296   .     A
C1085  C76     1.192   1_556 S
C1087  C1122   1.394   .     S
C1088  C1142   1.390   .     S
Cu1089 Cu1090  2.702   .     S
Cu1089 O1116   1.935   .     S
Cu1089 O1109   1.978   .     S
Cu1089 O1118   1.935   .     S
Cu1089 O1114   1.978   .     S
Cu1089 N1103   2.030   .     S
Cu1090 N1104   2.030   .     S
Cu1090 O1119   1.935   .     S
Cu1090 O1115   1.978   .     S
Cu1090 O1117   1.935   .     S
Cu1090 O1113   1.978   .     S
C1121  C1124   1.475   .     S
C1121  O1171   1.307   .     A
C1121  O1165   1.299   .     A
C1122  C1124   1.414   .     A
C1122  C1133   1.449   .     S
C1123  C1144   1.406   .     A
C1123  C1143   1.414   .     A
C1123  C1132   1.475   .     S
C1124  C1142   1.406   .     A
C1125  N1160   1.369   .     A
C1125  O1176   1.389   .     S
C1125  C1464   1.442   1_545 S
C1126  O1166   1.381   .     S
C1126  N1159   1.376   .     A
C1126  C1295   1.442   .     S
C1127  N1160   1.369   .     A
C1127  O1167   1.389   .     S
C1127  C1462   1.442   1_545 S
C1128  O1168   1.381   .     S
C1128  N1159   1.376   .     A
C1128  C1293   1.442   .     S
C1129  C1142   1.446   .     S
C1129  N1161   1.156   .     T
C1130  C1143   1.449   .     S
C1130  N1162   1.155   .     T
C1131  N1163   1.156   .     T
C1131  C1144   1.446   .     S
C1132  O1170   1.299   .     A
C1132  O1169   1.307   .     A
C1133  N1164   1.155   .     T
C1134  O1176   1.414   .     S
C1134  H1151   1.109   .     S
C1134  H1147   1.109   .     S
C1134  H1152   1.109   .     S
C1135  H1154   1.108   .     S
C1135  H1155   1.114   .     S
C1135  O1166   1.412   .     S
C1135  H1153   1.109   .     S
C1136  H1157   1.109   .     S
C1136  H1156   1.109   .     S
C1136  O1167   1.414   .     S
C1136  H1158   1.109   .     S
C1137  H1149   1.108   .     S
C1137  O1168   1.412   .     S
C1137  H1150   1.114   .     S
C1137  H1148   1.109   .     S
C1138  O1172   1.296   .     A
C1138  O1175   1.295   .     A
C1138  C1140   1.412   .     S
C1139  O1173   1.295   .     A
C1139  C1141   1.412   .     S
C1139  O1174   1.296   .     A
C1141  C132    1.192   1_556 S
C1143  C1010   1.394   1_655 S
C1144  C1030   1.390   1_655 S
Cu1145 Cu1146  2.702   .     S
Cu1145 O1172   1.935   .     S
Cu1145 O1165   1.978   .     S
Cu1145 O1174   1.935   .     S
Cu1145 O1170   1.978   .     S
Cu1145 N1159   2.030   .     S
Cu1146 N1160   2.030   .     S
Cu1146 O1175   1.935   .     S
Cu1146 O1171   1.978   .     S
Cu1146 O1173   1.935   .     S
Cu1146 O1169   1.978   .     S
C1177  C1180   1.475   .     S
C1177  O1227   1.307   .     A
C1177  O1221   1.299   .     A
C1178  C1180   1.414   .     A
C1178  C1189   1.449   .     S
C1178  C1311   1.394   1_455 S
C1179  C1200   1.406   .     A
C1179  C1199   1.414   .     A
C1179  C1188   1.475   .     S
C1180  C1198   1.406   .     A
C1181  N1216   1.369   .     A
C1181  O1232   1.389   .     S
C1182  O1222   1.381   .     S
C1182  N1215   1.376   .     A
C1182  C1351   1.442   .     S
C1183  N1216   1.369   .     A
C1183  O1223   1.389   .     S
C1184  O1224   1.381   .     S
C1184  N1215   1.376   .     A
C1184  C1349   1.442   .     S
C1185  C1198   1.446   .     S
C1185  N1217   1.156   .     T
C1186  C1199   1.449   .     S
C1186  N1218   1.155   .     T
C1187  N1219   1.156   .     T
C1187  C1200   1.446   .     S
C1188  O1226   1.299   .     A
C1188  O1225   1.307   .     A
C1189  N1220   1.155   .     T
C1190  O1232   1.414   .     S
C1190  H1207   1.109   .     S
C1190  H1203   1.109   .     S
C1190  H1208   1.109   .     S
C1191  H1210   1.108   .     S
C1191  H1211   1.114   .     S
C1191  O1222   1.412   .     S
C1191  H1209   1.109   .     S
C1192  H1213   1.109   .     S
C1192  H1212   1.109   .     S
C1192  O1223   1.414   .     S
C1192  H1214   1.109   .     S
C1193  H1205   1.108   .     S
C1193  O1224   1.412   .     S
C1193  H1206   1.114   .     S
C1193  H1204   1.109   .     S
C1194  O1228   1.296   .     A
C1194  O1231   1.295   .     A
C1194  C1196   1.412   .     S
C1195  O1229   1.295   .     A
C1195  C1197   1.412   .     S
C1195  O1230   1.296   .     A
C1197  C188    1.192   1_556 S
C1198  C1312   1.390   1_455 S
C1199  C1234   1.394   .     S
C1200  C1254   1.390   .     S
Cu1201 Cu1202  2.702   .     S
Cu1201 O1228   1.935   .     S
Cu1201 O1221   1.978   .     S
Cu1201 O1230   1.935   .     S
Cu1201 O1226   1.978   .     S
Cu1201 N1215   2.030   .     S
Cu1202 N1216   2.030   .     S
Cu1202 O1231   1.935   .     S
Cu1202 O1227   1.978   .     S
Cu1202 O1229   1.935   .     S
Cu1202 O1225   1.978   .     S
C1233  C1236   1.475   .     S
C1233  O1283   1.307   .     A
C1233  O1277   1.299   .     A
C1234  C1236   1.414   .     A
C1234  C1245   1.449   .     S
C1235  C1256   1.406   .     A
C1235  C1255   1.414   .     A
C1235  C1244   1.475   .     S
C1236  C1254   1.406   .     A
C1237  N1272   1.369   .     A
C1237  O1288   1.389   .     S
C1238  O1278   1.381   .     S
C1238  N1271   1.376   .     A
C1238  C1407   1.442   .     S
C1239  N1272   1.369   .     A
C1239  O1279   1.389   .     S
C1240  O1280   1.381   .     S
C1240  N1271   1.376   .     A
C1240  C1405   1.442   .     S
C1241  C1254   1.446   .     S
C1241  N1273   1.156   .     T
C1242  C1255   1.449   .     S
C1242  N1274   1.155   .     T
C1243  N1275   1.156   .     T
C1243  C1256   1.446   .     S
C1244  O1282   1.299   .     A
C1244  O1281   1.307   .     A
C1245  N1276   1.155   .     T
C1246  O1288   1.414   .     S
C1246  H1263   1.109   .     S
C1246  H1259   1.109   .     S
C1246  H1264   1.109   .     S
C1247  H1266   1.108   .     S
C1247  H1267   1.114   .     S
C1247  O1278   1.412   .     S
C1247  H1265   1.109   .     S
C1248  H1269   1.109   .     S
C1248  H1268   1.109   .     S
C1248  O1279   1.414   .     S
C1248  H1270   1.109   .     S
C1249  H1261   1.108   .     S
C1249  O1280   1.412   .     S
C1249  H1262   1.114   .     S
C1249  H1260   1.109   .     S
C1250  O1284   1.296   .     A
C1250  O1287   1.295   .     A
C1250  C1252   1.412   .     S
C1251  O1285   1.295   .     A
C1251  C1253   1.412   .     S
C1251  O1286   1.296   .     A
C1253  C244    1.192   1_556 S
C1255  C1290   1.394   .     S
C1256  C1310   1.390   .     S
Cu1257 Cu1258  2.702   .     S
Cu1257 O1284   1.935   .     S
Cu1257 O1277   1.978   .     S
Cu1257 O1286   1.935   .     S
Cu1257 O1282   1.978   .     S
Cu1257 N1271   2.030   .     S
Cu1258 N1272   2.030   .     S
Cu1258 O1287   1.935   .     S
Cu1258 O1283   1.978   .     S
Cu1258 O1285   1.935   .     S
Cu1258 O1281   1.978   .     S
C1289  C1292   1.475   .     S
C1289  O1339   1.307   .     A
C1289  O1333   1.299   .     A
C1290  C1292   1.414   .     A
C1290  C1301   1.449   .     S
C1291  C1312   1.406   .     A
C1291  C1311   1.414   .     A
C1291  C1300   1.475   .     S
C1292  C1310   1.406   .     A
C1293  N1328   1.369   .     A
C1293  O1344   1.389   .     S
C1294  O1334   1.381   .     S
C1294  N1327   1.376   .     A
C1294  C1463   1.442   .     S
C1295  N1328   1.369   .     A
C1295  O1335   1.389   .     S
C1296  O1336   1.381   .     S
C1296  N1327   1.376   .     A
C1296  C1461   1.442   .     S
C1297  C1310   1.446   .     S
C1297  N1329   1.156   .     T
C1298  C1311   1.449   .     S
C1298  N1330   1.155   .     T
C1299  N1331   1.156   .     T
C1299  C1312   1.446   .     S
C1300  O1338   1.299   .     A
C1300  O1337   1.307   .     A
C1301  N1332   1.155   .     T
C1302  O1344   1.414   .     S
C1302  H1319   1.109   .     S
C1302  H1315   1.109   .     S
C1302  H1320   1.109   .     S
C1303  H1322   1.108   .     S
C1303  H1323   1.114   .     S
C1303  O1334   1.412   .     S
C1303  H1321   1.109   .     S
C1304  H1325   1.109   .     S
C1304  H1324   1.109   .     S
C1304  O1335   1.414   .     S
C1304  H1326   1.109   .     S
C1305  H1317   1.108   .     S
C1305  O1336   1.412   .     S
C1305  H1318   1.114   .     S
C1305  H1316   1.109   .     S
C1306  O1340   1.296   .     A
C1306  O1343   1.295   .     A
C1306  C1308   1.412   .     S
C1307  O1341   1.295   .     A
C1307  C1309   1.412   .     S
C1307  O1342   1.296   .     A
C1309  C300    1.192   1_556 S
C1311  C1178   1.394   1_655 S
C1312  C1198   1.390   1_655 S
Cu1313 Cu1314  2.702   .     S
Cu1313 O1340   1.935   .     S
Cu1313 O1333   1.978   .     S
Cu1313 O1342   1.935   .     S
Cu1313 O1338   1.978   .     S
Cu1313 N1327   2.030   .     S
Cu1314 N1328   2.030   .     S
Cu1314 O1343   1.935   .     S
Cu1314 O1339   1.978   .     S
Cu1314 O1341   1.935   .     S
Cu1314 O1337   1.978   .     S
C1345  C1348   1.475   .     S
C1345  O1395   1.307   .     A
C1345  O1389   1.299   .     A
C1346  C1348   1.414   .     A
C1346  C1357   1.449   .     S
C1346  C1479   1.394   1_455 S
C1347  C1368   1.406   .     A
C1347  C1367   1.414   .     A
C1347  C1356   1.475   .     S
C1348  C1366   1.406   .     A
C1349  N1384   1.369   .     A
C1349  O1400   1.389   .     S
C1350  O1390   1.381   .     S
C1350  N1383   1.376   .     A
C1350  C1015   1.442   1_565 S
C1351  N1384   1.369   .     A
C1351  O1391   1.389   .     S
C1352  O1392   1.381   .     S
C1352  N1383   1.376   .     A
C1352  C1013   1.442   1_565 S
C1353  C1366   1.446   .     S
C1353  N1385   1.156   .     T
C1354  C1367   1.449   .     S
C1354  N1386   1.155   .     T
C1355  N1387   1.156   .     T
C1355  C1368   1.446   .     S
C1356  O1394   1.299   .     A
C1356  O1393   1.307   .     A
C1357  N1388   1.155   .     T
C1358  O1400   1.414   .     S
C1358  H1375   1.109   .     S
C1358  H1371   1.109   .     S
C1358  H1376   1.109   .     S
C1359  H1378   1.108   .     S
C1359  H1379   1.114   .     S
C1359  O1390   1.412   .     S
C1359  H1377   1.109   .     S
C1360  H1381   1.109   .     S
C1360  H1380   1.109   .     S
C1360  O1391   1.414   .     S
C1360  H1382   1.109   .     S
C1361  H1373   1.108   .     S
C1361  O1392   1.412   .     S
C1361  H1374   1.114   .     S
C1361  H1372   1.109   .     S
C1362  O1396   1.296   .     A
C1362  O1399   1.295   .     A
C1362  C1364   1.412   .     S
C1363  O1397   1.295   .     A
C1363  C1365   1.412   .     S
C1363  O1398   1.296   .     A
C1365  C356    1.192   1_556 S
C1366  C1480   1.390   1_455 S
C1367  C1402   1.394   .     S
C1368  C1422   1.390   .     S
Cu1369 Cu1370  2.702   .     S
Cu1369 O1396   1.935   .     S
Cu1369 O1389   1.978   .     S
Cu1369 O1398   1.935   .     S
Cu1369 O1394   1.978   .     S
Cu1369 N1383   2.030   .     S
Cu1370 N1384   2.030   .     S
Cu1370 O1399   1.935   .     S
Cu1370 O1395   1.978   .     S
Cu1370 O1397   1.935   .     S
Cu1370 O1393   1.978   .     S
C1401  C1404   1.475   .     S
C1401  O1451   1.307   .     A
C1401  O1445   1.299   .     A
C1402  C1404   1.414   .     A
C1402  C1413   1.449   .     S
C1403  C1424   1.406   .     A
C1403  C1423   1.414   .     A
C1403  C1412   1.475   .     S
C1404  C1422   1.406   .     A
C1405  N1440   1.369   .     A
C1405  O1456   1.389   .     S
C1406  O1446   1.381   .     S
C1406  N1439   1.376   .     A
C1406  C1071   1.442   1_565 S
C1407  N1440   1.369   .     A
C1407  O1447   1.389   .     S
C1408  O1448   1.381   .     S
C1408  N1439   1.376   .     A
C1408  C1069   1.442   1_565 S
C1409  C1422   1.446   .     S
C1409  N1441   1.156   .     T
C1410  C1423   1.449   .     S
C1410  N1442   1.155   .     T
C1411  N1443   1.156   .     T
C1411  C1424   1.446   .     S
C1412  O1450   1.299   .     A
C1412  O1449   1.307   .     A
C1413  N1444   1.155   .     T
C1414  O1456   1.414   .     S
C1414  H1431   1.109   .     S
C1414  H1427   1.109   .     S
C1414  H1432   1.109   .     S
C1415  H1434   1.108   .     S
C1415  H1435   1.114   .     S
C1415  O1446   1.412   .     S
C1415  H1433   1.109   .     S
C1416  H1437   1.109   .     S
C1416  H1436   1.109   .     S
C1416  O1447   1.414   .     S
C1416  H1438   1.109   .     S
C1417  H1429   1.108   .     S
C1417  O1448   1.412   .     S
C1417  H1430   1.114   .     S
C1417  H1428   1.109   .     S
C1418  O1452   1.296   .     A
C1418  O1455   1.295   .     A
C1418  C1420   1.412   .     S
C1419  O1453   1.295   .     A
C1419  C1421   1.412   .     S
C1419  O1454   1.296   .     A
C1421  C412    1.192   1_556 S
C1423  C1458   1.394   .     S
C1424  C1478   1.390   .     S
Cu1425 Cu1426  2.702   .     S
Cu1425 O1452   1.935   .     S
Cu1425 O1445   1.978   .     S
Cu1425 O1454   1.935   .     S
Cu1425 O1450   1.978   .     S
Cu1425 N1439   2.030   .     S
Cu1426 N1440   2.030   .     S
Cu1426 O1455   1.935   .     S
Cu1426 O1451   1.978   .     S
Cu1426 O1453   1.935   .     S
Cu1426 O1449   1.978   .     S
C1457  C1460   1.475   .     S
C1457  O1507   1.307   .     A
C1457  O1501   1.299   .     A
C1458  C1460   1.414   .     A
C1458  C1469   1.449   .     S
C1459  C1480   1.406   .     A
C1459  C1479   1.414   .     A
C1459  C1468   1.475   .     S
C1460  C1478   1.406   .     A
C1461  N1496   1.369   .     A
C1461  O1512   1.389   .     S
C1462  O1502   1.381   .     S
C1462  N1495   1.376   .     A
C1462  C1127   1.442   1_565 S
C1463  N1496   1.369   .     A
C1463  O1503   1.389   .     S
C1464  O1504   1.381   .     S
C1464  N1495   1.376   .     A
C1464  C1125   1.442   1_565 S
C1465  C1478   1.446   .     S
C1465  N1497   1.156   .     T
C1466  C1479   1.449   .     S
C1466  N1498   1.155   .     T
C1467  N1499   1.156   .     T
C1467  C1480   1.446   .     S
C1468  O1506   1.299   .     A
C1468  O1505   1.307   .     A
C1469  N1500   1.155   .     T
C1470  O1512   1.414   .     S
C1470  H1487   1.109   .     S
C1470  H1483   1.109   .     S
C1470  H1488   1.109   .     S
C1471  H1490   1.108   .     S
C1471  H1491   1.114   .     S
C1471  O1502   1.412   .     S
C1471  H1489   1.109   .     S
C1472  H1493   1.109   .     S
C1472  H1492   1.109   .     S
C1472  O1503   1.414   .     S
C1472  H1494   1.109   .     S
C1473  H1485   1.108   .     S
C1473  O1504   1.412   .     S
C1473  H1486   1.114   .     S
C1473  H1484   1.109   .     S
C1474  O1508   1.296   .     A
C1474  O1511   1.295   .     A
C1474  C1476   1.412   .     S
C1475  O1509   1.295   .     A
C1475  C1477   1.412   .     S
C1475  O1510   1.296   .     A
C1477  C468    1.192   1_556 S
C1479  C1346   1.394   1_655 S
C1480  C1366   1.390   1_655 S
Cu1481 Cu1482  2.702   .     S
Cu1481 O1508   1.935   .     S
Cu1481 O1501   1.978   .     S
Cu1481 O1510   1.935   .     S
Cu1481 O1506   1.978   .     S
Cu1481 N1495   2.030   .     S
Cu1482 N1496   2.030   .     S
Cu1482 O1511   1.935   .     S
Cu1482 O1507   1.978   .     S
Cu1482 O1509   1.935   .     S
Cu1482 O1505   1.978   .     S
