data_str_m2_o1_o10_pcu_sym.133
_audit_creation_date              2020-01-03
_audit_creation_method            'Materials Studio'
_symmetry_space_group_name_H-M    'P1'
_symmetry_Int_Tables_number       1
_symmetry_cell_setting            triclinic
loop_
_symmetry_equiv_pos_as_xyz
  x,y,z
_cell_length_a                    26.0673
_cell_length_b                    32.4048
_cell_length_c                    28.6413
_cell_angle_alpha                 90.3085
_cell_angle_beta                  97.5292
_cell_angle_gamma                 90.9745
loop_
_atom_site_label
_atom_site_type_symbol
_atom_site_fract_x
_atom_site_fract_y
_atom_site_fract_z
_atom_site_U_iso_or_equiv
_atom_site_adp_type
_atom_site_occupancy
C1     C     0.16686   0.08746   0.16662   0.00000  Uiso   1.00
C2     C     0.16313   0.24588   0.16667   0.00000  Uiso   1.00
C3     C     0.06799   0.16644   0.15467   0.00000  Uiso   1.00
C4     C     0.26535   0.16703   0.17865   0.00000  Uiso   1.00
C5     C     0.01274   0.16545   0.14802   0.00000  Uiso   1.00
C6     C     0.32061   0.16828   0.18520   0.00000  Uiso   1.00
C7     C     0.13099   0.02173   0.12994   0.00000  Uiso   1.00
C8     C     0.17496   0.31290   0.20948   0.00000  Uiso   1.00
C9     C     0.13205   0.31185   0.12837   0.00000  Uiso   1.00
C10    C     0.18628   0.02141   0.20598   0.00000  Uiso   1.00
C11    C     0.15642   0.29058   0.16788   0.00000  Uiso   1.00
C12    C     0.16250   0.04286   0.16674   0.00000  Uiso   1.00
C13    C     0.13089   0.14403   0.02084   0.00000  Uiso   1.00
C14    C     0.20266   0.18913   0.31271   0.00000  Uiso   1.00
C15    C     0.12969   0.14436   0.30428   0.00000  Uiso   1.00
C16    C     0.20213   0.19008   0.02891   0.00000  Uiso   1.00
Cu17   Cu    0.16667   0.16667   0.21355   0.00000  Uiso   1.00
Cu18   Cu    0.16667   0.16666   0.11978   0.00000  Uiso   1.00
H19    H     0.32634   0.16193   0.11236   0.00000  Uiso   1.00
H20    H     0.00707   0.17197   0.22081   0.00000  Uiso   1.00
H21    H     0.10336   0.12568   0.03716   0.00000  Uiso   1.00
H22    H     0.23145   0.20701   0.29724   0.00000  Uiso   1.00
N23    N     0.16668   0.16668   0.28403   0.00000  Uiso   1.00
N24    N     0.16665   0.16666   0.04931   0.00000  Uiso   1.00
O25    O     0.16666   0.10655   0.20625   0.00000  Uiso   1.00
O26    O     0.16667   0.22678   0.12709   0.00000  Uiso   1.00
O27    O     0.16666   0.10654   0.12706   0.00000  Uiso   1.00
O28    O     0.16667   0.22679   0.20628   0.00000  Uiso   1.00
O29    O     0.09161   0.16667   0.19712   0.00000  Uiso   1.00
O30    O     0.24172   0.16666   0.13621   0.00000  Uiso   1.00
O31    O     0.09161   0.16666   0.11793   0.00000  Uiso   1.00
O32    O     0.24172   0.16667   0.21540   0.00000  Uiso   1.00
O33    O     0.10226   0.04269   0.09355   0.00000  Uiso   1.00
C34    C     0.05871   0.06119   0.10965   0.00000  Uiso   1.00
H35    H     0.04915   0.08887   0.08778   0.00000  Uiso   1.00
H36    H     0.06593   0.07221   0.14691   0.00000  Uiso   1.00
C37    C     0.01162   0.03186   0.10357   0.00000  Uiso   1.00
H38    H     0.00457   0.02054   0.06655   0.00000  Uiso   1.00
H39    H     0.01930   0.00515   0.12743   0.00000  Uiso   1.00
C40    C     0.29651   0.05330   0.11552   0.00000  Uiso   1.00
H41    H     0.30245   0.06460   0.15257   0.00000  Uiso   1.00
H42    H     0.26324   0.03111   0.11123   0.00000  Uiso   1.00
H43    H     0.28708   0.07977   0.09162   0.00000  Uiso   1.00
O44    O     0.18192   0.29476   0.25355   0.00000  Uiso   1.00
C45    C     0.13262   0.28614   0.26816   0.00000  Uiso   1.00
H46    H     0.13830   0.26359   0.29736   0.00000  Uiso   1.00
H47    H     0.10498   0.27112   0.23989   0.00000  Uiso   1.00
C48    C     0.10758   0.32469   0.28620   0.00000  Uiso   1.00
H49    H     0.13093   0.00263   0.31914   0.00000  Uiso   1.00
H50    H     0.10587   0.01626   0.25964   0.00000  Uiso   1.00
C51    C     0.05227   0.31525   0.29568   0.00000  Uiso   1.00
H52    H     0.02705   0.30864   0.26202   0.00000  Uiso   1.00
H53    H     0.03682   0.00897   0.31288   0.00000  Uiso   1.00
H54    H     0.05111   0.28812   0.31905   0.00000  Uiso   1.00
N55    N     0.10813   0.29028   0.08746   0.00000  Uiso   1.00
H56    H     0.10619   0.30628   0.05638   0.00000  Uiso   1.00
C57    C     0.06227   0.26547   0.09202   0.00000  Uiso   1.00
H58    H     0.02742   0.28062   0.07390   0.00000  Uiso   1.00
H59    H     0.05696   0.26041   0.12947   0.00000  Uiso   1.00
H60    H     0.06553   0.23518   0.07462   0.00000  Uiso   1.00
N61    N     0.22711   0.04046   0.23736   0.00000  Uiso   1.00
H62    H     0.26232   0.02671   0.23614   0.00000  Uiso   1.00
C63    C     0.21767   0.04861   0.28517   0.00000  Uiso   1.00
H64    H     0.22045   0.01985   0.30614   0.00000  Uiso   1.00
H65    H     0.17936   0.06259   0.28582   0.00000  Uiso   1.00
H66    H     0.24756   0.07077   0.30194   0.00000  Uiso   1.00
N67    N     0.09072   0.12115   0.27507   0.00000  Uiso   1.00
H68    H     0.10416   0.09631   0.25821   0.00000  Uiso   1.00
C69    C     0.04151   0.11271   0.29179   0.00000  Uiso   1.00
H70    H     0.04565   0.08827   0.31900   0.00000  Uiso   1.00
H71    H     0.01311   0.10137   0.26198   0.00000  Uiso   1.00
H72    H     0.02626   0.14125   0.30620   0.00000  Uiso   1.00
N73    N     0.23926   0.21492   0.05751   0.00000  Uiso   1.00
H74    H     0.27659   0.20568   0.05567   0.00000  Uiso   1.00
C75    C     0.23417   0.25893   0.05030   0.00000  Uiso   1.00
H76    H     0.25942   0.27574   0.07866   0.00000  Uiso   1.00
H77    H     0.19364   0.26832   0.05142   0.00000  Uiso   1.00
H78    H     0.24606   0.26782   0.01581   0.00000  Uiso   1.00
C79    C     0.50019   0.08746   0.16662   0.00000  Uiso   1.00
C80    C     0.49646   0.24588   0.16667   0.00000  Uiso   1.00
C81    C     0.40132   0.16644   0.15467   0.00000  Uiso   1.00
C82    C     0.59869   0.16703   0.17865   0.00000  Uiso   1.00
C83    C     0.34607   0.16545   0.14802   0.00000  Uiso   1.00
C84    C     0.65394   0.16828   0.18520   0.00000  Uiso   1.00
C85    C     0.46433   0.02173   0.12994   0.00000  Uiso   1.00
C86    C     0.50830   0.31290   0.20948   0.00000  Uiso   1.00
C87    C     0.46538   0.31185   0.12837   0.00000  Uiso   1.00
C88    C     0.51961   0.02141   0.20598   0.00000  Uiso   1.00
C89    C     0.48975   0.29058   0.16788   0.00000  Uiso   1.00
C90    C     0.49583   0.04286   0.16674   0.00000  Uiso   1.00
C91    C     0.46422   0.14403   0.02084   0.00000  Uiso   1.00
C92    C     0.53600   0.18913   0.31271   0.00000  Uiso   1.00
C93    C     0.46303   0.14436   0.30428   0.00000  Uiso   1.00
C94    C     0.53546   0.19008   0.02891   0.00000  Uiso   1.00
Cu95   Cu    0.50000   0.16667   0.21355   0.00000  Uiso   1.00
Cu96   Cu    0.50000   0.16666   0.11978   0.00000  Uiso   1.00
H97    H     0.65967   0.16193   0.11236   0.00000  Uiso   1.00
H98    H     0.34041   0.17197   0.22081   0.00000  Uiso   1.00
H99    H     0.43669   0.12568   0.03716   0.00000  Uiso   1.00
H100   H     0.56478   0.20701   0.29724   0.00000  Uiso   1.00
N101   N     0.50001   0.16668   0.28403   0.00000  Uiso   1.00
N102   N     0.49999   0.16666   0.04931   0.00000  Uiso   1.00
O103   O     0.50000   0.10655   0.20625   0.00000  Uiso   1.00
O104   O     0.50000   0.22678   0.12709   0.00000  Uiso   1.00
O105   O     0.50000   0.10654   0.12706   0.00000  Uiso   1.00
O106   O     0.50000   0.22679   0.20628   0.00000  Uiso   1.00
O107   O     0.42495   0.16667   0.19712   0.00000  Uiso   1.00
O108   O     0.57505   0.16666   0.13621   0.00000  Uiso   1.00
O109   O     0.42494   0.16666   0.11793   0.00000  Uiso   1.00
O110   O     0.57506   0.16667   0.21540   0.00000  Uiso   1.00
O111   O     0.43559   0.04269   0.09355   0.00000  Uiso   1.00
C112   C     0.39204   0.06119   0.10965   0.00000  Uiso   1.00
H113   H     0.38248   0.08887   0.08778   0.00000  Uiso   1.00
H114   H     0.39927   0.07221   0.14691   0.00000  Uiso   1.00
C115   C     0.34495   0.03186   0.10357   0.00000  Uiso   1.00
H116   H     0.33791   0.02054   0.06655   0.00000  Uiso   1.00
H117   H     0.35263   0.00515   0.12743   0.00000  Uiso   1.00
C118   C     0.62984   0.05330   0.11552   0.00000  Uiso   1.00
H119   H     0.63578   0.06460   0.15257   0.00000  Uiso   1.00
H120   H     0.59657   0.03111   0.11123   0.00000  Uiso   1.00
H121   H     0.62041   0.07977   0.09162   0.00000  Uiso   1.00
O122   O     0.51525   0.29476   0.25355   0.00000  Uiso   1.00
C123   C     0.46595   0.28614   0.26816   0.00000  Uiso   1.00
H124   H     0.47163   0.26359   0.29736   0.00000  Uiso   1.00
H125   H     0.43832   0.27112   0.23989   0.00000  Uiso   1.00
C126   C     0.44092   0.32469   0.28620   0.00000  Uiso   1.00
H127   H     0.46426   0.00263   0.31914   0.00000  Uiso   1.00
H128   H     0.43920   0.01626   0.25964   0.00000  Uiso   1.00
C129   C     0.38560   0.31525   0.29568   0.00000  Uiso   1.00
H130   H     0.36038   0.30864   0.26202   0.00000  Uiso   1.00
H131   H     0.37016   0.00897   0.31288   0.00000  Uiso   1.00
H132   H     0.38444   0.28812   0.31905   0.00000  Uiso   1.00
N133   N     0.44146   0.29028   0.08746   0.00000  Uiso   1.00
H134   H     0.43953   0.30628   0.05638   0.00000  Uiso   1.00
C135   C     0.39561   0.26547   0.09202   0.00000  Uiso   1.00
H136   H     0.36075   0.28062   0.07390   0.00000  Uiso   1.00
H137   H     0.39029   0.26041   0.12947   0.00000  Uiso   1.00
H138   H     0.39887   0.23518   0.07462   0.00000  Uiso   1.00
N139   N     0.56044   0.04046   0.23736   0.00000  Uiso   1.00
H140   H     0.59565   0.02671   0.23614   0.00000  Uiso   1.00
C141   C     0.55100   0.04861   0.28517   0.00000  Uiso   1.00
H142   H     0.55378   0.01985   0.30614   0.00000  Uiso   1.00
H143   H     0.51269   0.06259   0.28582   0.00000  Uiso   1.00
H144   H     0.58089   0.07077   0.30194   0.00000  Uiso   1.00
N145   N     0.42405   0.12115   0.27507   0.00000  Uiso   1.00
H146   H     0.43749   0.09631   0.25821   0.00000  Uiso   1.00
C147   C     0.37484   0.11271   0.29179   0.00000  Uiso   1.00
H148   H     0.37898   0.08827   0.31900   0.00000  Uiso   1.00
H149   H     0.34645   0.10137   0.26198   0.00000  Uiso   1.00
H150   H     0.35960   0.14125   0.30620   0.00000  Uiso   1.00
N151   N     0.57259   0.21492   0.05751   0.00000  Uiso   1.00
H152   H     0.60993   0.20568   0.05567   0.00000  Uiso   1.00
C153   C     0.56750   0.25893   0.05030   0.00000  Uiso   1.00
H154   H     0.59275   0.27574   0.07866   0.00000  Uiso   1.00
H155   H     0.52697   0.26832   0.05142   0.00000  Uiso   1.00
H156   H     0.57939   0.26782   0.01581   0.00000  Uiso   1.00
C157   C     0.83352   0.08746   0.16662   0.00000  Uiso   1.00
C158   C     0.82980   0.24588   0.16667   0.00000  Uiso   1.00
C159   C     0.73465   0.16644   0.15467   0.00000  Uiso   1.00
C160   C     0.93202   0.16703   0.17865   0.00000  Uiso   1.00
C161   C     0.67941   0.16545   0.14802   0.00000  Uiso   1.00
C162   C     0.98727   0.16828   0.18520   0.00000  Uiso   1.00
C163   C     0.79766   0.02173   0.12994   0.00000  Uiso   1.00
C164   C     0.84163   0.31290   0.20948   0.00000  Uiso   1.00
C165   C     0.79871   0.31185   0.12837   0.00000  Uiso   1.00
C166   C     0.85295   0.02141   0.20598   0.00000  Uiso   1.00
C167   C     0.82309   0.29058   0.16788   0.00000  Uiso   1.00
C168   C     0.82917   0.04286   0.16674   0.00000  Uiso   1.00
C169   C     0.79755   0.14403   0.02084   0.00000  Uiso   1.00
C170   C     0.86933   0.18913   0.31271   0.00000  Uiso   1.00
C171   C     0.79636   0.14436   0.30428   0.00000  Uiso   1.00
C172   C     0.86879   0.19008   0.02891   0.00000  Uiso   1.00
Cu173  Cu    0.83333   0.16667   0.21355   0.00000  Uiso   1.00
Cu174  Cu    0.83333   0.16666   0.11978   0.00000  Uiso   1.00
H175   H     0.99300   0.16193   0.11236   0.00000  Uiso   1.00
H176   H     0.67374   0.17197   0.22081   0.00000  Uiso   1.00
H177   H     0.77003   0.12568   0.03716   0.00000  Uiso   1.00
H178   H     0.89811   0.20701   0.29724   0.00000  Uiso   1.00
N179   N     0.83335   0.16668   0.28403   0.00000  Uiso   1.00
N180   N     0.83332   0.16666   0.04931   0.00000  Uiso   1.00
O181   O     0.83333   0.10655   0.20625   0.00000  Uiso   1.00
O182   O     0.83334   0.22678   0.12709   0.00000  Uiso   1.00
O183   O     0.83333   0.10654   0.12706   0.00000  Uiso   1.00
O184   O     0.83334   0.22679   0.20628   0.00000  Uiso   1.00
O185   O     0.75828   0.16667   0.19712   0.00000  Uiso   1.00
O186   O     0.90839   0.16666   0.13621   0.00000  Uiso   1.00
O187   O     0.75828   0.16666   0.11793   0.00000  Uiso   1.00
O188   O     0.90839   0.16667   0.21540   0.00000  Uiso   1.00
O189   O     0.76893   0.04269   0.09355   0.00000  Uiso   1.00
C190   C     0.72537   0.06119   0.10965   0.00000  Uiso   1.00
H191   H     0.71581   0.08887   0.08778   0.00000  Uiso   1.00
H192   H     0.73260   0.07221   0.14691   0.00000  Uiso   1.00
C193   C     0.67829   0.03186   0.10357   0.00000  Uiso   1.00
H194   H     0.67124   0.02054   0.06655   0.00000  Uiso   1.00
H195   H     0.68596   0.00515   0.12743   0.00000  Uiso   1.00
C196   C     0.96318   0.05330   0.11552   0.00000  Uiso   1.00
H197   H     0.96911   0.06460   0.15257   0.00000  Uiso   1.00
H198   H     0.92991   0.03111   0.11123   0.00000  Uiso   1.00
H199   H     0.95374   0.07977   0.09162   0.00000  Uiso   1.00
O200   O     0.84859   0.29476   0.25355   0.00000  Uiso   1.00
C201   C     0.79928   0.28614   0.26816   0.00000  Uiso   1.00
H202   H     0.80496   0.26359   0.29736   0.00000  Uiso   1.00
H203   H     0.77165   0.27112   0.23989   0.00000  Uiso   1.00
C204   C     0.77425   0.32469   0.28620   0.00000  Uiso   1.00
H205   H     0.79760   0.00263   0.31914   0.00000  Uiso   1.00
H206   H     0.77253   0.01626   0.25964   0.00000  Uiso   1.00
C207   C     0.71893   0.31525   0.29568   0.00000  Uiso   1.00
H208   H     0.69371   0.30864   0.26202   0.00000  Uiso   1.00
H209   H     0.70349   0.00897   0.31288   0.00000  Uiso   1.00
H210   H     0.71777   0.28812   0.31905   0.00000  Uiso   1.00
N211   N     0.77479   0.29028   0.08746   0.00000  Uiso   1.00
H212   H     0.77286   0.30628   0.05638   0.00000  Uiso   1.00
C213   C     0.72894   0.26547   0.09202   0.00000  Uiso   1.00
H214   H     0.69409   0.28062   0.07390   0.00000  Uiso   1.00
H215   H     0.72362   0.26041   0.12947   0.00000  Uiso   1.00
H216   H     0.73220   0.23518   0.07462   0.00000  Uiso   1.00
N217   N     0.89377   0.04046   0.23736   0.00000  Uiso   1.00
H218   H     0.92899   0.02671   0.23614   0.00000  Uiso   1.00
C219   C     0.88433   0.04861   0.28517   0.00000  Uiso   1.00
H220   H     0.88711   0.01985   0.30614   0.00000  Uiso   1.00
H221   H     0.84602   0.06259   0.28582   0.00000  Uiso   1.00
H222   H     0.91422   0.07077   0.30194   0.00000  Uiso   1.00
N223   N     0.75739   0.12115   0.27507   0.00000  Uiso   1.00
H224   H     0.77083   0.09631   0.25821   0.00000  Uiso   1.00
C225   C     0.70817   0.11271   0.29179   0.00000  Uiso   1.00
H226   H     0.71232   0.08827   0.31900   0.00000  Uiso   1.00
H227   H     0.67978   0.10137   0.26198   0.00000  Uiso   1.00
H228   H     0.69293   0.14125   0.30620   0.00000  Uiso   1.00
N229   N     0.90592   0.21492   0.05751   0.00000  Uiso   1.00
H230   H     0.94326   0.20568   0.05567   0.00000  Uiso   1.00
C231   C     0.90084   0.25893   0.05030   0.00000  Uiso   1.00
H232   H     0.92609   0.27574   0.07866   0.00000  Uiso   1.00
H233   H     0.86031   0.26832   0.05142   0.00000  Uiso   1.00
H234   H     0.91273   0.26782   0.01581   0.00000  Uiso   1.00
C235   C     0.16686   0.42079   0.16662   0.00000  Uiso   1.00
C236   C     0.16313   0.57921   0.16667   0.00000  Uiso   1.00
C237   C     0.06799   0.49977   0.15467   0.00000  Uiso   1.00
C238   C     0.26535   0.50036   0.17865   0.00000  Uiso   1.00
C239   C     0.01274   0.49878   0.14802   0.00000  Uiso   1.00
C240   C     0.32061   0.50161   0.18520   0.00000  Uiso   1.00
C241   C     0.13099   0.35506   0.12994   0.00000  Uiso   1.00
C242   C     0.17496   0.64623   0.20948   0.00000  Uiso   1.00
C243   C     0.13205   0.64519   0.12837   0.00000  Uiso   1.00
C244   C     0.18628   0.35474   0.20598   0.00000  Uiso   1.00
C245   C     0.15642   0.62392   0.16788   0.00000  Uiso   1.00
C246   C     0.16250   0.37620   0.16674   0.00000  Uiso   1.00
C247   C     0.13089   0.47736   0.02084   0.00000  Uiso   1.00
C248   C     0.20266   0.52246   0.31271   0.00000  Uiso   1.00
C249   C     0.12969   0.47769   0.30428   0.00000  Uiso   1.00
C250   C     0.20213   0.52341   0.02891   0.00000  Uiso   1.00
Cu251  Cu    0.16667   0.50001   0.21355   0.00000  Uiso   1.00
Cu252  Cu    0.16667   0.49999   0.11978   0.00000  Uiso   1.00
H253   H     0.32634   0.49526   0.11236   0.00000  Uiso   1.00
H254   H     0.00707   0.50530   0.22081   0.00000  Uiso   1.00
H255   H     0.10336   0.45902   0.03716   0.00000  Uiso   1.00
H256   H     0.23145   0.54035   0.29724   0.00000  Uiso   1.00
N257   N     0.16668   0.50001   0.28403   0.00000  Uiso   1.00
N258   N     0.16665   0.49999   0.04931   0.00000  Uiso   1.00
O259   O     0.16666   0.43989   0.20625   0.00000  Uiso   1.00
O260   O     0.16667   0.56011   0.12709   0.00000  Uiso   1.00
O261   O     0.16666   0.43988   0.12706   0.00000  Uiso   1.00
O262   O     0.16667   0.56012   0.20628   0.00000  Uiso   1.00
O263   O     0.09161   0.50000   0.19712   0.00000  Uiso   1.00
O264   O     0.24172   0.50000   0.13621   0.00000  Uiso   1.00
O265   O     0.09161   0.49999   0.11793   0.00000  Uiso   1.00
O266   O     0.24172   0.50001   0.21540   0.00000  Uiso   1.00
O267   O     0.10226   0.37602   0.09355   0.00000  Uiso   1.00
C268   C     0.05871   0.39453   0.10965   0.00000  Uiso   1.00
H269   H     0.04915   0.42221   0.08778   0.00000  Uiso   1.00
H270   H     0.06593   0.40554   0.14691   0.00000  Uiso   1.00
C271   C     0.01162   0.36519   0.10357   0.00000  Uiso   1.00
H272   H     0.00457   0.35387   0.06655   0.00000  Uiso   1.00
H273   H     0.01930   0.33848   0.12743   0.00000  Uiso   1.00
C274   C     0.29651   0.38663   0.11552   0.00000  Uiso   1.00
H275   H     0.30245   0.39794   0.15257   0.00000  Uiso   1.00
H276   H     0.26324   0.36445   0.11123   0.00000  Uiso   1.00
H277   H     0.28708   0.41310   0.09162   0.00000  Uiso   1.00
O278   O     0.18192   0.62809   0.25355   0.00000  Uiso   1.00
C279   C     0.13262   0.61947   0.26816   0.00000  Uiso   1.00
H280   H     0.13830   0.59692   0.29736   0.00000  Uiso   1.00
H281   H     0.10498   0.60445   0.23989   0.00000  Uiso   1.00
C282   C     0.10758   0.65803   0.28620   0.00000  Uiso   1.00
H283   H     0.13093   0.33596   0.31914   0.00000  Uiso   1.00
H284   H     0.10587   0.34960   0.25964   0.00000  Uiso   1.00
C285   C     0.05227   0.64858   0.29568   0.00000  Uiso   1.00
H286   H     0.02705   0.64197   0.26202   0.00000  Uiso   1.00
H287   H     0.03682   0.34231   0.31288   0.00000  Uiso   1.00
H288   H     0.05111   0.62146   0.31905   0.00000  Uiso   1.00
N289   N     0.10813   0.62361   0.08746   0.00000  Uiso   1.00
H290   H     0.10619   0.63962   0.05638   0.00000  Uiso   1.00
C291   C     0.06227   0.59881   0.09202   0.00000  Uiso   1.00
H292   H     0.02742   0.61395   0.07390   0.00000  Uiso   1.00
H293   H     0.05696   0.59374   0.12947   0.00000  Uiso   1.00
H294   H     0.06553   0.56851   0.07462   0.00000  Uiso   1.00
N295   N     0.22711   0.37379   0.23736   0.00000  Uiso   1.00
H296   H     0.26232   0.36005   0.23614   0.00000  Uiso   1.00
C297   C     0.21767   0.38194   0.28517   0.00000  Uiso   1.00
H298   H     0.22045   0.35319   0.30614   0.00000  Uiso   1.00
H299   H     0.17936   0.39593   0.28582   0.00000  Uiso   1.00
H300   H     0.24756   0.40411   0.30194   0.00000  Uiso   1.00
N301   N     0.09072   0.45448   0.27507   0.00000  Uiso   1.00
H302   H     0.10416   0.42964   0.25821   0.00000  Uiso   1.00
C303   C     0.04151   0.44604   0.29179   0.00000  Uiso   1.00
H304   H     0.04565   0.42160   0.31900   0.00000  Uiso   1.00
H305   H     0.01311   0.43471   0.26198   0.00000  Uiso   1.00
H306   H     0.02626   0.47458   0.30620   0.00000  Uiso   1.00
N307   N     0.23926   0.54825   0.05751   0.00000  Uiso   1.00
H308   H     0.27659   0.53901   0.05567   0.00000  Uiso   1.00
C309   C     0.23417   0.59226   0.05030   0.00000  Uiso   1.00
H310   H     0.25942   0.60908   0.07866   0.00000  Uiso   1.00
H311   H     0.19364   0.60165   0.05142   0.00000  Uiso   1.00
H312   H     0.24606   0.60115   0.01581   0.00000  Uiso   1.00
C313   C     0.50019   0.42079   0.16662   0.00000  Uiso   1.00
C314   C     0.49646   0.57921   0.16667   0.00000  Uiso   1.00
C315   C     0.40132   0.49977   0.15467   0.00000  Uiso   1.00
C316   C     0.59869   0.50036   0.17865   0.00000  Uiso   1.00
C317   C     0.34607   0.49878   0.14802   0.00000  Uiso   1.00
C318   C     0.65394   0.50161   0.18520   0.00000  Uiso   1.00
C319   C     0.46433   0.35506   0.12994   0.00000  Uiso   1.00
C320   C     0.50830   0.64623   0.20948   0.00000  Uiso   1.00
C321   C     0.46538   0.64519   0.12837   0.00000  Uiso   1.00
C322   C     0.51961   0.35474   0.20598   0.00000  Uiso   1.00
C323   C     0.48975   0.62392   0.16788   0.00000  Uiso   1.00
C324   C     0.49583   0.37620   0.16674   0.00000  Uiso   1.00
C325   C     0.46422   0.47736   0.02084   0.00000  Uiso   1.00
C326   C     0.53600   0.52246   0.31271   0.00000  Uiso   1.00
C327   C     0.46303   0.47769   0.30428   0.00000  Uiso   1.00
C328   C     0.53546   0.52341   0.02891   0.00000  Uiso   1.00
Cu329  Cu    0.50000   0.50001   0.21355   0.00000  Uiso   1.00
Cu330  Cu    0.50000   0.49999   0.11978   0.00000  Uiso   1.00
H331   H     0.65967   0.49526   0.11236   0.00000  Uiso   1.00
H332   H     0.34041   0.50530   0.22081   0.00000  Uiso   1.00
H333   H     0.43669   0.45902   0.03716   0.00000  Uiso   1.00
H334   H     0.56478   0.54035   0.29724   0.00000  Uiso   1.00
N335   N     0.50001   0.50001   0.28403   0.00000  Uiso   1.00
N336   N     0.49999   0.49999   0.04931   0.00000  Uiso   1.00
O337   O     0.50000   0.43989   0.20625   0.00000  Uiso   1.00
O338   O     0.50000   0.56011   0.12709   0.00000  Uiso   1.00
O339   O     0.50000   0.43988   0.12706   0.00000  Uiso   1.00
O340   O     0.50000   0.56012   0.20628   0.00000  Uiso   1.00
O341   O     0.42495   0.50000   0.19712   0.00000  Uiso   1.00
O342   O     0.57505   0.50000   0.13621   0.00000  Uiso   1.00
O343   O     0.42494   0.49999   0.11793   0.00000  Uiso   1.00
O344   O     0.57506   0.50001   0.21540   0.00000  Uiso   1.00
O345   O     0.43559   0.37602   0.09355   0.00000  Uiso   1.00
C346   C     0.39204   0.39453   0.10965   0.00000  Uiso   1.00
H347   H     0.38248   0.42221   0.08778   0.00000  Uiso   1.00
H348   H     0.39927   0.40554   0.14691   0.00000  Uiso   1.00
C349   C     0.34495   0.36519   0.10357   0.00000  Uiso   1.00
H350   H     0.33791   0.35387   0.06655   0.00000  Uiso   1.00
H351   H     0.35263   0.33848   0.12743   0.00000  Uiso   1.00
C352   C     0.62984   0.38663   0.11552   0.00000  Uiso   1.00
H353   H     0.63578   0.39794   0.15257   0.00000  Uiso   1.00
H354   H     0.59657   0.36445   0.11123   0.00000  Uiso   1.00
H355   H     0.62041   0.41310   0.09162   0.00000  Uiso   1.00
O356   O     0.51525   0.62809   0.25355   0.00000  Uiso   1.00
C357   C     0.46595   0.61947   0.26816   0.00000  Uiso   1.00
H358   H     0.47163   0.59692   0.29736   0.00000  Uiso   1.00
H359   H     0.43832   0.60445   0.23989   0.00000  Uiso   1.00
C360   C     0.44092   0.65803   0.28620   0.00000  Uiso   1.00
H361   H     0.46426   0.33596   0.31914   0.00000  Uiso   1.00
H362   H     0.43920   0.34960   0.25964   0.00000  Uiso   1.00
C363   C     0.38560   0.64858   0.29568   0.00000  Uiso   1.00
H364   H     0.36038   0.64197   0.26202   0.00000  Uiso   1.00
H365   H     0.37016   0.34231   0.31288   0.00000  Uiso   1.00
H366   H     0.38444   0.62146   0.31905   0.00000  Uiso   1.00
N367   N     0.44146   0.62361   0.08746   0.00000  Uiso   1.00
H368   H     0.43953   0.63962   0.05638   0.00000  Uiso   1.00
C369   C     0.39561   0.59881   0.09202   0.00000  Uiso   1.00
H370   H     0.36075   0.61395   0.07390   0.00000  Uiso   1.00
H371   H     0.39029   0.59374   0.12947   0.00000  Uiso   1.00
H372   H     0.39887   0.56851   0.07462   0.00000  Uiso   1.00
N373   N     0.56044   0.37379   0.23736   0.00000  Uiso   1.00
H374   H     0.59565   0.36005   0.23614   0.00000  Uiso   1.00
C375   C     0.55100   0.38194   0.28517   0.00000  Uiso   1.00
H376   H     0.55378   0.35319   0.30614   0.00000  Uiso   1.00
H377   H     0.51269   0.39593   0.28582   0.00000  Uiso   1.00
H378   H     0.58089   0.40411   0.30194   0.00000  Uiso   1.00
N379   N     0.42405   0.45448   0.27507   0.00000  Uiso   1.00
H380   H     0.43749   0.42964   0.25821   0.00000  Uiso   1.00
C381   C     0.37484   0.44604   0.29179   0.00000  Uiso   1.00
H382   H     0.37898   0.42160   0.31900   0.00000  Uiso   1.00
H383   H     0.34645   0.43471   0.26198   0.00000  Uiso   1.00
H384   H     0.35960   0.47458   0.30620   0.00000  Uiso   1.00
N385   N     0.57259   0.54825   0.05751   0.00000  Uiso   1.00
H386   H     0.60993   0.53901   0.05567   0.00000  Uiso   1.00
C387   C     0.56750   0.59226   0.05030   0.00000  Uiso   1.00
H388   H     0.59275   0.60908   0.07866   0.00000  Uiso   1.00
H389   H     0.52697   0.60165   0.05142   0.00000  Uiso   1.00
H390   H     0.57939   0.60115   0.01581   0.00000  Uiso   1.00
C391   C     0.83352   0.42079   0.16662   0.00000  Uiso   1.00
C392   C     0.82980   0.57921   0.16667   0.00000  Uiso   1.00
C393   C     0.73465   0.49977   0.15467   0.00000  Uiso   1.00
C394   C     0.93202   0.50036   0.17865   0.00000  Uiso   1.00
C395   C     0.67941   0.49878   0.14802   0.00000  Uiso   1.00
C396   C     0.98727   0.50161   0.18520   0.00000  Uiso   1.00
C397   C     0.79766   0.35506   0.12994   0.00000  Uiso   1.00
C398   C     0.84163   0.64623   0.20948   0.00000  Uiso   1.00
C399   C     0.79871   0.64519   0.12837   0.00000  Uiso   1.00
C400   C     0.85295   0.35474   0.20598   0.00000  Uiso   1.00
C401   C     0.82309   0.62392   0.16788   0.00000  Uiso   1.00
C402   C     0.82917   0.37620   0.16674   0.00000  Uiso   1.00
C403   C     0.79755   0.47736   0.02084   0.00000  Uiso   1.00
C404   C     0.86933   0.52246   0.31271   0.00000  Uiso   1.00
C405   C     0.79636   0.47769   0.30428   0.00000  Uiso   1.00
C406   C     0.86879   0.52341   0.02891   0.00000  Uiso   1.00
Cu407  Cu    0.83333   0.50001   0.21355   0.00000  Uiso   1.00
Cu408  Cu    0.83333   0.49999   0.11978   0.00000  Uiso   1.00
H409   H     0.99300   0.49526   0.11236   0.00000  Uiso   1.00
H410   H     0.67374   0.50530   0.22081   0.00000  Uiso   1.00
H411   H     0.77003   0.45902   0.03716   0.00000  Uiso   1.00
H412   H     0.89811   0.54035   0.29724   0.00000  Uiso   1.00
N413   N     0.83335   0.50001   0.28403   0.00000  Uiso   1.00
N414   N     0.83332   0.49999   0.04931   0.00000  Uiso   1.00
O415   O     0.83333   0.43989   0.20625   0.00000  Uiso   1.00
O416   O     0.83334   0.56011   0.12709   0.00000  Uiso   1.00
O417   O     0.83333   0.43988   0.12706   0.00000  Uiso   1.00
O418   O     0.83334   0.56012   0.20628   0.00000  Uiso   1.00
O419   O     0.75828   0.50000   0.19712   0.00000  Uiso   1.00
O420   O     0.90839   0.50000   0.13621   0.00000  Uiso   1.00
O421   O     0.75828   0.49999   0.11793   0.00000  Uiso   1.00
O422   O     0.90839   0.50001   0.21540   0.00000  Uiso   1.00
O423   O     0.76893   0.37602   0.09355   0.00000  Uiso   1.00
C424   C     0.72537   0.39453   0.10965   0.00000  Uiso   1.00
H425   H     0.71581   0.42221   0.08778   0.00000  Uiso   1.00
H426   H     0.73260   0.40554   0.14691   0.00000  Uiso   1.00
C427   C     0.67829   0.36519   0.10357   0.00000  Uiso   1.00
H428   H     0.67124   0.35387   0.06655   0.00000  Uiso   1.00
H429   H     0.68596   0.33848   0.12743   0.00000  Uiso   1.00
C430   C     0.96318   0.38663   0.11552   0.00000  Uiso   1.00
H431   H     0.96911   0.39794   0.15257   0.00000  Uiso   1.00
H432   H     0.92991   0.36445   0.11123   0.00000  Uiso   1.00
H433   H     0.95374   0.41310   0.09162   0.00000  Uiso   1.00
O434   O     0.84859   0.62809   0.25355   0.00000  Uiso   1.00
C435   C     0.79928   0.61947   0.26816   0.00000  Uiso   1.00
H436   H     0.80496   0.59692   0.29736   0.00000  Uiso   1.00
H437   H     0.77165   0.60445   0.23989   0.00000  Uiso   1.00
C438   C     0.77425   0.65803   0.28620   0.00000  Uiso   1.00
H439   H     0.79760   0.33596   0.31914   0.00000  Uiso   1.00
H440   H     0.77253   0.34960   0.25964   0.00000  Uiso   1.00
C441   C     0.71893   0.64858   0.29568   0.00000  Uiso   1.00
H442   H     0.69371   0.64197   0.26202   0.00000  Uiso   1.00
H443   H     0.70349   0.34231   0.31288   0.00000  Uiso   1.00
H444   H     0.71777   0.62146   0.31905   0.00000  Uiso   1.00
N445   N     0.77479   0.62361   0.08746   0.00000  Uiso   1.00
H446   H     0.77286   0.63962   0.05638   0.00000  Uiso   1.00
C447   C     0.72894   0.59881   0.09202   0.00000  Uiso   1.00
H448   H     0.69409   0.61395   0.07390   0.00000  Uiso   1.00
H449   H     0.72362   0.59374   0.12947   0.00000  Uiso   1.00
H450   H     0.73220   0.56851   0.07462   0.00000  Uiso   1.00
N451   N     0.89377   0.37379   0.23736   0.00000  Uiso   1.00
H452   H     0.92899   0.36005   0.23614   0.00000  Uiso   1.00
C453   C     0.88433   0.38194   0.28517   0.00000  Uiso   1.00
H454   H     0.88711   0.35319   0.30614   0.00000  Uiso   1.00
H455   H     0.84602   0.39593   0.28582   0.00000  Uiso   1.00
H456   H     0.91422   0.40411   0.30194   0.00000  Uiso   1.00
N457   N     0.75739   0.45448   0.27507   0.00000  Uiso   1.00
H458   H     0.77083   0.42964   0.25821   0.00000  Uiso   1.00
C459   C     0.70817   0.44604   0.29179   0.00000  Uiso   1.00
H460   H     0.71232   0.42160   0.31900   0.00000  Uiso   1.00
H461   H     0.67978   0.43471   0.26198   0.00000  Uiso   1.00
H462   H     0.69293   0.47458   0.30620   0.00000  Uiso   1.00
N463   N     0.90592   0.54825   0.05751   0.00000  Uiso   1.00
H464   H     0.94326   0.53901   0.05567   0.00000  Uiso   1.00
C465   C     0.90084   0.59226   0.05030   0.00000  Uiso   1.00
H466   H     0.92609   0.60908   0.07866   0.00000  Uiso   1.00
H467   H     0.86031   0.60165   0.05142   0.00000  Uiso   1.00
H468   H     0.91273   0.60115   0.01581   0.00000  Uiso   1.00
C469   C     0.16686   0.75412   0.16662   0.00000  Uiso   1.00
C470   C     0.16313   0.91254   0.16667   0.00000  Uiso   1.00
C471   C     0.06799   0.83310   0.15467   0.00000  Uiso   1.00
C472   C     0.26535   0.83369   0.17865   0.00000  Uiso   1.00
C473   C     0.01274   0.83212   0.14802   0.00000  Uiso   1.00
C474   C     0.32061   0.83494   0.18520   0.00000  Uiso   1.00
C475   C     0.13099   0.68839   0.12994   0.00000  Uiso   1.00
C476   C     0.17496   0.97957   0.20948   0.00000  Uiso   1.00
C477   C     0.13205   0.97852   0.12837   0.00000  Uiso   1.00
C478   C     0.18628   0.68807   0.20598   0.00000  Uiso   1.00
C479   C     0.15642   0.95725   0.16788   0.00000  Uiso   1.00
C480   C     0.16250   0.70953   0.16674   0.00000  Uiso   1.00
C481   C     0.13089   0.81069   0.02084   0.00000  Uiso   1.00
C482   C     0.20266   0.85580   0.31271   0.00000  Uiso   1.00
C483   C     0.12969   0.81103   0.30428   0.00000  Uiso   1.00
C484   C     0.20213   0.85674   0.02891   0.00000  Uiso   1.00
Cu485  Cu    0.16667   0.83334   0.21355   0.00000  Uiso   1.00
Cu486  Cu    0.16667   0.83333   0.11978   0.00000  Uiso   1.00
H487   H     0.32634   0.82859   0.11236   0.00000  Uiso   1.00
H488   H     0.00707   0.83863   0.22081   0.00000  Uiso   1.00
H489   H     0.10336   0.79235   0.03716   0.00000  Uiso   1.00
H490   H     0.23145   0.87368   0.29724   0.00000  Uiso   1.00
N491   N     0.16668   0.83334   0.28403   0.00000  Uiso   1.00
N492   N     0.16665   0.83332   0.04931   0.00000  Uiso   1.00
O493   O     0.16666   0.77322   0.20625   0.00000  Uiso   1.00
O494   O     0.16667   0.89345   0.12709   0.00000  Uiso   1.00
O495   O     0.16666   0.77321   0.12706   0.00000  Uiso   1.00
O496   O     0.16667   0.89346   0.20628   0.00000  Uiso   1.00
O497   O     0.09161   0.83334   0.19712   0.00000  Uiso   1.00
O498   O     0.24172   0.83333   0.13621   0.00000  Uiso   1.00
O499   O     0.09161   0.83333   0.11793   0.00000  Uiso   1.00
O500   O     0.24172   0.83334   0.21540   0.00000  Uiso   1.00
O501   O     0.10226   0.70935   0.09355   0.00000  Uiso   1.00
C502   C     0.05871   0.72786   0.10965   0.00000  Uiso   1.00
H503   H     0.04915   0.75554   0.08778   0.00000  Uiso   1.00
H504   H     0.06593   0.73888   0.14691   0.00000  Uiso   1.00
C505   C     0.01162   0.69852   0.10357   0.00000  Uiso   1.00
H506   H     0.00457   0.68721   0.06655   0.00000  Uiso   1.00
H507   H     0.01930   0.67181   0.12743   0.00000  Uiso   1.00
C508   C     0.29651   0.71996   0.11552   0.00000  Uiso   1.00
H509   H     0.30245   0.73127   0.15257   0.00000  Uiso   1.00
H510   H     0.26324   0.69778   0.11123   0.00000  Uiso   1.00
H511   H     0.28708   0.74644   0.09162   0.00000  Uiso   1.00
O512   O     0.18192   0.96142   0.25355   0.00000  Uiso   1.00
C513   C     0.13262   0.95280   0.26816   0.00000  Uiso   1.00
H514   H     0.13830   0.93025   0.29736   0.00000  Uiso   1.00
H515   H     0.10498   0.93778   0.23989   0.00000  Uiso   1.00
C516   C     0.10758   0.99136   0.28620   0.00000  Uiso   1.00
H517   H     0.13093   0.66930   0.31914   0.00000  Uiso   1.00
H518   H     0.10587   0.68293   0.25964   0.00000  Uiso   1.00
C519   C     0.05227   0.98192   0.29568   0.00000  Uiso   1.00
H520   H     0.02705   0.97531   0.26202   0.00000  Uiso   1.00
H521   H     0.03682   0.67564   0.31288   0.00000  Uiso   1.00
H522   H     0.05111   0.95479   0.31905   0.00000  Uiso   1.00
N523   N     0.10813   0.95694   0.08746   0.00000  Uiso   1.00
H524   H     0.10619   0.97295   0.05638   0.00000  Uiso   1.00
C525   C     0.06227   0.93214   0.09202   0.00000  Uiso   1.00
H526   H     0.02742   0.94729   0.07390   0.00000  Uiso   1.00
H527   H     0.05696   0.92707   0.12947   0.00000  Uiso   1.00
H528   H     0.06553   0.90184   0.07462   0.00000  Uiso   1.00
N529   N     0.22711   0.70712   0.23736   0.00000  Uiso   1.00
H530   H     0.26232   0.69338   0.23614   0.00000  Uiso   1.00
C531   C     0.21767   0.71527   0.28517   0.00000  Uiso   1.00
H532   H     0.22045   0.68652   0.30614   0.00000  Uiso   1.00
H533   H     0.17936   0.72926   0.28582   0.00000  Uiso   1.00
H534   H     0.24756   0.73744   0.30194   0.00000  Uiso   1.00
N535   N     0.09072   0.78782   0.27507   0.00000  Uiso   1.00
H536   H     0.10416   0.76298   0.25821   0.00000  Uiso   1.00
C537   C     0.04151   0.77937   0.29179   0.00000  Uiso   1.00
H538   H     0.04565   0.75494   0.31900   0.00000  Uiso   1.00
H539   H     0.01311   0.76804   0.26198   0.00000  Uiso   1.00
H540   H     0.02626   0.80792   0.30620   0.00000  Uiso   1.00
N541   N     0.23926   0.88159   0.05751   0.00000  Uiso   1.00
H542   H     0.27659   0.87235   0.05567   0.00000  Uiso   1.00
C543   C     0.23417   0.92560   0.05030   0.00000  Uiso   1.00
H544   H     0.25942   0.94241   0.07866   0.00000  Uiso   1.00
H545   H     0.19364   0.93499   0.05142   0.00000  Uiso   1.00
H546   H     0.24606   0.93448   0.01581   0.00000  Uiso   1.00
C547   C     0.50019   0.75412   0.16662   0.00000  Uiso   1.00
C548   C     0.49646   0.91254   0.16667   0.00000  Uiso   1.00
C549   C     0.40132   0.83310   0.15467   0.00000  Uiso   1.00
C550   C     0.59869   0.83369   0.17865   0.00000  Uiso   1.00
C551   C     0.34607   0.83212   0.14802   0.00000  Uiso   1.00
C552   C     0.65394   0.83494   0.18520   0.00000  Uiso   1.00
C553   C     0.46433   0.68839   0.12994   0.00000  Uiso   1.00
C554   C     0.50830   0.97957   0.20948   0.00000  Uiso   1.00
C555   C     0.46538   0.97852   0.12837   0.00000  Uiso   1.00
C556   C     0.51961   0.68807   0.20598   0.00000  Uiso   1.00
C557   C     0.48975   0.95725   0.16788   0.00000  Uiso   1.00
C558   C     0.49583   0.70953   0.16674   0.00000  Uiso   1.00
C559   C     0.46422   0.81069   0.02084   0.00000  Uiso   1.00
C560   C     0.53600   0.85580   0.31271   0.00000  Uiso   1.00
C561   C     0.46303   0.81103   0.30428   0.00000  Uiso   1.00
C562   C     0.53546   0.85674   0.02891   0.00000  Uiso   1.00
Cu563  Cu    0.50000   0.83334   0.21355   0.00000  Uiso   1.00
Cu564  Cu    0.50000   0.83333   0.11978   0.00000  Uiso   1.00
H565   H     0.65967   0.82859   0.11236   0.00000  Uiso   1.00
H566   H     0.34041   0.83863   0.22081   0.00000  Uiso   1.00
H567   H     0.43669   0.79235   0.03716   0.00000  Uiso   1.00
H568   H     0.56478   0.87368   0.29724   0.00000  Uiso   1.00
N569   N     0.50001   0.83334   0.28403   0.00000  Uiso   1.00
N570   N     0.49999   0.83332   0.04931   0.00000  Uiso   1.00
O571   O     0.50000   0.77322   0.20625   0.00000  Uiso   1.00
O572   O     0.50000   0.89345   0.12709   0.00000  Uiso   1.00
O573   O     0.50000   0.77321   0.12706   0.00000  Uiso   1.00
O574   O     0.50000   0.89346   0.20628   0.00000  Uiso   1.00
O575   O     0.42495   0.83334   0.19712   0.00000  Uiso   1.00
O576   O     0.57505   0.83333   0.13621   0.00000  Uiso   1.00
O577   O     0.42494   0.83333   0.11793   0.00000  Uiso   1.00
O578   O     0.57506   0.83334   0.21540   0.00000  Uiso   1.00
O579   O     0.43559   0.70935   0.09355   0.00000  Uiso   1.00
C580   C     0.39204   0.72786   0.10965   0.00000  Uiso   1.00
H581   H     0.38248   0.75554   0.08778   0.00000  Uiso   1.00
H582   H     0.39927   0.73888   0.14691   0.00000  Uiso   1.00
C583   C     0.34495   0.69852   0.10357   0.00000  Uiso   1.00
H584   H     0.33791   0.68721   0.06655   0.00000  Uiso   1.00
H585   H     0.35263   0.67181   0.12743   0.00000  Uiso   1.00
C586   C     0.62984   0.71996   0.11552   0.00000  Uiso   1.00
H587   H     0.63578   0.73127   0.15257   0.00000  Uiso   1.00
H588   H     0.59657   0.69778   0.11123   0.00000  Uiso   1.00
H589   H     0.62041   0.74644   0.09162   0.00000  Uiso   1.00
O590   O     0.51525   0.96142   0.25355   0.00000  Uiso   1.00
C591   C     0.46595   0.95280   0.26816   0.00000  Uiso   1.00
H592   H     0.47163   0.93025   0.29736   0.00000  Uiso   1.00
H593   H     0.43832   0.93778   0.23989   0.00000  Uiso   1.00
C594   C     0.44092   0.99136   0.28620   0.00000  Uiso   1.00
H595   H     0.46426   0.66930   0.31914   0.00000  Uiso   1.00
H596   H     0.43920   0.68293   0.25964   0.00000  Uiso   1.00
C597   C     0.38560   0.98192   0.29568   0.00000  Uiso   1.00
H598   H     0.36038   0.97531   0.26202   0.00000  Uiso   1.00
H599   H     0.37016   0.67564   0.31288   0.00000  Uiso   1.00
H600   H     0.38444   0.95479   0.31905   0.00000  Uiso   1.00
N601   N     0.44146   0.95694   0.08746   0.00000  Uiso   1.00
H602   H     0.43953   0.97295   0.05638   0.00000  Uiso   1.00
C603   C     0.39561   0.93214   0.09202   0.00000  Uiso   1.00
H604   H     0.36075   0.94729   0.07390   0.00000  Uiso   1.00
H605   H     0.39029   0.92707   0.12947   0.00000  Uiso   1.00
H606   H     0.39887   0.90184   0.07462   0.00000  Uiso   1.00
N607   N     0.56044   0.70712   0.23736   0.00000  Uiso   1.00
H608   H     0.59565   0.69338   0.23614   0.00000  Uiso   1.00
C609   C     0.55100   0.71527   0.28517   0.00000  Uiso   1.00
H610   H     0.55378   0.68652   0.30614   0.00000  Uiso   1.00
H611   H     0.51269   0.72926   0.28582   0.00000  Uiso   1.00
H612   H     0.58089   0.73744   0.30194   0.00000  Uiso   1.00
N613   N     0.42405   0.78782   0.27507   0.00000  Uiso   1.00
H614   H     0.43749   0.76298   0.25821   0.00000  Uiso   1.00
C615   C     0.37484   0.77937   0.29179   0.00000  Uiso   1.00
H616   H     0.37898   0.75494   0.31900   0.00000  Uiso   1.00
H617   H     0.34645   0.76804   0.26198   0.00000  Uiso   1.00
H618   H     0.35960   0.80792   0.30620   0.00000  Uiso   1.00
N619   N     0.57259   0.88159   0.05751   0.00000  Uiso   1.00
H620   H     0.60993   0.87235   0.05567   0.00000  Uiso   1.00
C621   C     0.56750   0.92560   0.05030   0.00000  Uiso   1.00
H622   H     0.59275   0.94241   0.07866   0.00000  Uiso   1.00
H623   H     0.52697   0.93499   0.05142   0.00000  Uiso   1.00
H624   H     0.57939   0.93448   0.01581   0.00000  Uiso   1.00
C625   C     0.83352   0.75412   0.16662   0.00000  Uiso   1.00
C626   C     0.82980   0.91254   0.16667   0.00000  Uiso   1.00
C627   C     0.73465   0.83310   0.15467   0.00000  Uiso   1.00
C628   C     0.93202   0.83369   0.17865   0.00000  Uiso   1.00
C629   C     0.67941   0.83212   0.14802   0.00000  Uiso   1.00
C630   C     0.98727   0.83494   0.18520   0.00000  Uiso   1.00
C631   C     0.79766   0.68839   0.12994   0.00000  Uiso   1.00
C632   C     0.84163   0.97957   0.20948   0.00000  Uiso   1.00
C633   C     0.79871   0.97852   0.12837   0.00000  Uiso   1.00
C634   C     0.85295   0.68807   0.20598   0.00000  Uiso   1.00
C635   C     0.82309   0.95725   0.16788   0.00000  Uiso   1.00
C636   C     0.82917   0.70953   0.16674   0.00000  Uiso   1.00
C637   C     0.79755   0.81069   0.02084   0.00000  Uiso   1.00
C638   C     0.86933   0.85580   0.31271   0.00000  Uiso   1.00
C639   C     0.79636   0.81103   0.30428   0.00000  Uiso   1.00
C640   C     0.86879   0.85674   0.02891   0.00000  Uiso   1.00
Cu641  Cu    0.83333   0.83334   0.21355   0.00000  Uiso   1.00
Cu642  Cu    0.83333   0.83333   0.11978   0.00000  Uiso   1.00
H643   H     0.99300   0.82859   0.11236   0.00000  Uiso   1.00
H644   H     0.67374   0.83863   0.22081   0.00000  Uiso   1.00
H645   H     0.77003   0.79235   0.03716   0.00000  Uiso   1.00
H646   H     0.89811   0.87368   0.29724   0.00000  Uiso   1.00
N647   N     0.83335   0.83334   0.28403   0.00000  Uiso   1.00
N648   N     0.83332   0.83332   0.04931   0.00000  Uiso   1.00
O649   O     0.83333   0.77322   0.20625   0.00000  Uiso   1.00
O650   O     0.83334   0.89345   0.12709   0.00000  Uiso   1.00
O651   O     0.83333   0.77321   0.12706   0.00000  Uiso   1.00
O652   O     0.83334   0.89346   0.20628   0.00000  Uiso   1.00
O653   O     0.75828   0.83334   0.19712   0.00000  Uiso   1.00
O654   O     0.90839   0.83333   0.13621   0.00000  Uiso   1.00
O655   O     0.75828   0.83333   0.11793   0.00000  Uiso   1.00
O656   O     0.90839   0.83334   0.21540   0.00000  Uiso   1.00
O657   O     0.76893   0.70935   0.09355   0.00000  Uiso   1.00
C658   C     0.72537   0.72786   0.10965   0.00000  Uiso   1.00
H659   H     0.71581   0.75554   0.08778   0.00000  Uiso   1.00
H660   H     0.73260   0.73888   0.14691   0.00000  Uiso   1.00
C661   C     0.67829   0.69852   0.10357   0.00000  Uiso   1.00
H662   H     0.67124   0.68721   0.06655   0.00000  Uiso   1.00
H663   H     0.68596   0.67181   0.12743   0.00000  Uiso   1.00
C664   C     0.96318   0.71996   0.11552   0.00000  Uiso   1.00
H665   H     0.96911   0.73127   0.15257   0.00000  Uiso   1.00
H666   H     0.92991   0.69778   0.11123   0.00000  Uiso   1.00
H667   H     0.95374   0.74644   0.09162   0.00000  Uiso   1.00
O668   O     0.84859   0.96142   0.25355   0.00000  Uiso   1.00
C669   C     0.79928   0.95280   0.26816   0.00000  Uiso   1.00
H670   H     0.80496   0.93025   0.29736   0.00000  Uiso   1.00
H671   H     0.77165   0.93778   0.23989   0.00000  Uiso   1.00
C672   C     0.77425   0.99136   0.28620   0.00000  Uiso   1.00
H673   H     0.79760   0.66930   0.31914   0.00000  Uiso   1.00
H674   H     0.77253   0.68293   0.25964   0.00000  Uiso   1.00
C675   C     0.71893   0.98192   0.29568   0.00000  Uiso   1.00
H676   H     0.69371   0.97531   0.26202   0.00000  Uiso   1.00
H677   H     0.70349   0.67564   0.31288   0.00000  Uiso   1.00
H678   H     0.71777   0.95479   0.31905   0.00000  Uiso   1.00
N679   N     0.77479   0.95694   0.08746   0.00000  Uiso   1.00
H680   H     0.77286   0.97295   0.05638   0.00000  Uiso   1.00
C681   C     0.72894   0.93214   0.09202   0.00000  Uiso   1.00
H682   H     0.69409   0.94729   0.07390   0.00000  Uiso   1.00
H683   H     0.72362   0.92707   0.12947   0.00000  Uiso   1.00
H684   H     0.73220   0.90184   0.07462   0.00000  Uiso   1.00
N685   N     0.89377   0.70712   0.23736   0.00000  Uiso   1.00
H686   H     0.92899   0.69338   0.23614   0.00000  Uiso   1.00
C687   C     0.88433   0.71527   0.28517   0.00000  Uiso   1.00
H688   H     0.88711   0.68652   0.30614   0.00000  Uiso   1.00
H689   H     0.84602   0.72926   0.28582   0.00000  Uiso   1.00
H690   H     0.91422   0.73744   0.30194   0.00000  Uiso   1.00
N691   N     0.75739   0.78782   0.27507   0.00000  Uiso   1.00
H692   H     0.77083   0.76298   0.25821   0.00000  Uiso   1.00
C693   C     0.70817   0.77937   0.29179   0.00000  Uiso   1.00
H694   H     0.71232   0.75494   0.31900   0.00000  Uiso   1.00
H695   H     0.67978   0.76804   0.26198   0.00000  Uiso   1.00
H696   H     0.69293   0.80792   0.30620   0.00000  Uiso   1.00
N697   N     0.90592   0.88159   0.05751   0.00000  Uiso   1.00
H698   H     0.94326   0.87235   0.05567   0.00000  Uiso   1.00
C699   C     0.90084   0.92560   0.05030   0.00000  Uiso   1.00
H700   H     0.92609   0.94241   0.07866   0.00000  Uiso   1.00
H701   H     0.86031   0.93499   0.05142   0.00000  Uiso   1.00
H702   H     0.91273   0.93448   0.01581   0.00000  Uiso   1.00
C703   C     0.16686   0.08746   0.49995   0.00000  Uiso   1.00
C704   C     0.16313   0.24588   0.50001   0.00000  Uiso   1.00
C705   C     0.06799   0.16644   0.48801   0.00000  Uiso   1.00
C706   C     0.26535   0.16703   0.51198   0.00000  Uiso   1.00
C707   C     0.01274   0.16545   0.48136   0.00000  Uiso   1.00
C708   C     0.32061   0.16828   0.51854   0.00000  Uiso   1.00
C709   C     0.13099   0.02173   0.46327   0.00000  Uiso   1.00
C710   C     0.17496   0.31290   0.54281   0.00000  Uiso   1.00
C711   C     0.13205   0.31185   0.46170   0.00000  Uiso   1.00
C712   C     0.18628   0.02141   0.53931   0.00000  Uiso   1.00
C713   C     0.15642   0.29058   0.50121   0.00000  Uiso   1.00
C714   C     0.16250   0.04286   0.50007   0.00000  Uiso   1.00
C715   C     0.13089   0.14403   0.35417   0.00000  Uiso   1.00
C716   C     0.20266   0.18913   0.64604   0.00000  Uiso   1.00
C717   C     0.12969   0.14436   0.63761   0.00000  Uiso   1.00
C718   C     0.20213   0.19008   0.36224   0.00000  Uiso   1.00
Cu719  Cu    0.16667   0.16667   0.54689   0.00000  Uiso   1.00
Cu720  Cu    0.16667   0.16666   0.45311   0.00000  Uiso   1.00
H721   H     0.32634   0.16193   0.44569   0.00000  Uiso   1.00
H722   H     0.00707   0.17197   0.55414   0.00000  Uiso   1.00
H723   H     0.10336   0.12568   0.37049   0.00000  Uiso   1.00
H724   H     0.23145   0.20701   0.63057   0.00000  Uiso   1.00
N725   N     0.16668   0.16668   0.61736   0.00000  Uiso   1.00
N726   N     0.16665   0.16666   0.38264   0.00000  Uiso   1.00
O727   O     0.16666   0.10655   0.53958   0.00000  Uiso   1.00
O728   O     0.16667   0.22678   0.46042   0.00000  Uiso   1.00
O729   O     0.16666   0.10654   0.46039   0.00000  Uiso   1.00
O730   O     0.16667   0.22679   0.53961   0.00000  Uiso   1.00
O731   O     0.09161   0.16667   0.53046   0.00000  Uiso   1.00
O732   O     0.24172   0.16666   0.46954   0.00000  Uiso   1.00
O733   O     0.09161   0.16666   0.45127   0.00000  Uiso   1.00
O734   O     0.24172   0.16667   0.54873   0.00000  Uiso   1.00
O735   O     0.10226   0.04269   0.42689   0.00000  Uiso   1.00
C736   C     0.05871   0.06119   0.44299   0.00000  Uiso   1.00
H737   H     0.04915   0.08887   0.42111   0.00000  Uiso   1.00
H738   H     0.06593   0.07221   0.48024   0.00000  Uiso   1.00
C739   C     0.01162   0.03186   0.43690   0.00000  Uiso   1.00
H740   H     0.00457   0.02054   0.39988   0.00000  Uiso   1.00
H741   H     0.01930   0.00515   0.46076   0.00000  Uiso   1.00
C742   C     0.29651   0.05330   0.44885   0.00000  Uiso   1.00
H743   H     0.30245   0.06460   0.48590   0.00000  Uiso   1.00
H744   H     0.26324   0.03111   0.44456   0.00000  Uiso   1.00
H745   H     0.28708   0.07977   0.42496   0.00000  Uiso   1.00
O746   O     0.18192   0.29476   0.58688   0.00000  Uiso   1.00
C747   C     0.13262   0.28614   0.60149   0.00000  Uiso   1.00
H748   H     0.13830   0.26359   0.63069   0.00000  Uiso   1.00
H749   H     0.10498   0.27112   0.57323   0.00000  Uiso   1.00
C750   C     0.10758   0.32469   0.61953   0.00000  Uiso   1.00
H751   H     0.13093   0.00263   0.65247   0.00000  Uiso   1.00
H752   H     0.10587   0.01626   0.59298   0.00000  Uiso   1.00
C753   C     0.05227   0.31525   0.62902   0.00000  Uiso   1.00
H754   H     0.02705   0.30864   0.59536   0.00000  Uiso   1.00
H755   H     0.03682   0.00897   0.64621   0.00000  Uiso   1.00
H756   H     0.05111   0.28812   0.65238   0.00000  Uiso   1.00
N757   N     0.10813   0.29028   0.42079   0.00000  Uiso   1.00
H758   H     0.10619   0.30628   0.38971   0.00000  Uiso   1.00
C759   C     0.06227   0.26547   0.42536   0.00000  Uiso   1.00
H760   H     0.02742   0.28062   0.40723   0.00000  Uiso   1.00
H761   H     0.05696   0.26041   0.46280   0.00000  Uiso   1.00
H762   H     0.06553   0.23518   0.40796   0.00000  Uiso   1.00
N763   N     0.22711   0.04046   0.57069   0.00000  Uiso   1.00
H764   H     0.26232   0.02671   0.56948   0.00000  Uiso   1.00
C765   C     0.21767   0.04861   0.61851   0.00000  Uiso   1.00
H766   H     0.22045   0.01985   0.63947   0.00000  Uiso   1.00
H767   H     0.17936   0.06259   0.61916   0.00000  Uiso   1.00
H768   H     0.24756   0.07077   0.63527   0.00000  Uiso   1.00
N769   N     0.09072   0.12115   0.60840   0.00000  Uiso   1.00
H770   H     0.10416   0.09631   0.59155   0.00000  Uiso   1.00
C771   C     0.04151   0.11271   0.62512   0.00000  Uiso   1.00
H772   H     0.04565   0.08827   0.65233   0.00000  Uiso   1.00
H773   H     0.01311   0.10137   0.59532   0.00000  Uiso   1.00
H774   H     0.02626   0.14125   0.63953   0.00000  Uiso   1.00
N775   N     0.23926   0.21492   0.39084   0.00000  Uiso   1.00
H776   H     0.27659   0.20568   0.38900   0.00000  Uiso   1.00
C777   C     0.23417   0.25893   0.38364   0.00000  Uiso   1.00
H778   H     0.25942   0.27574   0.41200   0.00000  Uiso   1.00
H779   H     0.19364   0.26832   0.38475   0.00000  Uiso   1.00
H780   H     0.24606   0.26782   0.34915   0.00000  Uiso   1.00
C781   C     0.50019   0.08746   0.49995   0.00000  Uiso   1.00
C782   C     0.49646   0.24588   0.50001   0.00000  Uiso   1.00
C783   C     0.40132   0.16644   0.48801   0.00000  Uiso   1.00
C784   C     0.59869   0.16703   0.51198   0.00000  Uiso   1.00
C785   C     0.34607   0.16545   0.48136   0.00000  Uiso   1.00
C786   C     0.65394   0.16828   0.51854   0.00000  Uiso   1.00
C787   C     0.46433   0.02173   0.46327   0.00000  Uiso   1.00
C788   C     0.50830   0.31290   0.54281   0.00000  Uiso   1.00
C789   C     0.46538   0.31185   0.46170   0.00000  Uiso   1.00
C790   C     0.51961   0.02141   0.53931   0.00000  Uiso   1.00
C791   C     0.48975   0.29058   0.50121   0.00000  Uiso   1.00
C792   C     0.49583   0.04286   0.50007   0.00000  Uiso   1.00
C793   C     0.46422   0.14403   0.35417   0.00000  Uiso   1.00
C794   C     0.53600   0.18913   0.64604   0.00000  Uiso   1.00
C795   C     0.46303   0.14436   0.63761   0.00000  Uiso   1.00
C796   C     0.53546   0.19008   0.36224   0.00000  Uiso   1.00
Cu797  Cu    0.50000   0.16667   0.54689   0.00000  Uiso   1.00
Cu798  Cu    0.50000   0.16666   0.45311   0.00000  Uiso   1.00
H799   H     0.65967   0.16193   0.44569   0.00000  Uiso   1.00
H800   H     0.34041   0.17197   0.55414   0.00000  Uiso   1.00
H801   H     0.43669   0.12568   0.37049   0.00000  Uiso   1.00
H802   H     0.56478   0.20701   0.63057   0.00000  Uiso   1.00
N803   N     0.50001   0.16668   0.61736   0.00000  Uiso   1.00
N804   N     0.49999   0.16666   0.38264   0.00000  Uiso   1.00
O805   O     0.50000   0.10655   0.53958   0.00000  Uiso   1.00
O806   O     0.50000   0.22678   0.46042   0.00000  Uiso   1.00
O807   O     0.50000   0.10654   0.46039   0.00000  Uiso   1.00
O808   O     0.50000   0.22679   0.53961   0.00000  Uiso   1.00
O809   O     0.42495   0.16667   0.53046   0.00000  Uiso   1.00
O810   O     0.57505   0.16666   0.46954   0.00000  Uiso   1.00
O811   O     0.42494   0.16666   0.45127   0.00000  Uiso   1.00
O812   O     0.57506   0.16667   0.54873   0.00000  Uiso   1.00
O813   O     0.43559   0.04269   0.42689   0.00000  Uiso   1.00
C814   C     0.39204   0.06119   0.44299   0.00000  Uiso   1.00
H815   H     0.38248   0.08887   0.42111   0.00000  Uiso   1.00
H816   H     0.39927   0.07221   0.48024   0.00000  Uiso   1.00
C817   C     0.34495   0.03186   0.43690   0.00000  Uiso   1.00
H818   H     0.33791   0.02054   0.39988   0.00000  Uiso   1.00
H819   H     0.35263   0.00515   0.46076   0.00000  Uiso   1.00
C820   C     0.62984   0.05330   0.44885   0.00000  Uiso   1.00
H821   H     0.63578   0.06460   0.48590   0.00000  Uiso   1.00
H822   H     0.59657   0.03111   0.44456   0.00000  Uiso   1.00
H823   H     0.62041   0.07977   0.42496   0.00000  Uiso   1.00
O824   O     0.51525   0.29476   0.58688   0.00000  Uiso   1.00
C825   C     0.46595   0.28614   0.60149   0.00000  Uiso   1.00
H826   H     0.47163   0.26359   0.63069   0.00000  Uiso   1.00
H827   H     0.43832   0.27112   0.57323   0.00000  Uiso   1.00
C828   C     0.44092   0.32469   0.61953   0.00000  Uiso   1.00
H829   H     0.46426   0.00263   0.65247   0.00000  Uiso   1.00
H830   H     0.43920   0.01626   0.59298   0.00000  Uiso   1.00
C831   C     0.38560   0.31525   0.62902   0.00000  Uiso   1.00
H832   H     0.36038   0.30864   0.59536   0.00000  Uiso   1.00
H833   H     0.37016   0.00897   0.64621   0.00000  Uiso   1.00
H834   H     0.38444   0.28812   0.65238   0.00000  Uiso   1.00
N835   N     0.44146   0.29028   0.42079   0.00000  Uiso   1.00
H836   H     0.43953   0.30628   0.38971   0.00000  Uiso   1.00
C837   C     0.39561   0.26547   0.42536   0.00000  Uiso   1.00
H838   H     0.36075   0.28062   0.40723   0.00000  Uiso   1.00
H839   H     0.39029   0.26041   0.46280   0.00000  Uiso   1.00
H840   H     0.39887   0.23518   0.40796   0.00000  Uiso   1.00
N841   N     0.56044   0.04046   0.57069   0.00000  Uiso   1.00
H842   H     0.59565   0.02671   0.56948   0.00000  Uiso   1.00
C843   C     0.55100   0.04861   0.61851   0.00000  Uiso   1.00
H844   H     0.55378   0.01985   0.63947   0.00000  Uiso   1.00
H845   H     0.51269   0.06259   0.61916   0.00000  Uiso   1.00
H846   H     0.58089   0.07077   0.63527   0.00000  Uiso   1.00
N847   N     0.42405   0.12115   0.60840   0.00000  Uiso   1.00
H848   H     0.43749   0.09631   0.59155   0.00000  Uiso   1.00
C849   C     0.37484   0.11271   0.62512   0.00000  Uiso   1.00
H850   H     0.37898   0.08827   0.65233   0.00000  Uiso   1.00
H851   H     0.34645   0.10137   0.59532   0.00000  Uiso   1.00
H852   H     0.35960   0.14125   0.63953   0.00000  Uiso   1.00
N853   N     0.57259   0.21492   0.39084   0.00000  Uiso   1.00
H854   H     0.60993   0.20568   0.38900   0.00000  Uiso   1.00
C855   C     0.56750   0.25893   0.38364   0.00000  Uiso   1.00
H856   H     0.59275   0.27574   0.41200   0.00000  Uiso   1.00
H857   H     0.52697   0.26832   0.38475   0.00000  Uiso   1.00
H858   H     0.57939   0.26782   0.34915   0.00000  Uiso   1.00
C859   C     0.83352   0.08746   0.49995   0.00000  Uiso   1.00
C860   C     0.82980   0.24588   0.50001   0.00000  Uiso   1.00
C861   C     0.73465   0.16644   0.48801   0.00000  Uiso   1.00
C862   C     0.93202   0.16703   0.51198   0.00000  Uiso   1.00
C863   C     0.67941   0.16545   0.48136   0.00000  Uiso   1.00
C864   C     0.98727   0.16828   0.51854   0.00000  Uiso   1.00
C865   C     0.79766   0.02173   0.46327   0.00000  Uiso   1.00
C866   C     0.84163   0.31290   0.54281   0.00000  Uiso   1.00
C867   C     0.79871   0.31185   0.46170   0.00000  Uiso   1.00
C868   C     0.85295   0.02141   0.53931   0.00000  Uiso   1.00
C869   C     0.82309   0.29058   0.50121   0.00000  Uiso   1.00
C870   C     0.82917   0.04286   0.50007   0.00000  Uiso   1.00
C871   C     0.79755   0.14403   0.35417   0.00000  Uiso   1.00
C872   C     0.86933   0.18913   0.64604   0.00000  Uiso   1.00
C873   C     0.79636   0.14436   0.63761   0.00000  Uiso   1.00
C874   C     0.86879   0.19008   0.36224   0.00000  Uiso   1.00
Cu875  Cu    0.83333   0.16667   0.54689   0.00000  Uiso   1.00
Cu876  Cu    0.83333   0.16666   0.45311   0.00000  Uiso   1.00
H877   H     0.99300   0.16193   0.44569   0.00000  Uiso   1.00
H878   H     0.67374   0.17197   0.55414   0.00000  Uiso   1.00
H879   H     0.77003   0.12568   0.37049   0.00000  Uiso   1.00
H880   H     0.89811   0.20701   0.63057   0.00000  Uiso   1.00
N881   N     0.83335   0.16668   0.61736   0.00000  Uiso   1.00
N882   N     0.83332   0.16666   0.38264   0.00000  Uiso   1.00
O883   O     0.83333   0.10655   0.53958   0.00000  Uiso   1.00
O884   O     0.83334   0.22678   0.46042   0.00000  Uiso   1.00
O885   O     0.83333   0.10654   0.46039   0.00000  Uiso   1.00
O886   O     0.83334   0.22679   0.53961   0.00000  Uiso   1.00
O887   O     0.75828   0.16667   0.53046   0.00000  Uiso   1.00
O888   O     0.90839   0.16666   0.46954   0.00000  Uiso   1.00
O889   O     0.75828   0.16666   0.45127   0.00000  Uiso   1.00
O890   O     0.90839   0.16667   0.54873   0.00000  Uiso   1.00
O891   O     0.76893   0.04269   0.42689   0.00000  Uiso   1.00
C892   C     0.72537   0.06119   0.44299   0.00000  Uiso   1.00
H893   H     0.71581   0.08887   0.42111   0.00000  Uiso   1.00
H894   H     0.73260   0.07221   0.48024   0.00000  Uiso   1.00
C895   C     0.67829   0.03186   0.43690   0.00000  Uiso   1.00
H896   H     0.67124   0.02054   0.39988   0.00000  Uiso   1.00
H897   H     0.68596   0.00515   0.46076   0.00000  Uiso   1.00
C898   C     0.96318   0.05330   0.44885   0.00000  Uiso   1.00
H899   H     0.96911   0.06460   0.48590   0.00000  Uiso   1.00
H900   H     0.92991   0.03111   0.44456   0.00000  Uiso   1.00
H901   H     0.95374   0.07977   0.42496   0.00000  Uiso   1.00
O902   O     0.84859   0.29476   0.58688   0.00000  Uiso   1.00
C903   C     0.79928   0.28614   0.60149   0.00000  Uiso   1.00
H904   H     0.80496   0.26359   0.63069   0.00000  Uiso   1.00
H905   H     0.77165   0.27112   0.57323   0.00000  Uiso   1.00
C906   C     0.77425   0.32469   0.61953   0.00000  Uiso   1.00
H907   H     0.79760   0.00263   0.65247   0.00000  Uiso   1.00
H908   H     0.77253   0.01626   0.59298   0.00000  Uiso   1.00
C909   C     0.71893   0.31525   0.62902   0.00000  Uiso   1.00
H910   H     0.69371   0.30864   0.59536   0.00000  Uiso   1.00
H911   H     0.70349   0.00897   0.64621   0.00000  Uiso   1.00
H912   H     0.71777   0.28812   0.65238   0.00000  Uiso   1.00
N913   N     0.77479   0.29028   0.42079   0.00000  Uiso   1.00
H914   H     0.77286   0.30628   0.38971   0.00000  Uiso   1.00
C915   C     0.72894   0.26547   0.42536   0.00000  Uiso   1.00
H916   H     0.69409   0.28062   0.40723   0.00000  Uiso   1.00
H917   H     0.72362   0.26041   0.46280   0.00000  Uiso   1.00
H918   H     0.73220   0.23518   0.40796   0.00000  Uiso   1.00
N919   N     0.89377   0.04046   0.57069   0.00000  Uiso   1.00
H920   H     0.92899   0.02671   0.56948   0.00000  Uiso   1.00
C921   C     0.88433   0.04861   0.61851   0.00000  Uiso   1.00
H922   H     0.88711   0.01985   0.63947   0.00000  Uiso   1.00
H923   H     0.84602   0.06259   0.61916   0.00000  Uiso   1.00
H924   H     0.91422   0.07077   0.63527   0.00000  Uiso   1.00
N925   N     0.75739   0.12115   0.60840   0.00000  Uiso   1.00
H926   H     0.77083   0.09631   0.59155   0.00000  Uiso   1.00
C927   C     0.70817   0.11271   0.62512   0.00000  Uiso   1.00
H928   H     0.71232   0.08827   0.65233   0.00000  Uiso   1.00
H929   H     0.67978   0.10137   0.59532   0.00000  Uiso   1.00
H930   H     0.69293   0.14125   0.63953   0.00000  Uiso   1.00
N931   N     0.90592   0.21492   0.39084   0.00000  Uiso   1.00
H932   H     0.94326   0.20568   0.38900   0.00000  Uiso   1.00
C933   C     0.90084   0.25893   0.38364   0.00000  Uiso   1.00
H934   H     0.92609   0.27574   0.41200   0.00000  Uiso   1.00
H935   H     0.86031   0.26832   0.38475   0.00000  Uiso   1.00
H936   H     0.91273   0.26782   0.34915   0.00000  Uiso   1.00
C937   C     0.16686   0.42079   0.49995   0.00000  Uiso   1.00
C938   C     0.16313   0.57921   0.50001   0.00000  Uiso   1.00
C939   C     0.06799   0.49977   0.48801   0.00000  Uiso   1.00
C940   C     0.26535   0.50036   0.51198   0.00000  Uiso   1.00
C941   C     0.01274   0.49878   0.48136   0.00000  Uiso   1.00
C942   C     0.32061   0.50161   0.51854   0.00000  Uiso   1.00
C943   C     0.13099   0.35506   0.46327   0.00000  Uiso   1.00
C944   C     0.17496   0.64623   0.54281   0.00000  Uiso   1.00
C945   C     0.13205   0.64519   0.46170   0.00000  Uiso   1.00
C946   C     0.18628   0.35474   0.53931   0.00000  Uiso   1.00
C947   C     0.15642   0.62392   0.50121   0.00000  Uiso   1.00
C948   C     0.16250   0.37620   0.50007   0.00000  Uiso   1.00
C949   C     0.13089   0.47736   0.35417   0.00000  Uiso   1.00
C950   C     0.20266   0.52246   0.64604   0.00000  Uiso   1.00
C951   C     0.12969   0.47769   0.63761   0.00000  Uiso   1.00
C952   C     0.20213   0.52341   0.36224   0.00000  Uiso   1.00
Cu953  Cu    0.16667   0.50001   0.54689   0.00000  Uiso   1.00
Cu954  Cu    0.16667   0.49999   0.45311   0.00000  Uiso   1.00
H955   H     0.32634   0.49526   0.44569   0.00000  Uiso   1.00
H956   H     0.00707   0.50530   0.55414   0.00000  Uiso   1.00
H957   H     0.10336   0.45902   0.37049   0.00000  Uiso   1.00
H958   H     0.23145   0.54035   0.63057   0.00000  Uiso   1.00
N959   N     0.16668   0.50001   0.61736   0.00000  Uiso   1.00
N960   N     0.16665   0.49999   0.38264   0.00000  Uiso   1.00
O961   O     0.16666   0.43989   0.53958   0.00000  Uiso   1.00
O962   O     0.16667   0.56011   0.46042   0.00000  Uiso   1.00
O963   O     0.16666   0.43988   0.46039   0.00000  Uiso   1.00
O964   O     0.16667   0.56012   0.53961   0.00000  Uiso   1.00
O965   O     0.09161   0.50000   0.53046   0.00000  Uiso   1.00
O966   O     0.24172   0.50000   0.46954   0.00000  Uiso   1.00
O967   O     0.09161   0.49999   0.45127   0.00000  Uiso   1.00
O968   O     0.24172   0.50001   0.54873   0.00000  Uiso   1.00
O969   O     0.10226   0.37602   0.42689   0.00000  Uiso   1.00
C970   C     0.05871   0.39453   0.44299   0.00000  Uiso   1.00
H971   H     0.04915   0.42221   0.42111   0.00000  Uiso   1.00
H972   H     0.06593   0.40554   0.48024   0.00000  Uiso   1.00
C973   C     0.01162   0.36519   0.43690   0.00000  Uiso   1.00
H974   H     0.00457   0.35387   0.39988   0.00000  Uiso   1.00
H975   H     0.01930   0.33848   0.46076   0.00000  Uiso   1.00
C976   C     0.29651   0.38663   0.44885   0.00000  Uiso   1.00
H977   H     0.30245   0.39794   0.48590   0.00000  Uiso   1.00
H978   H     0.26324   0.36445   0.44456   0.00000  Uiso   1.00
H979   H     0.28708   0.41310   0.42496   0.00000  Uiso   1.00
O980   O     0.18192   0.62809   0.58688   0.00000  Uiso   1.00
C981   C     0.13262   0.61947   0.60149   0.00000  Uiso   1.00
H982   H     0.13830   0.59692   0.63069   0.00000  Uiso   1.00
H983   H     0.10498   0.60445   0.57323   0.00000  Uiso   1.00
C984   C     0.10758   0.65803   0.61953   0.00000  Uiso   1.00
H985   H     0.13093   0.33596   0.65247   0.00000  Uiso   1.00
H986   H     0.10587   0.34960   0.59298   0.00000  Uiso   1.00
C987   C     0.05227   0.64858   0.62902   0.00000  Uiso   1.00
H988   H     0.02705   0.64197   0.59536   0.00000  Uiso   1.00
H989   H     0.03682   0.34231   0.64621   0.00000  Uiso   1.00
H990   H     0.05111   0.62146   0.65238   0.00000  Uiso   1.00
N991   N     0.10813   0.62361   0.42079   0.00000  Uiso   1.00
H992   H     0.10619   0.63962   0.38971   0.00000  Uiso   1.00
C993   C     0.06227   0.59881   0.42536   0.00000  Uiso   1.00
H994   H     0.02742   0.61395   0.40723   0.00000  Uiso   1.00
H995   H     0.05696   0.59374   0.46280   0.00000  Uiso   1.00
H996   H     0.06553   0.56851   0.40796   0.00000  Uiso   1.00
N997   N     0.22711   0.37379   0.57069   0.00000  Uiso   1.00
H998   H     0.26232   0.36005   0.56948   0.00000  Uiso   1.00
C999   C     0.21767   0.38194   0.61851   0.00000  Uiso   1.00
H1000  H     0.22045   0.35319   0.63947   0.00000  Uiso   1.00
H1001  H     0.17936   0.39593   0.61916   0.00000  Uiso   1.00
H1002  H     0.24756   0.40411   0.63527   0.00000  Uiso   1.00
N1003  N     0.09072   0.45448   0.60840   0.00000  Uiso   1.00
H1004  H     0.10416   0.42964   0.59155   0.00000  Uiso   1.00
C1005  C     0.04151   0.44604   0.62512   0.00000  Uiso   1.00
H1006  H     0.04565   0.42160   0.65233   0.00000  Uiso   1.00
H1007  H     0.01311   0.43471   0.59532   0.00000  Uiso   1.00
H1008  H     0.02626   0.47458   0.63953   0.00000  Uiso   1.00
N1009  N     0.23926   0.54825   0.39084   0.00000  Uiso   1.00
H1010  H     0.27659   0.53901   0.38900   0.00000  Uiso   1.00
C1011  C     0.23417   0.59226   0.38364   0.00000  Uiso   1.00
H1012  H     0.25942   0.60908   0.41200   0.00000  Uiso   1.00
H1013  H     0.19364   0.60165   0.38475   0.00000  Uiso   1.00
H1014  H     0.24606   0.60115   0.34915   0.00000  Uiso   1.00
C1015  C     0.50019   0.42079   0.49995   0.00000  Uiso   1.00
C1016  C     0.49646   0.57921   0.50001   0.00000  Uiso   1.00
C1017  C     0.40132   0.49977   0.48801   0.00000  Uiso   1.00
C1018  C     0.59869   0.50036   0.51198   0.00000  Uiso   1.00
C1019  C     0.34607   0.49878   0.48136   0.00000  Uiso   1.00
C1020  C     0.65394   0.50161   0.51854   0.00000  Uiso   1.00
C1021  C     0.46433   0.35506   0.46327   0.00000  Uiso   1.00
C1022  C     0.50830   0.64623   0.54281   0.00000  Uiso   1.00
C1023  C     0.46538   0.64519   0.46170   0.00000  Uiso   1.00
C1024  C     0.51961   0.35474   0.53931   0.00000  Uiso   1.00
C1025  C     0.48975   0.62392   0.50121   0.00000  Uiso   1.00
C1026  C     0.49583   0.37620   0.50007   0.00000  Uiso   1.00
C1027  C     0.46422   0.47736   0.35417   0.00000  Uiso   1.00
C1028  C     0.53600   0.52246   0.64604   0.00000  Uiso   1.00
C1029  C     0.46303   0.47769   0.63761   0.00000  Uiso   1.00
C1030  C     0.53546   0.52341   0.36224   0.00000  Uiso   1.00
Cu1031 Cu    0.50000   0.50001   0.54689   0.00000  Uiso   1.00
Cu1032 Cu    0.50000   0.49999   0.45311   0.00000  Uiso   1.00
H1033  H     0.65967   0.49526   0.44569   0.00000  Uiso   1.00
H1034  H     0.34041   0.50530   0.55414   0.00000  Uiso   1.00
H1035  H     0.43669   0.45902   0.37049   0.00000  Uiso   1.00
H1036  H     0.56478   0.54035   0.63057   0.00000  Uiso   1.00
N1037  N     0.50001   0.50001   0.61736   0.00000  Uiso   1.00
N1038  N     0.49999   0.49999   0.38264   0.00000  Uiso   1.00
O1039  O     0.50000   0.43989   0.53958   0.00000  Uiso   1.00
O1040  O     0.50000   0.56011   0.46042   0.00000  Uiso   1.00
O1041  O     0.50000   0.43988   0.46039   0.00000  Uiso   1.00
O1042  O     0.50000   0.56012   0.53961   0.00000  Uiso   1.00
O1043  O     0.42495   0.50000   0.53046   0.00000  Uiso   1.00
O1044  O     0.57505   0.50000   0.46954   0.00000  Uiso   1.00
O1045  O     0.42494   0.49999   0.45127   0.00000  Uiso   1.00
O1046  O     0.57506   0.50001   0.54873   0.00000  Uiso   1.00
O1047  O     0.43559   0.37602   0.42689   0.00000  Uiso   1.00
C1048  C     0.39204   0.39453   0.44299   0.00000  Uiso   1.00
H1049  H     0.38248   0.42221   0.42111   0.00000  Uiso   1.00
H1050  H     0.39927   0.40554   0.48024   0.00000  Uiso   1.00
C1051  C     0.34495   0.36519   0.43690   0.00000  Uiso   1.00
H1052  H     0.33791   0.35387   0.39988   0.00000  Uiso   1.00
H1053  H     0.35263   0.33848   0.46076   0.00000  Uiso   1.00
C1054  C     0.62984   0.38663   0.44885   0.00000  Uiso   1.00
H1055  H     0.63578   0.39794   0.48590   0.00000  Uiso   1.00
H1056  H     0.59657   0.36445   0.44456   0.00000  Uiso   1.00
H1057  H     0.62041   0.41310   0.42496   0.00000  Uiso   1.00
O1058  O     0.51525   0.62809   0.58688   0.00000  Uiso   1.00
C1059  C     0.46595   0.61947   0.60149   0.00000  Uiso   1.00
H1060  H     0.47163   0.59692   0.63069   0.00000  Uiso   1.00
H1061  H     0.43832   0.60445   0.57323   0.00000  Uiso   1.00
C1062  C     0.44092   0.65803   0.61953   0.00000  Uiso   1.00
H1063  H     0.46426   0.33596   0.65247   0.00000  Uiso   1.00
H1064  H     0.43920   0.34960   0.59298   0.00000  Uiso   1.00
C1065  C     0.38560   0.64858   0.62902   0.00000  Uiso   1.00
H1066  H     0.36038   0.64197   0.59536   0.00000  Uiso   1.00
H1067  H     0.37016   0.34231   0.64621   0.00000  Uiso   1.00
H1068  H     0.38444   0.62146   0.65238   0.00000  Uiso   1.00
N1069  N     0.44146   0.62361   0.42079   0.00000  Uiso   1.00
H1070  H     0.43953   0.63962   0.38971   0.00000  Uiso   1.00
C1071  C     0.39561   0.59881   0.42536   0.00000  Uiso   1.00
H1072  H     0.36075   0.61395   0.40723   0.00000  Uiso   1.00
H1073  H     0.39029   0.59374   0.46280   0.00000  Uiso   1.00
H1074  H     0.39887   0.56851   0.40796   0.00000  Uiso   1.00
N1075  N     0.56044   0.37379   0.57069   0.00000  Uiso   1.00
H1076  H     0.59565   0.36005   0.56948   0.00000  Uiso   1.00
C1077  C     0.55100   0.38194   0.61851   0.00000  Uiso   1.00
H1078  H     0.55378   0.35319   0.63947   0.00000  Uiso   1.00
H1079  H     0.51269   0.39593   0.61916   0.00000  Uiso   1.00
H1080  H     0.58089   0.40411   0.63527   0.00000  Uiso   1.00
N1081  N     0.42405   0.45448   0.60840   0.00000  Uiso   1.00
H1082  H     0.43749   0.42964   0.59155   0.00000  Uiso   1.00
C1083  C     0.37484   0.44604   0.62512   0.00000  Uiso   1.00
H1084  H     0.37898   0.42160   0.65233   0.00000  Uiso   1.00
H1085  H     0.34645   0.43471   0.59532   0.00000  Uiso   1.00
H1086  H     0.35960   0.47458   0.63953   0.00000  Uiso   1.00
N1087  N     0.57259   0.54825   0.39084   0.00000  Uiso   1.00
H1088  H     0.60993   0.53901   0.38900   0.00000  Uiso   1.00
C1089  C     0.56750   0.59226   0.38364   0.00000  Uiso   1.00
H1090  H     0.59275   0.60908   0.41200   0.00000  Uiso   1.00
H1091  H     0.52697   0.60165   0.38475   0.00000  Uiso   1.00
H1092  H     0.57939   0.60115   0.34915   0.00000  Uiso   1.00
C1093  C     0.83352   0.42079   0.49995   0.00000  Uiso   1.00
C1094  C     0.82980   0.57921   0.50001   0.00000  Uiso   1.00
C1095  C     0.73465   0.49977   0.48801   0.00000  Uiso   1.00
C1096  C     0.93202   0.50036   0.51198   0.00000  Uiso   1.00
C1097  C     0.67941   0.49878   0.48136   0.00000  Uiso   1.00
C1098  C     0.98727   0.50161   0.51854   0.00000  Uiso   1.00
C1099  C     0.79766   0.35506   0.46327   0.00000  Uiso   1.00
C1100  C     0.84163   0.64623   0.54281   0.00000  Uiso   1.00
C1101  C     0.79871   0.64519   0.46170   0.00000  Uiso   1.00
C1102  C     0.85295   0.35474   0.53931   0.00000  Uiso   1.00
C1103  C     0.82309   0.62392   0.50121   0.00000  Uiso   1.00
C1104  C     0.82917   0.37620   0.50007   0.00000  Uiso   1.00
C1105  C     0.79755   0.47736   0.35417   0.00000  Uiso   1.00
C1106  C     0.86933   0.52246   0.64604   0.00000  Uiso   1.00
C1107  C     0.79636   0.47769   0.63761   0.00000  Uiso   1.00
C1108  C     0.86879   0.52341   0.36224   0.00000  Uiso   1.00
Cu1109 Cu    0.83333   0.50001   0.54689   0.00000  Uiso   1.00
Cu1110 Cu    0.83333   0.49999   0.45311   0.00000  Uiso   1.00
H1111  H     0.99300   0.49526   0.44569   0.00000  Uiso   1.00
H1112  H     0.67374   0.50530   0.55414   0.00000  Uiso   1.00
H1113  H     0.77003   0.45902   0.37049   0.00000  Uiso   1.00
H1114  H     0.89811   0.54035   0.63057   0.00000  Uiso   1.00
N1115  N     0.83335   0.50001   0.61736   0.00000  Uiso   1.00
N1116  N     0.83332   0.49999   0.38264   0.00000  Uiso   1.00
O1117  O     0.83333   0.43989   0.53958   0.00000  Uiso   1.00
O1118  O     0.83334   0.56011   0.46042   0.00000  Uiso   1.00
O1119  O     0.83333   0.43988   0.46039   0.00000  Uiso   1.00
O1120  O     0.83334   0.56012   0.53961   0.00000  Uiso   1.00
O1121  O     0.75828   0.50000   0.53046   0.00000  Uiso   1.00
O1122  O     0.90839   0.50000   0.46954   0.00000  Uiso   1.00
O1123  O     0.75828   0.49999   0.45127   0.00000  Uiso   1.00
O1124  O     0.90839   0.50001   0.54873   0.00000  Uiso   1.00
O1125  O     0.76893   0.37602   0.42689   0.00000  Uiso   1.00
C1126  C     0.72537   0.39453   0.44299   0.00000  Uiso   1.00
H1127  H     0.71581   0.42221   0.42111   0.00000  Uiso   1.00
H1128  H     0.73260   0.40554   0.48024   0.00000  Uiso   1.00
C1129  C     0.67829   0.36519   0.43690   0.00000  Uiso   1.00
H1130  H     0.67124   0.35387   0.39988   0.00000  Uiso   1.00
H1131  H     0.68596   0.33848   0.46076   0.00000  Uiso   1.00
C1132  C     0.96318   0.38663   0.44885   0.00000  Uiso   1.00
H1133  H     0.96911   0.39794   0.48590   0.00000  Uiso   1.00
H1134  H     0.92991   0.36445   0.44456   0.00000  Uiso   1.00
H1135  H     0.95374   0.41310   0.42496   0.00000  Uiso   1.00
O1136  O     0.84859   0.62809   0.58688   0.00000  Uiso   1.00
C1137  C     0.79928   0.61947   0.60149   0.00000  Uiso   1.00
H1138  H     0.80496   0.59692   0.63069   0.00000  Uiso   1.00
H1139  H     0.77165   0.60445   0.57323   0.00000  Uiso   1.00
C1140  C     0.77425   0.65803   0.61953   0.00000  Uiso   1.00
H1141  H     0.79760   0.33596   0.65247   0.00000  Uiso   1.00
H1142  H     0.77253   0.34960   0.59298   0.00000  Uiso   1.00
C1143  C     0.71893   0.64858   0.62902   0.00000  Uiso   1.00
H1144  H     0.69371   0.64197   0.59536   0.00000  Uiso   1.00
H1145  H     0.70349   0.34231   0.64621   0.00000  Uiso   1.00
H1146  H     0.71777   0.62146   0.65238   0.00000  Uiso   1.00
N1147  N     0.77479   0.62361   0.42079   0.00000  Uiso   1.00
H1148  H     0.77286   0.63962   0.38971   0.00000  Uiso   1.00
C1149  C     0.72894   0.59881   0.42536   0.00000  Uiso   1.00
H1150  H     0.69409   0.61395   0.40723   0.00000  Uiso   1.00
H1151  H     0.72362   0.59374   0.46280   0.00000  Uiso   1.00
H1152  H     0.73220   0.56851   0.40796   0.00000  Uiso   1.00
N1153  N     0.89377   0.37379   0.57069   0.00000  Uiso   1.00
H1154  H     0.92899   0.36005   0.56948   0.00000  Uiso   1.00
C1155  C     0.88433   0.38194   0.61851   0.00000  Uiso   1.00
H1156  H     0.88711   0.35319   0.63947   0.00000  Uiso   1.00
H1157  H     0.84602   0.39593   0.61916   0.00000  Uiso   1.00
H1158  H     0.91422   0.40411   0.63527   0.00000  Uiso   1.00
N1159  N     0.75739   0.45448   0.60840   0.00000  Uiso   1.00
H1160  H     0.77083   0.42964   0.59155   0.00000  Uiso   1.00
C1161  C     0.70817   0.44604   0.62512   0.00000  Uiso   1.00
H1162  H     0.71232   0.42160   0.65233   0.00000  Uiso   1.00
H1163  H     0.67978   0.43471   0.59532   0.00000  Uiso   1.00
H1164  H     0.69293   0.47458   0.63953   0.00000  Uiso   1.00
N1165  N     0.90592   0.54825   0.39084   0.00000  Uiso   1.00
H1166  H     0.94326   0.53901   0.38900   0.00000  Uiso   1.00
C1167  C     0.90084   0.59226   0.38364   0.00000  Uiso   1.00
H1168  H     0.92609   0.60908   0.41200   0.00000  Uiso   1.00
H1169  H     0.86031   0.60165   0.38475   0.00000  Uiso   1.00
H1170  H     0.91273   0.60115   0.34915   0.00000  Uiso   1.00
C1171  C     0.16686   0.75412   0.49995   0.00000  Uiso   1.00
C1172  C     0.16313   0.91254   0.50001   0.00000  Uiso   1.00
C1173  C     0.06799   0.83310   0.48801   0.00000  Uiso   1.00
C1174  C     0.26535   0.83369   0.51198   0.00000  Uiso   1.00
C1175  C     0.01274   0.83212   0.48136   0.00000  Uiso   1.00
C1176  C     0.32061   0.83494   0.51854   0.00000  Uiso   1.00
C1177  C     0.13099   0.68839   0.46327   0.00000  Uiso   1.00
C1178  C     0.17496   0.97957   0.54281   0.00000  Uiso   1.00
C1179  C     0.13205   0.97852   0.46170   0.00000  Uiso   1.00
C1180  C     0.18628   0.68807   0.53931   0.00000  Uiso   1.00
C1181  C     0.15642   0.95725   0.50121   0.00000  Uiso   1.00
C1182  C     0.16250   0.70953   0.50007   0.00000  Uiso   1.00
C1183  C     0.13089   0.81069   0.35417   0.00000  Uiso   1.00
C1184  C     0.20266   0.85580   0.64604   0.00000  Uiso   1.00
C1185  C     0.12969   0.81103   0.63761   0.00000  Uiso   1.00
C1186  C     0.20213   0.85674   0.36224   0.00000  Uiso   1.00
Cu1187 Cu    0.16667   0.83334   0.54689   0.00000  Uiso   1.00
Cu1188 Cu    0.16667   0.83333   0.45311   0.00000  Uiso   1.00
H1189  H     0.32634   0.82859   0.44569   0.00000  Uiso   1.00
H1190  H     0.00707   0.83863   0.55414   0.00000  Uiso   1.00
H1191  H     0.10336   0.79235   0.37049   0.00000  Uiso   1.00
H1192  H     0.23145   0.87368   0.63057   0.00000  Uiso   1.00
N1193  N     0.16668   0.83334   0.61736   0.00000  Uiso   1.00
N1194  N     0.16665   0.83332   0.38264   0.00000  Uiso   1.00
O1195  O     0.16666   0.77322   0.53958   0.00000  Uiso   1.00
O1196  O     0.16667   0.89345   0.46042   0.00000  Uiso   1.00
O1197  O     0.16666   0.77321   0.46039   0.00000  Uiso   1.00
O1198  O     0.16667   0.89346   0.53961   0.00000  Uiso   1.00
O1199  O     0.09161   0.83334   0.53046   0.00000  Uiso   1.00
O1200  O     0.24172   0.83333   0.46954   0.00000  Uiso   1.00
O1201  O     0.09161   0.83333   0.45127   0.00000  Uiso   1.00
O1202  O     0.24172   0.83334   0.54873   0.00000  Uiso   1.00
O1203  O     0.10226   0.70935   0.42689   0.00000  Uiso   1.00
C1204  C     0.05871   0.72786   0.44299   0.00000  Uiso   1.00
H1205  H     0.04915   0.75554   0.42111   0.00000  Uiso   1.00
H1206  H     0.06593   0.73888   0.48024   0.00000  Uiso   1.00
C1207  C     0.01162   0.69852   0.43690   0.00000  Uiso   1.00
H1208  H     0.00457   0.68721   0.39988   0.00000  Uiso   1.00
H1209  H     0.01930   0.67181   0.46076   0.00000  Uiso   1.00
C1210  C     0.29651   0.71996   0.44885   0.00000  Uiso   1.00
H1211  H     0.30245   0.73127   0.48590   0.00000  Uiso   1.00
H1212  H     0.26324   0.69778   0.44456   0.00000  Uiso   1.00
H1213  H     0.28708   0.74644   0.42496   0.00000  Uiso   1.00
O1214  O     0.18192   0.96142   0.58688   0.00000  Uiso   1.00
C1215  C     0.13262   0.95280   0.60149   0.00000  Uiso   1.00
H1216  H     0.13830   0.93025   0.63069   0.00000  Uiso   1.00
H1217  H     0.10498   0.93778   0.57323   0.00000  Uiso   1.00
C1218  C     0.10758   0.99136   0.61953   0.00000  Uiso   1.00
H1219  H     0.13093   0.66930   0.65247   0.00000  Uiso   1.00
H1220  H     0.10587   0.68293   0.59298   0.00000  Uiso   1.00
C1221  C     0.05227   0.98192   0.62902   0.00000  Uiso   1.00
H1222  H     0.02705   0.97531   0.59536   0.00000  Uiso   1.00
H1223  H     0.03682   0.67564   0.64621   0.00000  Uiso   1.00
H1224  H     0.05111   0.95479   0.65238   0.00000  Uiso   1.00
N1225  N     0.10813   0.95694   0.42079   0.00000  Uiso   1.00
H1226  H     0.10619   0.97295   0.38971   0.00000  Uiso   1.00
C1227  C     0.06227   0.93214   0.42536   0.00000  Uiso   1.00
H1228  H     0.02742   0.94729   0.40723   0.00000  Uiso   1.00
H1229  H     0.05696   0.92707   0.46280   0.00000  Uiso   1.00
H1230  H     0.06553   0.90184   0.40796   0.00000  Uiso   1.00
N1231  N     0.22711   0.70712   0.57069   0.00000  Uiso   1.00
H1232  H     0.26232   0.69338   0.56948   0.00000  Uiso   1.00
C1233  C     0.21767   0.71527   0.61851   0.00000  Uiso   1.00
H1234  H     0.22045   0.68652   0.63947   0.00000  Uiso   1.00
H1235  H     0.17936   0.72926   0.61916   0.00000  Uiso   1.00
H1236  H     0.24756   0.73744   0.63527   0.00000  Uiso   1.00
N1237  N     0.09072   0.78782   0.60840   0.00000  Uiso   1.00
H1238  H     0.10416   0.76298   0.59155   0.00000  Uiso   1.00
C1239  C     0.04151   0.77937   0.62512   0.00000  Uiso   1.00
H1240  H     0.04565   0.75494   0.65233   0.00000  Uiso   1.00
H1241  H     0.01311   0.76804   0.59532   0.00000  Uiso   1.00
H1242  H     0.02626   0.80792   0.63953   0.00000  Uiso   1.00
N1243  N     0.23926   0.88159   0.39084   0.00000  Uiso   1.00
H1244  H     0.27659   0.87235   0.38900   0.00000  Uiso   1.00
C1245  C     0.23417   0.92560   0.38364   0.00000  Uiso   1.00
H1246  H     0.25942   0.94241   0.41200   0.00000  Uiso   1.00
H1247  H     0.19364   0.93499   0.38475   0.00000  Uiso   1.00
H1248  H     0.24606   0.93448   0.34915   0.00000  Uiso   1.00
C1249  C     0.50019   0.75412   0.49995   0.00000  Uiso   1.00
C1250  C     0.49646   0.91254   0.50001   0.00000  Uiso   1.00
C1251  C     0.40132   0.83310   0.48801   0.00000  Uiso   1.00
C1252  C     0.59869   0.83369   0.51198   0.00000  Uiso   1.00
C1253  C     0.34607   0.83212   0.48136   0.00000  Uiso   1.00
C1254  C     0.65394   0.83494   0.51854   0.00000  Uiso   1.00
C1255  C     0.46433   0.68839   0.46327   0.00000  Uiso   1.00
C1256  C     0.50830   0.97957   0.54281   0.00000  Uiso   1.00
C1257  C     0.46538   0.97852   0.46170   0.00000  Uiso   1.00
C1258  C     0.51961   0.68807   0.53931   0.00000  Uiso   1.00
C1259  C     0.48975   0.95725   0.50121   0.00000  Uiso   1.00
C1260  C     0.49583   0.70953   0.50007   0.00000  Uiso   1.00
C1261  C     0.46422   0.81069   0.35417   0.00000  Uiso   1.00
C1262  C     0.53600   0.85580   0.64604   0.00000  Uiso   1.00
C1263  C     0.46303   0.81103   0.63761   0.00000  Uiso   1.00
C1264  C     0.53546   0.85674   0.36224   0.00000  Uiso   1.00
Cu1265 Cu    0.50000   0.83334   0.54689   0.00000  Uiso   1.00
Cu1266 Cu    0.50000   0.83333   0.45311   0.00000  Uiso   1.00
H1267  H     0.65967   0.82859   0.44569   0.00000  Uiso   1.00
H1268  H     0.34041   0.83863   0.55414   0.00000  Uiso   1.00
H1269  H     0.43669   0.79235   0.37049   0.00000  Uiso   1.00
H1270  H     0.56478   0.87368   0.63057   0.00000  Uiso   1.00
N1271  N     0.50001   0.83334   0.61736   0.00000  Uiso   1.00
N1272  N     0.49999   0.83332   0.38264   0.00000  Uiso   1.00
O1273  O     0.50000   0.77322   0.53958   0.00000  Uiso   1.00
O1274  O     0.50000   0.89345   0.46042   0.00000  Uiso   1.00
O1275  O     0.50000   0.77321   0.46039   0.00000  Uiso   1.00
O1276  O     0.50000   0.89346   0.53961   0.00000  Uiso   1.00
O1277  O     0.42495   0.83334   0.53046   0.00000  Uiso   1.00
O1278  O     0.57505   0.83333   0.46954   0.00000  Uiso   1.00
O1279  O     0.42494   0.83333   0.45127   0.00000  Uiso   1.00
O1280  O     0.57506   0.83334   0.54873   0.00000  Uiso   1.00
O1281  O     0.43559   0.70935   0.42689   0.00000  Uiso   1.00
C1282  C     0.39204   0.72786   0.44299   0.00000  Uiso   1.00
H1283  H     0.38248   0.75554   0.42111   0.00000  Uiso   1.00
H1284  H     0.39927   0.73888   0.48024   0.00000  Uiso   1.00
C1285  C     0.34495   0.69852   0.43690   0.00000  Uiso   1.00
H1286  H     0.33791   0.68721   0.39988   0.00000  Uiso   1.00
H1287  H     0.35263   0.67181   0.46076   0.00000  Uiso   1.00
C1288  C     0.62984   0.71996   0.44885   0.00000  Uiso   1.00
H1289  H     0.63578   0.73127   0.48590   0.00000  Uiso   1.00
H1290  H     0.59657   0.69778   0.44456   0.00000  Uiso   1.00
H1291  H     0.62041   0.74644   0.42496   0.00000  Uiso   1.00
O1292  O     0.51525   0.96142   0.58688   0.00000  Uiso   1.00
C1293  C     0.46595   0.95280   0.60149   0.00000  Uiso   1.00
H1294  H     0.47163   0.93025   0.63069   0.00000  Uiso   1.00
H1295  H     0.43832   0.93778   0.57323   0.00000  Uiso   1.00
C1296  C     0.44092   0.99136   0.61953   0.00000  Uiso   1.00
H1297  H     0.46426   0.66930   0.65247   0.00000  Uiso   1.00
H1298  H     0.43920   0.68293   0.59298   0.00000  Uiso   1.00
C1299  C     0.38560   0.98192   0.62902   0.00000  Uiso   1.00
H1300  H     0.36038   0.97531   0.59536   0.00000  Uiso   1.00
H1301  H     0.37016   0.67564   0.64621   0.00000  Uiso   1.00
H1302  H     0.38444   0.95479   0.65238   0.00000  Uiso   1.00
N1303  N     0.44146   0.95694   0.42079   0.00000  Uiso   1.00
H1304  H     0.43953   0.97295   0.38971   0.00000  Uiso   1.00
C1305  C     0.39561   0.93214   0.42536   0.00000  Uiso   1.00
H1306  H     0.36075   0.94729   0.40723   0.00000  Uiso   1.00
H1307  H     0.39029   0.92707   0.46280   0.00000  Uiso   1.00
H1308  H     0.39887   0.90184   0.40796   0.00000  Uiso   1.00
N1309  N     0.56044   0.70712   0.57069   0.00000  Uiso   1.00
H1310  H     0.59565   0.69338   0.56948   0.00000  Uiso   1.00
C1311  C     0.55100   0.71527   0.61851   0.00000  Uiso   1.00
H1312  H     0.55378   0.68652   0.63947   0.00000  Uiso   1.00
H1313  H     0.51269   0.72926   0.61916   0.00000  Uiso   1.00
H1314  H     0.58089   0.73744   0.63527   0.00000  Uiso   1.00
N1315  N     0.42405   0.78782   0.60840   0.00000  Uiso   1.00
H1316  H     0.43749   0.76298   0.59155   0.00000  Uiso   1.00
C1317  C     0.37484   0.77937   0.62512   0.00000  Uiso   1.00
H1318  H     0.37898   0.75494   0.65233   0.00000  Uiso   1.00
H1319  H     0.34645   0.76804   0.59532   0.00000  Uiso   1.00
H1320  H     0.35960   0.80792   0.63953   0.00000  Uiso   1.00
N1321  N     0.57259   0.88159   0.39084   0.00000  Uiso   1.00
H1322  H     0.60993   0.87235   0.38900   0.00000  Uiso   1.00
C1323  C     0.56750   0.92560   0.38364   0.00000  Uiso   1.00
H1324  H     0.59275   0.94241   0.41200   0.00000  Uiso   1.00
H1325  H     0.52697   0.93499   0.38475   0.00000  Uiso   1.00
H1326  H     0.57939   0.93448   0.34915   0.00000  Uiso   1.00
C1327  C     0.83352   0.75412   0.49995   0.00000  Uiso   1.00
C1328  C     0.82980   0.91254   0.50001   0.00000  Uiso   1.00
C1329  C     0.73465   0.83310   0.48801   0.00000  Uiso   1.00
C1330  C     0.93202   0.83369   0.51198   0.00000  Uiso   1.00
C1331  C     0.67941   0.83212   0.48136   0.00000  Uiso   1.00
C1332  C     0.98727   0.83494   0.51854   0.00000  Uiso   1.00
C1333  C     0.79766   0.68839   0.46327   0.00000  Uiso   1.00
C1334  C     0.84163   0.97957   0.54281   0.00000  Uiso   1.00
C1335  C     0.79871   0.97852   0.46170   0.00000  Uiso   1.00
C1336  C     0.85295   0.68807   0.53931   0.00000  Uiso   1.00
C1337  C     0.82309   0.95725   0.50121   0.00000  Uiso   1.00
C1338  C     0.82917   0.70953   0.50007   0.00000  Uiso   1.00
C1339  C     0.79755   0.81069   0.35417   0.00000  Uiso   1.00
C1340  C     0.86933   0.85580   0.64604   0.00000  Uiso   1.00
C1341  C     0.79636   0.81103   0.63761   0.00000  Uiso   1.00
C1342  C     0.86879   0.85674   0.36224   0.00000  Uiso   1.00
Cu1343 Cu    0.83333   0.83334   0.54689   0.00000  Uiso   1.00
Cu1344 Cu    0.83333   0.83333   0.45311   0.00000  Uiso   1.00
H1345  H     0.99300   0.82859   0.44569   0.00000  Uiso   1.00
H1346  H     0.67374   0.83863   0.55414   0.00000  Uiso   1.00
H1347  H     0.77003   0.79235   0.37049   0.00000  Uiso   1.00
H1348  H     0.89811   0.87368   0.63057   0.00000  Uiso   1.00
N1349  N     0.83335   0.83334   0.61736   0.00000  Uiso   1.00
N1350  N     0.83332   0.83332   0.38264   0.00000  Uiso   1.00
O1351  O     0.83333   0.77322   0.53958   0.00000  Uiso   1.00
O1352  O     0.83334   0.89345   0.46042   0.00000  Uiso   1.00
O1353  O     0.83333   0.77321   0.46039   0.00000  Uiso   1.00
O1354  O     0.83334   0.89346   0.53961   0.00000  Uiso   1.00
O1355  O     0.75828   0.83334   0.53046   0.00000  Uiso   1.00
O1356  O     0.90839   0.83333   0.46954   0.00000  Uiso   1.00
O1357  O     0.75828   0.83333   0.45127   0.00000  Uiso   1.00
O1358  O     0.90839   0.83334   0.54873   0.00000  Uiso   1.00
O1359  O     0.76893   0.70935   0.42689   0.00000  Uiso   1.00
C1360  C     0.72537   0.72786   0.44299   0.00000  Uiso   1.00
H1361  H     0.71581   0.75554   0.42111   0.00000  Uiso   1.00
H1362  H     0.73260   0.73888   0.48024   0.00000  Uiso   1.00
C1363  C     0.67829   0.69852   0.43690   0.00000  Uiso   1.00
H1364  H     0.67124   0.68721   0.39988   0.00000  Uiso   1.00
H1365  H     0.68596   0.67181   0.46076   0.00000  Uiso   1.00
C1366  C     0.96318   0.71996   0.44885   0.00000  Uiso   1.00
H1367  H     0.96911   0.73127   0.48590   0.00000  Uiso   1.00
H1368  H     0.92991   0.69778   0.44456   0.00000  Uiso   1.00
H1369  H     0.95374   0.74644   0.42496   0.00000  Uiso   1.00
O1370  O     0.84859   0.96142   0.58688   0.00000  Uiso   1.00
C1371  C     0.79928   0.95280   0.60149   0.00000  Uiso   1.00
H1372  H     0.80496   0.93025   0.63069   0.00000  Uiso   1.00
H1373  H     0.77165   0.93778   0.57323   0.00000  Uiso   1.00
C1374  C     0.77425   0.99136   0.61953   0.00000  Uiso   1.00
H1375  H     0.79760   0.66930   0.65247   0.00000  Uiso   1.00
H1376  H     0.77253   0.68293   0.59298   0.00000  Uiso   1.00
C1377  C     0.71893   0.98192   0.62902   0.00000  Uiso   1.00
H1378  H     0.69371   0.97531   0.59536   0.00000  Uiso   1.00
H1379  H     0.70349   0.67564   0.64621   0.00000  Uiso   1.00
H1380  H     0.71777   0.95479   0.65238   0.00000  Uiso   1.00
N1381  N     0.77479   0.95694   0.42079   0.00000  Uiso   1.00
H1382  H     0.77286   0.97295   0.38971   0.00000  Uiso   1.00
C1383  C     0.72894   0.93214   0.42536   0.00000  Uiso   1.00
H1384  H     0.69409   0.94729   0.40723   0.00000  Uiso   1.00
H1385  H     0.72362   0.92707   0.46280   0.00000  Uiso   1.00
H1386  H     0.73220   0.90184   0.40796   0.00000  Uiso   1.00
N1387  N     0.89377   0.70712   0.57069   0.00000  Uiso   1.00
H1388  H     0.92899   0.69338   0.56948   0.00000  Uiso   1.00
C1389  C     0.88433   0.71527   0.61851   0.00000  Uiso   1.00
H1390  H     0.88711   0.68652   0.63947   0.00000  Uiso   1.00
H1391  H     0.84602   0.72926   0.61916   0.00000  Uiso   1.00
H1392  H     0.91422   0.73744   0.63527   0.00000  Uiso   1.00
N1393  N     0.75739   0.78782   0.60840   0.00000  Uiso   1.00
H1394  H     0.77083   0.76298   0.59155   0.00000  Uiso   1.00
C1395  C     0.70817   0.77937   0.62512   0.00000  Uiso   1.00
H1396  H     0.71232   0.75494   0.65233   0.00000  Uiso   1.00
H1397  H     0.67978   0.76804   0.59532   0.00000  Uiso   1.00
H1398  H     0.69293   0.80792   0.63953   0.00000  Uiso   1.00
N1399  N     0.90592   0.88159   0.39084   0.00000  Uiso   1.00
H1400  H     0.94326   0.87235   0.38900   0.00000  Uiso   1.00
C1401  C     0.90084   0.92560   0.38364   0.00000  Uiso   1.00
H1402  H     0.92609   0.94241   0.41200   0.00000  Uiso   1.00
H1403  H     0.86031   0.93499   0.38475   0.00000  Uiso   1.00
H1404  H     0.91273   0.93448   0.34915   0.00000  Uiso   1.00
C1405  C     0.16686   0.08746   0.83328   0.00000  Uiso   1.00
C1406  C     0.16313   0.24588   0.83334   0.00000  Uiso   1.00
C1407  C     0.06799   0.16644   0.82134   0.00000  Uiso   1.00
C1408  C     0.26535   0.16703   0.84531   0.00000  Uiso   1.00
C1409  C     0.01274   0.16545   0.81469   0.00000  Uiso   1.00
C1410  C     0.32061   0.16828   0.85187   0.00000  Uiso   1.00
C1411  C     0.13099   0.02173   0.79661   0.00000  Uiso   1.00
C1412  C     0.17496   0.31290   0.87615   0.00000  Uiso   1.00
C1413  C     0.13205   0.31185   0.79503   0.00000  Uiso   1.00
C1414  C     0.18628   0.02141   0.87265   0.00000  Uiso   1.00
C1415  C     0.15642   0.29058   0.83455   0.00000  Uiso   1.00
C1416  C     0.16250   0.04286   0.83341   0.00000  Uiso   1.00
C1417  C     0.13089   0.14403   0.68750   0.00000  Uiso   1.00
C1418  C     0.20266   0.18913   0.97938   0.00000  Uiso   1.00
C1419  C     0.12969   0.14436   0.97094   0.00000  Uiso   1.00
C1420  C     0.20213   0.19008   0.69557   0.00000  Uiso   1.00
Cu1421 Cu    0.16667   0.16667   0.88022   0.00000  Uiso   1.00
Cu1422 Cu    0.16667   0.16666   0.78645   0.00000  Uiso   1.00
H1423  H     0.32634   0.16193   0.77903   0.00000  Uiso   1.00
H1424  H     0.00707   0.17197   0.88747   0.00000  Uiso   1.00
H1425  H     0.10336   0.12568   0.70383   0.00000  Uiso   1.00
H1426  H     0.23145   0.20701   0.96390   0.00000  Uiso   1.00
N1427  N     0.16668   0.16668   0.95069   0.00000  Uiso   1.00
N1428  N     0.16665   0.16666   0.71597   0.00000  Uiso   1.00
O1429  O     0.16666   0.10655   0.87291   0.00000  Uiso   1.00
O1430  O     0.16667   0.22678   0.79375   0.00000  Uiso   1.00
O1431  O     0.16666   0.10654   0.79372   0.00000  Uiso   1.00
O1432  O     0.16667   0.22679   0.87294   0.00000  Uiso   1.00
O1433  O     0.09161   0.16667   0.86379   0.00000  Uiso   1.00
O1434  O     0.24172   0.16666   0.80288   0.00000  Uiso   1.00
O1435  O     0.09161   0.16666   0.78460   0.00000  Uiso   1.00
O1436  O     0.24172   0.16667   0.88207   0.00000  Uiso   1.00
O1437  O     0.10226   0.04269   0.76022   0.00000  Uiso   1.00
C1438  C     0.05871   0.06119   0.77632   0.00000  Uiso   1.00
H1439  H     0.04915   0.08887   0.75444   0.00000  Uiso   1.00
H1440  H     0.06593   0.07221   0.81357   0.00000  Uiso   1.00
C1441  C     0.01162   0.03186   0.77024   0.00000  Uiso   1.00
H1442  H     0.00457   0.02054   0.73321   0.00000  Uiso   1.00
H1443  H     0.01930   0.00515   0.79410   0.00000  Uiso   1.00
C1444  C     0.29651   0.05330   0.78219   0.00000  Uiso   1.00
H1445  H     0.30245   0.06460   0.81924   0.00000  Uiso   1.00
H1446  H     0.26324   0.03111   0.77790   0.00000  Uiso   1.00
H1447  H     0.28708   0.07977   0.75829   0.00000  Uiso   1.00
O1448  O     0.18192   0.29476   0.92022   0.00000  Uiso   1.00
C1449  C     0.13262   0.28614   0.93482   0.00000  Uiso   1.00
H1450  H     0.13830   0.26359   0.96402   0.00000  Uiso   1.00
H1451  H     0.10498   0.27112   0.90656   0.00000  Uiso   1.00
C1452  C     0.10758   0.32469   0.95287   0.00000  Uiso   1.00
H1453  H     0.13093   0.00263   0.98581   0.00000  Uiso   1.00
H1454  H     0.10587   0.01626   0.92631   0.00000  Uiso   1.00
C1455  C     0.05227   0.31525   0.96235   0.00000  Uiso   1.00
H1456  H     0.02705   0.30864   0.92869   0.00000  Uiso   1.00
H1457  H     0.03682   0.00897   0.97954   0.00000  Uiso   1.00
H1458  H     0.05111   0.28812   0.98571   0.00000  Uiso   1.00
N1459  N     0.10813   0.29028   0.75413   0.00000  Uiso   1.00
H1460  H     0.10619   0.30628   0.72304   0.00000  Uiso   1.00
C1461  C     0.06227   0.26547   0.75869   0.00000  Uiso   1.00
H1462  H     0.02742   0.28062   0.74057   0.00000  Uiso   1.00
H1463  H     0.05696   0.26041   0.79613   0.00000  Uiso   1.00
H1464  H     0.06553   0.23518   0.74129   0.00000  Uiso   1.00
N1465  N     0.22711   0.04046   0.90403   0.00000  Uiso   1.00
H1466  H     0.26232   0.02671   0.90281   0.00000  Uiso   1.00
C1467  C     0.21767   0.04861   0.95184   0.00000  Uiso   1.00
H1468  H     0.22045   0.01985   0.97281   0.00000  Uiso   1.00
H1469  H     0.17936   0.06259   0.95249   0.00000  Uiso   1.00
H1470  H     0.24756   0.07077   0.96860   0.00000  Uiso   1.00
N1471  N     0.09072   0.12115   0.94174   0.00000  Uiso   1.00
H1472  H     0.10416   0.09631   0.92488   0.00000  Uiso   1.00
C1473  C     0.04151   0.11271   0.95846   0.00000  Uiso   1.00
H1474  H     0.04565   0.08827   0.98567   0.00000  Uiso   1.00
H1475  H     0.01311   0.10137   0.92865   0.00000  Uiso   1.00
H1476  H     0.02626   0.14125   0.97286   0.00000  Uiso   1.00
N1477  N     0.23926   0.21492   0.72417   0.00000  Uiso   1.00
H1478  H     0.27659   0.20568   0.72234   0.00000  Uiso   1.00
C1479  C     0.23417   0.25893   0.71697   0.00000  Uiso   1.00
H1480  H     0.25942   0.27574   0.74533   0.00000  Uiso   1.00
H1481  H     0.19364   0.26832   0.71808   0.00000  Uiso   1.00
H1482  H     0.24606   0.26782   0.68248   0.00000  Uiso   1.00
C1483  C     0.50019   0.08746   0.83328   0.00000  Uiso   1.00
C1484  C     0.49646   0.24588   0.83334   0.00000  Uiso   1.00
C1485  C     0.40132   0.16644   0.82134   0.00000  Uiso   1.00
C1486  C     0.59869   0.16703   0.84531   0.00000  Uiso   1.00
C1487  C     0.34607   0.16545   0.81469   0.00000  Uiso   1.00
C1488  C     0.65394   0.16828   0.85187   0.00000  Uiso   1.00
C1489  C     0.46433   0.02173   0.79661   0.00000  Uiso   1.00
C1490  C     0.50830   0.31290   0.87615   0.00000  Uiso   1.00
C1491  C     0.46538   0.31185   0.79503   0.00000  Uiso   1.00
C1492  C     0.51961   0.02141   0.87265   0.00000  Uiso   1.00
C1493  C     0.48975   0.29058   0.83455   0.00000  Uiso   1.00
C1494  C     0.49583   0.04286   0.83341   0.00000  Uiso   1.00
C1495  C     0.46422   0.14403   0.68750   0.00000  Uiso   1.00
C1496  C     0.53600   0.18913   0.97938   0.00000  Uiso   1.00
C1497  C     0.46303   0.14436   0.97094   0.00000  Uiso   1.00
C1498  C     0.53546   0.19008   0.69557   0.00000  Uiso   1.00
Cu1499 Cu    0.50000   0.16667   0.88022   0.00000  Uiso   1.00
Cu1500 Cu    0.50000   0.16666   0.78645   0.00000  Uiso   1.00
H1501  H     0.65967   0.16193   0.77903   0.00000  Uiso   1.00
H1502  H     0.34041   0.17197   0.88747   0.00000  Uiso   1.00
H1503  H     0.43669   0.12568   0.70383   0.00000  Uiso   1.00
H1504  H     0.56478   0.20701   0.96390   0.00000  Uiso   1.00
N1505  N     0.50001   0.16668   0.95069   0.00000  Uiso   1.00
N1506  N     0.49999   0.16666   0.71597   0.00000  Uiso   1.00
O1507  O     0.50000   0.10655   0.87291   0.00000  Uiso   1.00
O1508  O     0.50000   0.22678   0.79375   0.00000  Uiso   1.00
O1509  O     0.50000   0.10654   0.79372   0.00000  Uiso   1.00
O1510  O     0.50000   0.22679   0.87294   0.00000  Uiso   1.00
O1511  O     0.42495   0.16667   0.86379   0.00000  Uiso   1.00
O1512  O     0.57505   0.16666   0.80288   0.00000  Uiso   1.00
O1513  O     0.42494   0.16666   0.78460   0.00000  Uiso   1.00
O1514  O     0.57506   0.16667   0.88207   0.00000  Uiso   1.00
O1515  O     0.43559   0.04269   0.76022   0.00000  Uiso   1.00
C1516  C     0.39204   0.06119   0.77632   0.00000  Uiso   1.00
H1517  H     0.38248   0.08887   0.75444   0.00000  Uiso   1.00
H1518  H     0.39927   0.07221   0.81357   0.00000  Uiso   1.00
C1519  C     0.34495   0.03186   0.77024   0.00000  Uiso   1.00
H1520  H     0.33791   0.02054   0.73321   0.00000  Uiso   1.00
H1521  H     0.35263   0.00515   0.79410   0.00000  Uiso   1.00
C1522  C     0.62984   0.05330   0.78219   0.00000  Uiso   1.00
H1523  H     0.63578   0.06460   0.81924   0.00000  Uiso   1.00
H1524  H     0.59657   0.03111   0.77790   0.00000  Uiso   1.00
H1525  H     0.62041   0.07977   0.75829   0.00000  Uiso   1.00
O1526  O     0.51525   0.29476   0.92022   0.00000  Uiso   1.00
C1527  C     0.46595   0.28614   0.93482   0.00000  Uiso   1.00
H1528  H     0.47163   0.26359   0.96402   0.00000  Uiso   1.00
H1529  H     0.43832   0.27112   0.90656   0.00000  Uiso   1.00
C1530  C     0.44092   0.32469   0.95287   0.00000  Uiso   1.00
H1531  H     0.46426   0.00263   0.98581   0.00000  Uiso   1.00
H1532  H     0.43920   0.01626   0.92631   0.00000  Uiso   1.00
C1533  C     0.38560   0.31525   0.96235   0.00000  Uiso   1.00
H1534  H     0.36038   0.30864   0.92869   0.00000  Uiso   1.00
H1535  H     0.37016   0.00897   0.97954   0.00000  Uiso   1.00
H1536  H     0.38444   0.28812   0.98571   0.00000  Uiso   1.00
N1537  N     0.44146   0.29028   0.75413   0.00000  Uiso   1.00
H1538  H     0.43953   0.30628   0.72304   0.00000  Uiso   1.00
C1539  C     0.39561   0.26547   0.75869   0.00000  Uiso   1.00
H1540  H     0.36075   0.28062   0.74057   0.00000  Uiso   1.00
H1541  H     0.39029   0.26041   0.79613   0.00000  Uiso   1.00
H1542  H     0.39887   0.23518   0.74129   0.00000  Uiso   1.00
N1543  N     0.56044   0.04046   0.90403   0.00000  Uiso   1.00
H1544  H     0.59565   0.02671   0.90281   0.00000  Uiso   1.00
C1545  C     0.55100   0.04861   0.95184   0.00000  Uiso   1.00
H1546  H     0.55378   0.01985   0.97281   0.00000  Uiso   1.00
H1547  H     0.51269   0.06259   0.95249   0.00000  Uiso   1.00
H1548  H     0.58089   0.07077   0.96860   0.00000  Uiso   1.00
N1549  N     0.42405   0.12115   0.94174   0.00000  Uiso   1.00
H1550  H     0.43749   0.09631   0.92488   0.00000  Uiso   1.00
C1551  C     0.37484   0.11271   0.95846   0.00000  Uiso   1.00
H1552  H     0.37898   0.08827   0.98567   0.00000  Uiso   1.00
H1553  H     0.34645   0.10137   0.92865   0.00000  Uiso   1.00
H1554  H     0.35960   0.14125   0.97286   0.00000  Uiso   1.00
N1555  N     0.57259   0.21492   0.72417   0.00000  Uiso   1.00
H1556  H     0.60993   0.20568   0.72234   0.00000  Uiso   1.00
C1557  C     0.56750   0.25893   0.71697   0.00000  Uiso   1.00
H1558  H     0.59275   0.27574   0.74533   0.00000  Uiso   1.00
H1559  H     0.52697   0.26832   0.71808   0.00000  Uiso   1.00
H1560  H     0.57939   0.26782   0.68248   0.00000  Uiso   1.00
C1561  C     0.83352   0.08746   0.83328   0.00000  Uiso   1.00
C1562  C     0.82980   0.24588   0.83334   0.00000  Uiso   1.00
C1563  C     0.73465   0.16644   0.82134   0.00000  Uiso   1.00
C1564  C     0.93202   0.16703   0.84531   0.00000  Uiso   1.00
C1565  C     0.67941   0.16545   0.81469   0.00000  Uiso   1.00
C1566  C     0.98727   0.16828   0.85187   0.00000  Uiso   1.00
C1567  C     0.79766   0.02173   0.79661   0.00000  Uiso   1.00
C1568  C     0.84163   0.31290   0.87615   0.00000  Uiso   1.00
C1569  C     0.79871   0.31185   0.79503   0.00000  Uiso   1.00
C1570  C     0.85295   0.02141   0.87265   0.00000  Uiso   1.00
C1571  C     0.82309   0.29058   0.83455   0.00000  Uiso   1.00
C1572  C     0.82917   0.04286   0.83341   0.00000  Uiso   1.00
C1573  C     0.79755   0.14403   0.68750   0.00000  Uiso   1.00
C1574  C     0.86933   0.18913   0.97938   0.00000  Uiso   1.00
C1575  C     0.79636   0.14436   0.97094   0.00000  Uiso   1.00
C1576  C     0.86879   0.19008   0.69557   0.00000  Uiso   1.00
Cu1577 Cu    0.83333   0.16667   0.88022   0.00000  Uiso   1.00
Cu1578 Cu    0.83333   0.16666   0.78645   0.00000  Uiso   1.00
H1579  H     0.99300   0.16193   0.77903   0.00000  Uiso   1.00
H1580  H     0.67374   0.17197   0.88747   0.00000  Uiso   1.00
H1581  H     0.77003   0.12568   0.70383   0.00000  Uiso   1.00
H1582  H     0.89811   0.20701   0.96390   0.00000  Uiso   1.00
N1583  N     0.83335   0.16668   0.95069   0.00000  Uiso   1.00
N1584  N     0.83332   0.16666   0.71597   0.00000  Uiso   1.00
O1585  O     0.83333   0.10655   0.87291   0.00000  Uiso   1.00
O1586  O     0.83334   0.22678   0.79375   0.00000  Uiso   1.00
O1587  O     0.83333   0.10654   0.79372   0.00000  Uiso   1.00
O1588  O     0.83334   0.22679   0.87294   0.00000  Uiso   1.00
O1589  O     0.75828   0.16667   0.86379   0.00000  Uiso   1.00
O1590  O     0.90839   0.16666   0.80288   0.00000  Uiso   1.00
O1591  O     0.75828   0.16666   0.78460   0.00000  Uiso   1.00
O1592  O     0.90839   0.16667   0.88207   0.00000  Uiso   1.00
O1593  O     0.76893   0.04269   0.76022   0.00000  Uiso   1.00
C1594  C     0.72537   0.06119   0.77632   0.00000  Uiso   1.00
H1595  H     0.71581   0.08887   0.75444   0.00000  Uiso   1.00
H1596  H     0.73260   0.07221   0.81357   0.00000  Uiso   1.00
C1597  C     0.67829   0.03186   0.77024   0.00000  Uiso   1.00
H1598  H     0.67124   0.02054   0.73321   0.00000  Uiso   1.00
H1599  H     0.68596   0.00515   0.79410   0.00000  Uiso   1.00
C1600  C     0.96318   0.05330   0.78219   0.00000  Uiso   1.00
H1601  H     0.96911   0.06460   0.81924   0.00000  Uiso   1.00
H1602  H     0.92991   0.03111   0.77790   0.00000  Uiso   1.00
H1603  H     0.95374   0.07977   0.75829   0.00000  Uiso   1.00
O1604  O     0.84859   0.29476   0.92022   0.00000  Uiso   1.00
C1605  C     0.79928   0.28614   0.93482   0.00000  Uiso   1.00
H1606  H     0.80496   0.26359   0.96402   0.00000  Uiso   1.00
H1607  H     0.77165   0.27112   0.90656   0.00000  Uiso   1.00
C1608  C     0.77425   0.32469   0.95287   0.00000  Uiso   1.00
H1609  H     0.79760   0.00263   0.98581   0.00000  Uiso   1.00
H1610  H     0.77253   0.01626   0.92631   0.00000  Uiso   1.00
C1611  C     0.71893   0.31525   0.96235   0.00000  Uiso   1.00
H1612  H     0.69371   0.30864   0.92869   0.00000  Uiso   1.00
H1613  H     0.70349   0.00897   0.97954   0.00000  Uiso   1.00
H1614  H     0.71777   0.28812   0.98571   0.00000  Uiso   1.00
N1615  N     0.77479   0.29028   0.75413   0.00000  Uiso   1.00
H1616  H     0.77286   0.30628   0.72304   0.00000  Uiso   1.00
C1617  C     0.72894   0.26547   0.75869   0.00000  Uiso   1.00
H1618  H     0.69409   0.28062   0.74057   0.00000  Uiso   1.00
H1619  H     0.72362   0.26041   0.79613   0.00000  Uiso   1.00
H1620  H     0.73220   0.23518   0.74129   0.00000  Uiso   1.00
N1621  N     0.89377   0.04046   0.90403   0.00000  Uiso   1.00
H1622  H     0.92899   0.02671   0.90281   0.00000  Uiso   1.00
C1623  C     0.88433   0.04861   0.95184   0.00000  Uiso   1.00
H1624  H     0.88711   0.01985   0.97281   0.00000  Uiso   1.00
H1625  H     0.84602   0.06259   0.95249   0.00000  Uiso   1.00
H1626  H     0.91422   0.07077   0.96860   0.00000  Uiso   1.00
N1627  N     0.75739   0.12115   0.94174   0.00000  Uiso   1.00
H1628  H     0.77083   0.09631   0.92488   0.00000  Uiso   1.00
C1629  C     0.70817   0.11271   0.95846   0.00000  Uiso   1.00
H1630  H     0.71232   0.08827   0.98567   0.00000  Uiso   1.00
H1631  H     0.67978   0.10137   0.92865   0.00000  Uiso   1.00
H1632  H     0.69293   0.14125   0.97286   0.00000  Uiso   1.00
N1633  N     0.90592   0.21492   0.72417   0.00000  Uiso   1.00
H1634  H     0.94326   0.20568   0.72234   0.00000  Uiso   1.00
C1635  C     0.90084   0.25893   0.71697   0.00000  Uiso   1.00
H1636  H     0.92609   0.27574   0.74533   0.00000  Uiso   1.00
H1637  H     0.86031   0.26832   0.71808   0.00000  Uiso   1.00
H1638  H     0.91273   0.26782   0.68248   0.00000  Uiso   1.00
C1639  C     0.16686   0.42079   0.83328   0.00000  Uiso   1.00
C1640  C     0.16313   0.57921   0.83334   0.00000  Uiso   1.00
C1641  C     0.06799   0.49977   0.82134   0.00000  Uiso   1.00
C1642  C     0.26535   0.50036   0.84531   0.00000  Uiso   1.00
C1643  C     0.01274   0.49878   0.81469   0.00000  Uiso   1.00
C1644  C     0.32061   0.50161   0.85187   0.00000  Uiso   1.00
C1645  C     0.13099   0.35506   0.79661   0.00000  Uiso   1.00
C1646  C     0.17496   0.64623   0.87615   0.00000  Uiso   1.00
C1647  C     0.13205   0.64519   0.79503   0.00000  Uiso   1.00
C1648  C     0.18628   0.35474   0.87265   0.00000  Uiso   1.00
C1649  C     0.15642   0.62392   0.83455   0.00000  Uiso   1.00
C1650  C     0.16250   0.37620   0.83341   0.00000  Uiso   1.00
C1651  C     0.13089   0.47736   0.68750   0.00000  Uiso   1.00
C1652  C     0.20266   0.52246   0.97938   0.00000  Uiso   1.00
C1653  C     0.12969   0.47769   0.97094   0.00000  Uiso   1.00
C1654  C     0.20213   0.52341   0.69557   0.00000  Uiso   1.00
Cu1655 Cu    0.16667   0.50001   0.88022   0.00000  Uiso   1.00
Cu1656 Cu    0.16667   0.49999   0.78645   0.00000  Uiso   1.00
H1657  H     0.32634   0.49526   0.77903   0.00000  Uiso   1.00
H1658  H     0.00707   0.50530   0.88747   0.00000  Uiso   1.00
H1659  H     0.10336   0.45902   0.70383   0.00000  Uiso   1.00
H1660  H     0.23145   0.54035   0.96390   0.00000  Uiso   1.00
N1661  N     0.16668   0.50001   0.95069   0.00000  Uiso   1.00
N1662  N     0.16665   0.49999   0.71597   0.00000  Uiso   1.00
O1663  O     0.16666   0.43989   0.87291   0.00000  Uiso   1.00
O1664  O     0.16667   0.56011   0.79375   0.00000  Uiso   1.00
O1665  O     0.16666   0.43988   0.79372   0.00000  Uiso   1.00
O1666  O     0.16667   0.56012   0.87294   0.00000  Uiso   1.00
O1667  O     0.09161   0.50000   0.86379   0.00000  Uiso   1.00
O1668  O     0.24172   0.50000   0.80288   0.00000  Uiso   1.00
O1669  O     0.09161   0.49999   0.78460   0.00000  Uiso   1.00
O1670  O     0.24172   0.50001   0.88207   0.00000  Uiso   1.00
O1671  O     0.10226   0.37602   0.76022   0.00000  Uiso   1.00
C1672  C     0.05871   0.39453   0.77632   0.00000  Uiso   1.00
H1673  H     0.04915   0.42221   0.75444   0.00000  Uiso   1.00
H1674  H     0.06593   0.40554   0.81357   0.00000  Uiso   1.00
C1675  C     0.01162   0.36519   0.77024   0.00000  Uiso   1.00
H1676  H     0.00457   0.35387   0.73321   0.00000  Uiso   1.00
H1677  H     0.01930   0.33848   0.79410   0.00000  Uiso   1.00
C1678  C     0.29651   0.38663   0.78219   0.00000  Uiso   1.00
H1679  H     0.30245   0.39794   0.81924   0.00000  Uiso   1.00
H1680  H     0.26324   0.36445   0.77790   0.00000  Uiso   1.00
H1681  H     0.28708   0.41310   0.75829   0.00000  Uiso   1.00
O1682  O     0.18192   0.62809   0.92022   0.00000  Uiso   1.00
C1683  C     0.13262   0.61947   0.93482   0.00000  Uiso   1.00
H1684  H     0.13830   0.59692   0.96402   0.00000  Uiso   1.00
H1685  H     0.10498   0.60445   0.90656   0.00000  Uiso   1.00
C1686  C     0.10758   0.65803   0.95287   0.00000  Uiso   1.00
H1687  H     0.13093   0.33596   0.98581   0.00000  Uiso   1.00
H1688  H     0.10587   0.34960   0.92631   0.00000  Uiso   1.00
C1689  C     0.05227   0.64858   0.96235   0.00000  Uiso   1.00
H1690  H     0.02705   0.64197   0.92869   0.00000  Uiso   1.00
H1691  H     0.03682   0.34231   0.97954   0.00000  Uiso   1.00
H1692  H     0.05111   0.62146   0.98571   0.00000  Uiso   1.00
N1693  N     0.10813   0.62361   0.75413   0.00000  Uiso   1.00
H1694  H     0.10619   0.63962   0.72304   0.00000  Uiso   1.00
C1695  C     0.06227   0.59881   0.75869   0.00000  Uiso   1.00
H1696  H     0.02742   0.61395   0.74057   0.00000  Uiso   1.00
H1697  H     0.05696   0.59374   0.79613   0.00000  Uiso   1.00
H1698  H     0.06553   0.56851   0.74129   0.00000  Uiso   1.00
N1699  N     0.22711   0.37379   0.90403   0.00000  Uiso   1.00
H1700  H     0.26232   0.36005   0.90281   0.00000  Uiso   1.00
C1701  C     0.21767   0.38194   0.95184   0.00000  Uiso   1.00
H1702  H     0.22045   0.35319   0.97281   0.00000  Uiso   1.00
H1703  H     0.17936   0.39593   0.95249   0.00000  Uiso   1.00
H1704  H     0.24756   0.40411   0.96860   0.00000  Uiso   1.00
N1705  N     0.09072   0.45448   0.94174   0.00000  Uiso   1.00
H1706  H     0.10416   0.42964   0.92488   0.00000  Uiso   1.00
C1707  C     0.04151   0.44604   0.95846   0.00000  Uiso   1.00
H1708  H     0.04565   0.42160   0.98567   0.00000  Uiso   1.00
H1709  H     0.01311   0.43471   0.92865   0.00000  Uiso   1.00
H1710  H     0.02626   0.47458   0.97286   0.00000  Uiso   1.00
N1711  N     0.23926   0.54825   0.72417   0.00000  Uiso   1.00
H1712  H     0.27659   0.53901   0.72234   0.00000  Uiso   1.00
C1713  C     0.23417   0.59226   0.71697   0.00000  Uiso   1.00
H1714  H     0.25942   0.60908   0.74533   0.00000  Uiso   1.00
H1715  H     0.19364   0.60165   0.71808   0.00000  Uiso   1.00
H1716  H     0.24606   0.60115   0.68248   0.00000  Uiso   1.00
C1717  C     0.50019   0.42079   0.83328   0.00000  Uiso   1.00
C1718  C     0.49646   0.57921   0.83334   0.00000  Uiso   1.00
C1719  C     0.40132   0.49977   0.82134   0.00000  Uiso   1.00
C1720  C     0.59869   0.50036   0.84531   0.00000  Uiso   1.00
C1721  C     0.34607   0.49878   0.81469   0.00000  Uiso   1.00
C1722  C     0.65394   0.50161   0.85187   0.00000  Uiso   1.00
C1723  C     0.46433   0.35506   0.79661   0.00000  Uiso   1.00
C1724  C     0.50830   0.64623   0.87615   0.00000  Uiso   1.00
C1725  C     0.46538   0.64519   0.79503   0.00000  Uiso   1.00
C1726  C     0.51961   0.35474   0.87265   0.00000  Uiso   1.00
C1727  C     0.48975   0.62392   0.83455   0.00000  Uiso   1.00
C1728  C     0.49583   0.37620   0.83341   0.00000  Uiso   1.00
C1729  C     0.46422   0.47736   0.68750   0.00000  Uiso   1.00
C1730  C     0.53600   0.52246   0.97938   0.00000  Uiso   1.00
C1731  C     0.46303   0.47769   0.97094   0.00000  Uiso   1.00
C1732  C     0.53546   0.52341   0.69557   0.00000  Uiso   1.00
Cu1733 Cu    0.50000   0.50001   0.88022   0.00000  Uiso   1.00
Cu1734 Cu    0.50000   0.49999   0.78645   0.00000  Uiso   1.00
H1735  H     0.65967   0.49526   0.77903   0.00000  Uiso   1.00
H1736  H     0.34041   0.50530   0.88747   0.00000  Uiso   1.00
H1737  H     0.43669   0.45902   0.70383   0.00000  Uiso   1.00
H1738  H     0.56478   0.54035   0.96390   0.00000  Uiso   1.00
N1739  N     0.50001   0.50001   0.95069   0.00000  Uiso   1.00
N1740  N     0.49999   0.49999   0.71597   0.00000  Uiso   1.00
O1741  O     0.50000   0.43989   0.87291   0.00000  Uiso   1.00
O1742  O     0.50000   0.56011   0.79375   0.00000  Uiso   1.00
O1743  O     0.50000   0.43988   0.79372   0.00000  Uiso   1.00
O1744  O     0.50000   0.56012   0.87294   0.00000  Uiso   1.00
O1745  O     0.42495   0.50000   0.86379   0.00000  Uiso   1.00
O1746  O     0.57505   0.50000   0.80288   0.00000  Uiso   1.00
O1747  O     0.42494   0.49999   0.78460   0.00000  Uiso   1.00
O1748  O     0.57506   0.50001   0.88207   0.00000  Uiso   1.00
O1749  O     0.43559   0.37602   0.76022   0.00000  Uiso   1.00
C1750  C     0.39204   0.39453   0.77632   0.00000  Uiso   1.00
H1751  H     0.38248   0.42221   0.75444   0.00000  Uiso   1.00
H1752  H     0.39927   0.40554   0.81357   0.00000  Uiso   1.00
C1753  C     0.34495   0.36519   0.77024   0.00000  Uiso   1.00
H1754  H     0.33791   0.35387   0.73321   0.00000  Uiso   1.00
H1755  H     0.35263   0.33848   0.79410   0.00000  Uiso   1.00
C1756  C     0.62984   0.38663   0.78219   0.00000  Uiso   1.00
H1757  H     0.63578   0.39794   0.81924   0.00000  Uiso   1.00
H1758  H     0.59657   0.36445   0.77790   0.00000  Uiso   1.00
H1759  H     0.62041   0.41310   0.75829   0.00000  Uiso   1.00
O1760  O     0.51525   0.62809   0.92022   0.00000  Uiso   1.00
C1761  C     0.46595   0.61947   0.93482   0.00000  Uiso   1.00
H1762  H     0.47163   0.59692   0.96402   0.00000  Uiso   1.00
H1763  H     0.43832   0.60445   0.90656   0.00000  Uiso   1.00
C1764  C     0.44092   0.65803   0.95287   0.00000  Uiso   1.00
H1765  H     0.46426   0.33596   0.98581   0.00000  Uiso   1.00
H1766  H     0.43920   0.34960   0.92631   0.00000  Uiso   1.00
C1767  C     0.38560   0.64858   0.96235   0.00000  Uiso   1.00
H1768  H     0.36038   0.64197   0.92869   0.00000  Uiso   1.00
H1769  H     0.37016   0.34231   0.97954   0.00000  Uiso   1.00
H1770  H     0.38444   0.62146   0.98571   0.00000  Uiso   1.00
N1771  N     0.44146   0.62361   0.75413   0.00000  Uiso   1.00
H1772  H     0.43953   0.63962   0.72304   0.00000  Uiso   1.00
C1773  C     0.39561   0.59881   0.75869   0.00000  Uiso   1.00
H1774  H     0.36075   0.61395   0.74057   0.00000  Uiso   1.00
H1775  H     0.39029   0.59374   0.79613   0.00000  Uiso   1.00
H1776  H     0.39887   0.56851   0.74129   0.00000  Uiso   1.00
N1777  N     0.56044   0.37379   0.90403   0.00000  Uiso   1.00
H1778  H     0.59565   0.36005   0.90281   0.00000  Uiso   1.00
C1779  C     0.55100   0.38194   0.95184   0.00000  Uiso   1.00
H1780  H     0.55378   0.35319   0.97281   0.00000  Uiso   1.00
H1781  H     0.51269   0.39593   0.95249   0.00000  Uiso   1.00
H1782  H     0.58089   0.40411   0.96860   0.00000  Uiso   1.00
N1783  N     0.42405   0.45448   0.94174   0.00000  Uiso   1.00
H1784  H     0.43749   0.42964   0.92488   0.00000  Uiso   1.00
C1785  C     0.37484   0.44604   0.95846   0.00000  Uiso   1.00
H1786  H     0.37898   0.42160   0.98567   0.00000  Uiso   1.00
H1787  H     0.34645   0.43471   0.92865   0.00000  Uiso   1.00
H1788  H     0.35960   0.47458   0.97286   0.00000  Uiso   1.00
N1789  N     0.57259   0.54825   0.72417   0.00000  Uiso   1.00
H1790  H     0.60993   0.53901   0.72234   0.00000  Uiso   1.00
C1791  C     0.56750   0.59226   0.71697   0.00000  Uiso   1.00
H1792  H     0.59275   0.60908   0.74533   0.00000  Uiso   1.00
H1793  H     0.52697   0.60165   0.71808   0.00000  Uiso   1.00
H1794  H     0.57939   0.60115   0.68248   0.00000  Uiso   1.00
C1795  C     0.83352   0.42079   0.83328   0.00000  Uiso   1.00
C1796  C     0.82980   0.57921   0.83334   0.00000  Uiso   1.00
C1797  C     0.73465   0.49977   0.82134   0.00000  Uiso   1.00
C1798  C     0.93202   0.50036   0.84531   0.00000  Uiso   1.00
C1799  C     0.67941   0.49878   0.81469   0.00000  Uiso   1.00
C1800  C     0.98727   0.50161   0.85187   0.00000  Uiso   1.00
C1801  C     0.79766   0.35506   0.79661   0.00000  Uiso   1.00
C1802  C     0.84163   0.64623   0.87615   0.00000  Uiso   1.00
C1803  C     0.79871   0.64519   0.79503   0.00000  Uiso   1.00
C1804  C     0.85295   0.35474   0.87265   0.00000  Uiso   1.00
C1805  C     0.82309   0.62392   0.83455   0.00000  Uiso   1.00
C1806  C     0.82917   0.37620   0.83341   0.00000  Uiso   1.00
C1807  C     0.79755   0.47736   0.68750   0.00000  Uiso   1.00
C1808  C     0.86933   0.52246   0.97938   0.00000  Uiso   1.00
C1809  C     0.79636   0.47769   0.97094   0.00000  Uiso   1.00
C1810  C     0.86879   0.52341   0.69557   0.00000  Uiso   1.00
Cu1811 Cu    0.83333   0.50001   0.88022   0.00000  Uiso   1.00
Cu1812 Cu    0.83333   0.49999   0.78645   0.00000  Uiso   1.00
H1813  H     0.99300   0.49526   0.77903   0.00000  Uiso   1.00
H1814  H     0.67374   0.50530   0.88747   0.00000  Uiso   1.00
H1815  H     0.77003   0.45902   0.70383   0.00000  Uiso   1.00
H1816  H     0.89811   0.54035   0.96390   0.00000  Uiso   1.00
N1817  N     0.83335   0.50001   0.95069   0.00000  Uiso   1.00
N1818  N     0.83332   0.49999   0.71597   0.00000  Uiso   1.00
O1819  O     0.83333   0.43989   0.87291   0.00000  Uiso   1.00
O1820  O     0.83334   0.56011   0.79375   0.00000  Uiso   1.00
O1821  O     0.83333   0.43988   0.79372   0.00000  Uiso   1.00
O1822  O     0.83334   0.56012   0.87294   0.00000  Uiso   1.00
O1823  O     0.75828   0.50000   0.86379   0.00000  Uiso   1.00
O1824  O     0.90839   0.50000   0.80288   0.00000  Uiso   1.00
O1825  O     0.75828   0.49999   0.78460   0.00000  Uiso   1.00
O1826  O     0.90839   0.50001   0.88207   0.00000  Uiso   1.00
O1827  O     0.76893   0.37602   0.76022   0.00000  Uiso   1.00
C1828  C     0.72537   0.39453   0.77632   0.00000  Uiso   1.00
H1829  H     0.71581   0.42221   0.75444   0.00000  Uiso   1.00
H1830  H     0.73260   0.40554   0.81357   0.00000  Uiso   1.00
C1831  C     0.67829   0.36519   0.77024   0.00000  Uiso   1.00
H1832  H     0.67124   0.35387   0.73321   0.00000  Uiso   1.00
H1833  H     0.68596   0.33848   0.79410   0.00000  Uiso   1.00
C1834  C     0.96318   0.38663   0.78219   0.00000  Uiso   1.00
H1835  H     0.96911   0.39794   0.81924   0.00000  Uiso   1.00
H1836  H     0.92991   0.36445   0.77790   0.00000  Uiso   1.00
H1837  H     0.95374   0.41310   0.75829   0.00000  Uiso   1.00
O1838  O     0.84859   0.62809   0.92022   0.00000  Uiso   1.00
C1839  C     0.79928   0.61947   0.93482   0.00000  Uiso   1.00
H1840  H     0.80496   0.59692   0.96402   0.00000  Uiso   1.00
H1841  H     0.77165   0.60445   0.90656   0.00000  Uiso   1.00
C1842  C     0.77425   0.65803   0.95287   0.00000  Uiso   1.00
H1843  H     0.79760   0.33596   0.98581   0.00000  Uiso   1.00
H1844  H     0.77253   0.34960   0.92631   0.00000  Uiso   1.00
C1845  C     0.71893   0.64858   0.96235   0.00000  Uiso   1.00
H1846  H     0.69371   0.64197   0.92869   0.00000  Uiso   1.00
H1847  H     0.70349   0.34231   0.97954   0.00000  Uiso   1.00
H1848  H     0.71777   0.62146   0.98571   0.00000  Uiso   1.00
N1849  N     0.77479   0.62361   0.75413   0.00000  Uiso   1.00
H1850  H     0.77286   0.63962   0.72304   0.00000  Uiso   1.00
C1851  C     0.72894   0.59881   0.75869   0.00000  Uiso   1.00
H1852  H     0.69409   0.61395   0.74057   0.00000  Uiso   1.00
H1853  H     0.72362   0.59374   0.79613   0.00000  Uiso   1.00
H1854  H     0.73220   0.56851   0.74129   0.00000  Uiso   1.00
N1855  N     0.89377   0.37379   0.90403   0.00000  Uiso   1.00
H1856  H     0.92899   0.36005   0.90281   0.00000  Uiso   1.00
C1857  C     0.88433   0.38194   0.95184   0.00000  Uiso   1.00
H1858  H     0.88711   0.35319   0.97281   0.00000  Uiso   1.00
H1859  H     0.84602   0.39593   0.95249   0.00000  Uiso   1.00
H1860  H     0.91422   0.40411   0.96860   0.00000  Uiso   1.00
N1861  N     0.75739   0.45448   0.94174   0.00000  Uiso   1.00
H1862  H     0.77083   0.42964   0.92488   0.00000  Uiso   1.00
C1863  C     0.70817   0.44604   0.95846   0.00000  Uiso   1.00
H1864  H     0.71232   0.42160   0.98567   0.00000  Uiso   1.00
H1865  H     0.67978   0.43471   0.92865   0.00000  Uiso   1.00
H1866  H     0.69293   0.47458   0.97286   0.00000  Uiso   1.00
N1867  N     0.90592   0.54825   0.72417   0.00000  Uiso   1.00
H1868  H     0.94326   0.53901   0.72234   0.00000  Uiso   1.00
C1869  C     0.90084   0.59226   0.71697   0.00000  Uiso   1.00
H1870  H     0.92609   0.60908   0.74533   0.00000  Uiso   1.00
H1871  H     0.86031   0.60165   0.71808   0.00000  Uiso   1.00
H1872  H     0.91273   0.60115   0.68248   0.00000  Uiso   1.00
C1873  C     0.16686   0.75412   0.83328   0.00000  Uiso   1.00
C1874  C     0.16313   0.91254   0.83334   0.00000  Uiso   1.00
C1875  C     0.06799   0.83310   0.82134   0.00000  Uiso   1.00
C1876  C     0.26535   0.83369   0.84531   0.00000  Uiso   1.00
C1877  C     0.01274   0.83212   0.81469   0.00000  Uiso   1.00
C1878  C     0.32061   0.83494   0.85187   0.00000  Uiso   1.00
C1879  C     0.13099   0.68839   0.79661   0.00000  Uiso   1.00
C1880  C     0.17496   0.97957   0.87615   0.00000  Uiso   1.00
C1881  C     0.13205   0.97852   0.79503   0.00000  Uiso   1.00
C1882  C     0.18628   0.68807   0.87265   0.00000  Uiso   1.00
C1883  C     0.15642   0.95725   0.83455   0.00000  Uiso   1.00
C1884  C     0.16250   0.70953   0.83341   0.00000  Uiso   1.00
C1885  C     0.13089   0.81069   0.68750   0.00000  Uiso   1.00
C1886  C     0.20266   0.85580   0.97938   0.00000  Uiso   1.00
C1887  C     0.12969   0.81103   0.97094   0.00000  Uiso   1.00
C1888  C     0.20213   0.85674   0.69557   0.00000  Uiso   1.00
Cu1889 Cu    0.16667   0.83334   0.88022   0.00000  Uiso   1.00
Cu1890 Cu    0.16667   0.83333   0.78645   0.00000  Uiso   1.00
H1891  H     0.32634   0.82859   0.77903   0.00000  Uiso   1.00
H1892  H     0.00707   0.83863   0.88747   0.00000  Uiso   1.00
H1893  H     0.10336   0.79235   0.70383   0.00000  Uiso   1.00
H1894  H     0.23145   0.87368   0.96390   0.00000  Uiso   1.00
N1895  N     0.16668   0.83334   0.95069   0.00000  Uiso   1.00
N1896  N     0.16665   0.83332   0.71597   0.00000  Uiso   1.00
O1897  O     0.16666   0.77322   0.87291   0.00000  Uiso   1.00
O1898  O     0.16667   0.89345   0.79375   0.00000  Uiso   1.00
O1899  O     0.16666   0.77321   0.79372   0.00000  Uiso   1.00
O1900  O     0.16667   0.89346   0.87294   0.00000  Uiso   1.00
O1901  O     0.09161   0.83334   0.86379   0.00000  Uiso   1.00
O1902  O     0.24172   0.83333   0.80288   0.00000  Uiso   1.00
O1903  O     0.09161   0.83333   0.78460   0.00000  Uiso   1.00
O1904  O     0.24172   0.83334   0.88207   0.00000  Uiso   1.00
O1905  O     0.10226   0.70935   0.76022   0.00000  Uiso   1.00
C1906  C     0.05871   0.72786   0.77632   0.00000  Uiso   1.00
H1907  H     0.04915   0.75554   0.75444   0.00000  Uiso   1.00
H1908  H     0.06593   0.73888   0.81357   0.00000  Uiso   1.00
C1909  C     0.01162   0.69852   0.77024   0.00000  Uiso   1.00
H1910  H     0.00457   0.68721   0.73321   0.00000  Uiso   1.00
H1911  H     0.01930   0.67181   0.79410   0.00000  Uiso   1.00
C1912  C     0.29651   0.71996   0.78219   0.00000  Uiso   1.00
H1913  H     0.30245   0.73127   0.81924   0.00000  Uiso   1.00
H1914  H     0.26324   0.69778   0.77790   0.00000  Uiso   1.00
H1915  H     0.28708   0.74644   0.75829   0.00000  Uiso   1.00
O1916  O     0.18192   0.96142   0.92022   0.00000  Uiso   1.00
C1917  C     0.13262   0.95280   0.93482   0.00000  Uiso   1.00
H1918  H     0.13830   0.93025   0.96402   0.00000  Uiso   1.00
H1919  H     0.10498   0.93778   0.90656   0.00000  Uiso   1.00
C1920  C     0.10758   0.99136   0.95287   0.00000  Uiso   1.00
H1921  H     0.13093   0.66930   0.98581   0.00000  Uiso   1.00
H1922  H     0.10587   0.68293   0.92631   0.00000  Uiso   1.00
C1923  C     0.05227   0.98192   0.96235   0.00000  Uiso   1.00
H1924  H     0.02705   0.97531   0.92869   0.00000  Uiso   1.00
H1925  H     0.03682   0.67564   0.97954   0.00000  Uiso   1.00
H1926  H     0.05111   0.95479   0.98571   0.00000  Uiso   1.00
N1927  N     0.10813   0.95694   0.75413   0.00000  Uiso   1.00
H1928  H     0.10619   0.97295   0.72304   0.00000  Uiso   1.00
C1929  C     0.06227   0.93214   0.75869   0.00000  Uiso   1.00
H1930  H     0.02742   0.94729   0.74057   0.00000  Uiso   1.00
H1931  H     0.05696   0.92707   0.79613   0.00000  Uiso   1.00
H1932  H     0.06553   0.90184   0.74129   0.00000  Uiso   1.00
N1933  N     0.22711   0.70712   0.90403   0.00000  Uiso   1.00
H1934  H     0.26232   0.69338   0.90281   0.00000  Uiso   1.00
C1935  C     0.21767   0.71527   0.95184   0.00000  Uiso   1.00
H1936  H     0.22045   0.68652   0.97281   0.00000  Uiso   1.00
H1937  H     0.17936   0.72926   0.95249   0.00000  Uiso   1.00
H1938  H     0.24756   0.73744   0.96860   0.00000  Uiso   1.00
N1939  N     0.09072   0.78782   0.94174   0.00000  Uiso   1.00
H1940  H     0.10416   0.76298   0.92488   0.00000  Uiso   1.00
C1941  C     0.04151   0.77937   0.95846   0.00000  Uiso   1.00
H1942  H     0.04565   0.75494   0.98567   0.00000  Uiso   1.00
H1943  H     0.01311   0.76804   0.92865   0.00000  Uiso   1.00
H1944  H     0.02626   0.80792   0.97286   0.00000  Uiso   1.00
N1945  N     0.23926   0.88159   0.72417   0.00000  Uiso   1.00
H1946  H     0.27659   0.87235   0.72234   0.00000  Uiso   1.00
C1947  C     0.23417   0.92560   0.71697   0.00000  Uiso   1.00
H1948  H     0.25942   0.94241   0.74533   0.00000  Uiso   1.00
H1949  H     0.19364   0.93499   0.71808   0.00000  Uiso   1.00
H1950  H     0.24606   0.93448   0.68248   0.00000  Uiso   1.00
C1951  C     0.50019   0.75412   0.83328   0.00000  Uiso   1.00
C1952  C     0.49646   0.91254   0.83334   0.00000  Uiso   1.00
C1953  C     0.40132   0.83310   0.82134   0.00000  Uiso   1.00
C1954  C     0.59869   0.83369   0.84531   0.00000  Uiso   1.00
C1955  C     0.34607   0.83212   0.81469   0.00000  Uiso   1.00
C1956  C     0.65394   0.83494   0.85187   0.00000  Uiso   1.00
C1957  C     0.46433   0.68839   0.79661   0.00000  Uiso   1.00
C1958  C     0.50830   0.97957   0.87615   0.00000  Uiso   1.00
C1959  C     0.46538   0.97852   0.79503   0.00000  Uiso   1.00
C1960  C     0.51961   0.68807   0.87265   0.00000  Uiso   1.00
C1961  C     0.48975   0.95725   0.83455   0.00000  Uiso   1.00
C1962  C     0.49583   0.70953   0.83341   0.00000  Uiso   1.00
C1963  C     0.46422   0.81069   0.68750   0.00000  Uiso   1.00
C1964  C     0.53600   0.85580   0.97938   0.00000  Uiso   1.00
C1965  C     0.46303   0.81103   0.97094   0.00000  Uiso   1.00
C1966  C     0.53546   0.85674   0.69557   0.00000  Uiso   1.00
Cu1967 Cu    0.50000   0.83334   0.88022   0.00000  Uiso   1.00
Cu1968 Cu    0.50000   0.83333   0.78645   0.00000  Uiso   1.00
H1969  H     0.65967   0.82859   0.77903   0.00000  Uiso   1.00
H1970  H     0.34041   0.83863   0.88747   0.00000  Uiso   1.00
H1971  H     0.43669   0.79235   0.70383   0.00000  Uiso   1.00
H1972  H     0.56478   0.87368   0.96390   0.00000  Uiso   1.00
N1973  N     0.50001   0.83334   0.95069   0.00000  Uiso   1.00
N1974  N     0.49999   0.83332   0.71597   0.00000  Uiso   1.00
O1975  O     0.50000   0.77322   0.87291   0.00000  Uiso   1.00
O1976  O     0.50000   0.89345   0.79375   0.00000  Uiso   1.00
O1977  O     0.50000   0.77321   0.79372   0.00000  Uiso   1.00
O1978  O     0.50000   0.89346   0.87294   0.00000  Uiso   1.00
O1979  O     0.42495   0.83334   0.86379   0.00000  Uiso   1.00
O1980  O     0.57505   0.83333   0.80288   0.00000  Uiso   1.00
O1981  O     0.42494   0.83333   0.78460   0.00000  Uiso   1.00
O1982  O     0.57506   0.83334   0.88207   0.00000  Uiso   1.00
O1983  O     0.43559   0.70935   0.76022   0.00000  Uiso   1.00
C1984  C     0.39204   0.72786   0.77632   0.00000  Uiso   1.00
H1985  H     0.38248   0.75554   0.75444   0.00000  Uiso   1.00
H1986  H     0.39927   0.73888   0.81357   0.00000  Uiso   1.00
C1987  C     0.34495   0.69852   0.77024   0.00000  Uiso   1.00
H1988  H     0.33791   0.68721   0.73321   0.00000  Uiso   1.00
H1989  H     0.35263   0.67181   0.79410   0.00000  Uiso   1.00
C1990  C     0.62984   0.71996   0.78219   0.00000  Uiso   1.00
H1991  H     0.63578   0.73127   0.81924   0.00000  Uiso   1.00
H1992  H     0.59657   0.69778   0.77790   0.00000  Uiso   1.00
H1993  H     0.62041   0.74644   0.75829   0.00000  Uiso   1.00
O1994  O     0.51525   0.96142   0.92022   0.00000  Uiso   1.00
C1995  C     0.46595   0.95280   0.93482   0.00000  Uiso   1.00
H1996  H     0.47163   0.93025   0.96402   0.00000  Uiso   1.00
H1997  H     0.43832   0.93778   0.90656   0.00000  Uiso   1.00
C1998  C     0.44092   0.99136   0.95287   0.00000  Uiso   1.00
H1999  H     0.46426   0.66930   0.98581   0.00000  Uiso   1.00
H2000  H     0.43920   0.68293   0.92631   0.00000  Uiso   1.00
C2001  C     0.38560   0.98192   0.96235   0.00000  Uiso   1.00
H2002  H     0.36038   0.97531   0.92869   0.00000  Uiso   1.00
H2003  H     0.37016   0.67564   0.97954   0.00000  Uiso   1.00
H2004  H     0.38444   0.95479   0.98571   0.00000  Uiso   1.00
N2005  N     0.44146   0.95694   0.75413   0.00000  Uiso   1.00
H2006  H     0.43953   0.97295   0.72304   0.00000  Uiso   1.00
C2007  C     0.39561   0.93214   0.75869   0.00000  Uiso   1.00
H2008  H     0.36075   0.94729   0.74057   0.00000  Uiso   1.00
H2009  H     0.39029   0.92707   0.79613   0.00000  Uiso   1.00
H2010  H     0.39887   0.90184   0.74129   0.00000  Uiso   1.00
N2011  N     0.56044   0.70712   0.90403   0.00000  Uiso   1.00
H2012  H     0.59565   0.69338   0.90281   0.00000  Uiso   1.00
C2013  C     0.55100   0.71527   0.95184   0.00000  Uiso   1.00
H2014  H     0.55378   0.68652   0.97281   0.00000  Uiso   1.00
H2015  H     0.51269   0.72926   0.95249   0.00000  Uiso   1.00
H2016  H     0.58089   0.73744   0.96860   0.00000  Uiso   1.00
N2017  N     0.42405   0.78782   0.94174   0.00000  Uiso   1.00
H2018  H     0.43749   0.76298   0.92488   0.00000  Uiso   1.00
C2019  C     0.37484   0.77937   0.95846   0.00000  Uiso   1.00
H2020  H     0.37898   0.75494   0.98567   0.00000  Uiso   1.00
H2021  H     0.34645   0.76804   0.92865   0.00000  Uiso   1.00
H2022  H     0.35960   0.80792   0.97286   0.00000  Uiso   1.00
N2023  N     0.57259   0.88159   0.72417   0.00000  Uiso   1.00
H2024  H     0.60993   0.87235   0.72234   0.00000  Uiso   1.00
C2025  C     0.56750   0.92560   0.71697   0.00000  Uiso   1.00
H2026  H     0.59275   0.94241   0.74533   0.00000  Uiso   1.00
H2027  H     0.52697   0.93499   0.71808   0.00000  Uiso   1.00
H2028  H     0.57939   0.93448   0.68248   0.00000  Uiso   1.00
C2029  C     0.83352   0.75412   0.83328   0.00000  Uiso   1.00
C2030  C     0.82980   0.91254   0.83334   0.00000  Uiso   1.00
C2031  C     0.73465   0.83310   0.82134   0.00000  Uiso   1.00
C2032  C     0.93202   0.83369   0.84531   0.00000  Uiso   1.00
C2033  C     0.67941   0.83212   0.81469   0.00000  Uiso   1.00
C2034  C     0.98727   0.83494   0.85187   0.00000  Uiso   1.00
C2035  C     0.79766   0.68839   0.79661   0.00000  Uiso   1.00
C2036  C     0.84163   0.97957   0.87615   0.00000  Uiso   1.00
C2037  C     0.79871   0.97852   0.79503   0.00000  Uiso   1.00
C2038  C     0.85295   0.68807   0.87265   0.00000  Uiso   1.00
C2039  C     0.82309   0.95725   0.83455   0.00000  Uiso   1.00
C2040  C     0.82917   0.70953   0.83341   0.00000  Uiso   1.00
C2041  C     0.79755   0.81069   0.68750   0.00000  Uiso   1.00
C2042  C     0.86933   0.85580   0.97938   0.00000  Uiso   1.00
C2043  C     0.79636   0.81103   0.97094   0.00000  Uiso   1.00
C2044  C     0.86879   0.85674   0.69557   0.00000  Uiso   1.00
Cu2045 Cu    0.83333   0.83334   0.88022   0.00000  Uiso   1.00
Cu2046 Cu    0.83333   0.83333   0.78645   0.00000  Uiso   1.00
H2047  H     0.99300   0.82859   0.77903   0.00000  Uiso   1.00
H2048  H     0.67374   0.83863   0.88747   0.00000  Uiso   1.00
H2049  H     0.77003   0.79235   0.70383   0.00000  Uiso   1.00
H2050  H     0.89811   0.87368   0.96390   0.00000  Uiso   1.00
N2051  N     0.83335   0.83334   0.95069   0.00000  Uiso   1.00
N2052  N     0.83332   0.83332   0.71597   0.00000  Uiso   1.00
O2053  O     0.83333   0.77322   0.87291   0.00000  Uiso   1.00
O2054  O     0.83334   0.89345   0.79375   0.00000  Uiso   1.00
O2055  O     0.83333   0.77321   0.79372   0.00000  Uiso   1.00
O2056  O     0.83334   0.89346   0.87294   0.00000  Uiso   1.00
O2057  O     0.75828   0.83334   0.86379   0.00000  Uiso   1.00
O2058  O     0.90839   0.83333   0.80288   0.00000  Uiso   1.00
O2059  O     0.75828   0.83333   0.78460   0.00000  Uiso   1.00
O2060  O     0.90839   0.83334   0.88207   0.00000  Uiso   1.00
O2061  O     0.76893   0.70935   0.76022   0.00000  Uiso   1.00
C2062  C     0.72537   0.72786   0.77632   0.00000  Uiso   1.00
H2063  H     0.71581   0.75554   0.75444   0.00000  Uiso   1.00
H2064  H     0.73260   0.73888   0.81357   0.00000  Uiso   1.00
C2065  C     0.67829   0.69852   0.77024   0.00000  Uiso   1.00
H2066  H     0.67124   0.68721   0.73321   0.00000  Uiso   1.00
H2067  H     0.68596   0.67181   0.79410   0.00000  Uiso   1.00
C2068  C     0.96318   0.71996   0.78219   0.00000  Uiso   1.00
H2069  H     0.96911   0.73127   0.81924   0.00000  Uiso   1.00
H2070  H     0.92991   0.69778   0.77790   0.00000  Uiso   1.00
H2071  H     0.95374   0.74644   0.75829   0.00000  Uiso   1.00
O2072  O     0.84859   0.96142   0.92022   0.00000  Uiso   1.00
C2073  C     0.79928   0.95280   0.93482   0.00000  Uiso   1.00
H2074  H     0.80496   0.93025   0.96402   0.00000  Uiso   1.00
H2075  H     0.77165   0.93778   0.90656   0.00000  Uiso   1.00
C2076  C     0.77425   0.99136   0.95287   0.00000  Uiso   1.00
H2077  H     0.79760   0.66930   0.98581   0.00000  Uiso   1.00
H2078  H     0.77253   0.68293   0.92631   0.00000  Uiso   1.00
C2079  C     0.71893   0.98192   0.96235   0.00000  Uiso   1.00
H2080  H     0.69371   0.97531   0.92869   0.00000  Uiso   1.00
H2081  H     0.70349   0.67564   0.97954   0.00000  Uiso   1.00
H2082  H     0.71777   0.95479   0.98571   0.00000  Uiso   1.00
N2083  N     0.77479   0.95694   0.75413   0.00000  Uiso   1.00
H2084  H     0.77286   0.97295   0.72304   0.00000  Uiso   1.00
C2085  C     0.72894   0.93214   0.75869   0.00000  Uiso   1.00
H2086  H     0.69409   0.94729   0.74057   0.00000  Uiso   1.00
H2087  H     0.72362   0.92707   0.79613   0.00000  Uiso   1.00
H2088  H     0.73220   0.90184   0.74129   0.00000  Uiso   1.00
N2089  N     0.89377   0.70712   0.90403   0.00000  Uiso   1.00
H2090  H     0.92899   0.69338   0.90281   0.00000  Uiso   1.00
C2091  C     0.88433   0.71527   0.95184   0.00000  Uiso   1.00
H2092  H     0.88711   0.68652   0.97281   0.00000  Uiso   1.00
H2093  H     0.84602   0.72926   0.95249   0.00000  Uiso   1.00
H2094  H     0.91422   0.73744   0.96860   0.00000  Uiso   1.00
N2095  N     0.75739   0.78782   0.94174   0.00000  Uiso   1.00
H2096  H     0.77083   0.76298   0.92488   0.00000  Uiso   1.00
C2097  C     0.70817   0.77937   0.95846   0.00000  Uiso   1.00
H2098  H     0.71232   0.75494   0.98567   0.00000  Uiso   1.00
H2099  H     0.67978   0.76804   0.92865   0.00000  Uiso   1.00
H2100  H     0.69293   0.80792   0.97286   0.00000  Uiso   1.00
N2101  N     0.90592   0.88159   0.72417   0.00000  Uiso   1.00
H2102  H     0.94326   0.87235   0.72234   0.00000  Uiso   1.00
C2103  C     0.90084   0.92560   0.71697   0.00000  Uiso   1.00
H2104  H     0.92609   0.94241   0.74533   0.00000  Uiso   1.00
H2105  H     0.86031   0.93499   0.71808   0.00000  Uiso   1.00
H2106  H     0.91273   0.93448   0.68248   0.00000  Uiso   1.00
loop_
_geom_bond_atom_site_label_1
_geom_bond_atom_site_label_2
_geom_bond_distance
_geom_bond_site_symmetry_2
_ccdc_geom_bond_type
C1     O25     1.290   .     A
C1     C12     1.448   .     S
C1     O27     1.293   .     A
C2     C11     1.463   .     S
C2     O26     1.303   .     A
C2     O28     1.288   .     A
C3     O29     1.289   .     A
C3     O31     1.287   .     A
C3     C5      1.427   .     S
C4     C6      1.428   .     S
C4     O32     1.287   .     A
C4     O30     1.289   .     A
C5     C162    1.330   1_455 S
C5     H175    1.086   1_455 S
C6     C83     1.330   .     S
C6     H98     1.086   .     S
C7     O33     1.389   .     S
C7     C12     1.414   .     A
C7     C477    1.401   1_545 S
C8     O44     1.387   .     S
C8     C11     1.416   .     A
C8     C244    1.390   .     S
C9     C11     1.412   .     A
C9     N55     1.427   .     S
C9     C241    1.401   .     S
C10    C12     1.404   .     A
C10    N61     1.429   .     S
C10    C476    1.390   1_545 S
C13    N24     1.358   .     A
C13    H21     1.078   .     S
C13    C1419   1.425   1_554 S
C14    N23     1.361   .     A
C14    H22     1.082   .     S
C14    C718    1.421   .     S
C15    N23     1.384   .     A
C15    N67     1.429   .     S
C15    C715    1.425   .     S
C16    N24     1.377   .     A
C16    N73     1.419   .     S
C16    C1418   1.421   1_554 S
Cu17   O29     1.951   .     S
Cu17   N23     2.018   .     S
Cu17   Cu18    2.686   .     S
Cu17   O28     1.960   .     S
Cu17   O25     1.958   .     S
Cu17   O32     1.950   .     S
Cu18   O26     1.958   .     S
Cu18   N24     2.018   .     S
Cu18   O30     1.951   .     S
Cu18   O27     1.960   .     S
Cu18   O31     1.950   .     S
H19    C83     1.086   .     S
H20    C162    1.086   1_455 S
O33    C34     1.421   .     S
C34    C37     1.531   .     S
C34    H35     1.110   .     S
C34    H36     1.115   .     S
C37    H38     1.111   .     S
C37    H39     1.110   .     S
C37    C196    1.528   1_455 S
C40    H43     1.111   .     S
C40    H41     1.111   .     S
C40    H42     1.111   .     S
C40    C115    1.528   .     S
O44    C45     1.426   .     S
C45    H46     1.111   .     S
C45    H47     1.114   .     S
C45    C48     1.537   .     S
C48    C51     1.528   .     S
C48    H283    1.110   .     S
C48    H284    1.109   .     S
H49    C516    1.110   1_545 S
H50    C516    1.109   1_545 S
C51    H54     1.110   .     S
C51    H52     1.111   .     S
C51    H287    1.110   .     S
H53    C519    1.110   1_545 S
N55    H56     1.029   .     S
N55    C57     1.450   .     S
C57    H59     1.112   .     S
C57    H60     1.108   .     S
C57    H58     1.109   .     S
N61    H62     1.032   .     S
N61    C63     1.446   .     S
C63    H65     1.106   .     S
C63    H66     1.110   .     S
C63    H64     1.109   .     S
N67    H68     1.026   .     S
N67    C69     1.449   .     S
C69    H71     1.111   .     S
C69    H72     1.111   .     S
C69    H70     1.111   .     S
N73    H74     1.031   .     S
N73    C75     1.448   .     S
C75    H76     1.110   .     S
C75    H77     1.109   .     S
C75    H78     1.111   .     S
C79    O103    1.290   .     A
C79    C90     1.448   .     S
C79    O105    1.293   .     A
C80    C89     1.463   .     S
C80    O104    1.303   .     A
C80    O106    1.288   .     A
C81    O107    1.289   .     A
C81    O109    1.287   .     A
C81    C83     1.427   .     S
C82    C84     1.428   .     S
C82    O110    1.287   .     A
C82    O108    1.289   .     A
C84    C161    1.330   .     S
C84    H176    1.086   .     S
C85    O111    1.389   .     S
C85    C90     1.414   .     A
C85    C555    1.401   1_545 S
C86    O122    1.387   .     S
C86    C89     1.416   .     A
C86    C322    1.390   .     S
C87    C89     1.412   .     A
C87    N133    1.427   .     S
C87    C319    1.401   .     S
C88    C90     1.404   .     A
C88    N139    1.429   .     S
C88    C554    1.390   1_545 S
C91    N102    1.358   .     A
C91    H99     1.078   .     S
C91    C1497   1.425   1_554 S
C92    N101    1.361   .     A
C92    H100    1.082   .     S
C92    C796    1.421   .     S
C93    N101    1.384   .     A
C93    N145    1.429   .     S
C93    C793    1.425   .     S
C94    N102    1.377   .     A
C94    N151    1.419   .     S
C94    C1496   1.421   1_554 S
Cu95   O107    1.951   .     S
Cu95   N101    2.018   .     S
Cu95   Cu96    2.686   .     S
Cu95   O106    1.960   .     S
Cu95   O103    1.958   .     S
Cu95   O110    1.950   .     S
Cu96   O104    1.958   .     S
Cu96   N102    2.018   .     S
Cu96   O108    1.951   .     S
Cu96   O105    1.960   .     S
Cu96   O109    1.950   .     S
H97    C161    1.086   .     S
O111   C112    1.421   .     S
C112   C115    1.531   .     S
C112   H113    1.110   .     S
C112   H114    1.115   .     S
C115   H116    1.111   .     S
C115   H117    1.110   .     S
C118   H121    1.111   .     S
C118   H119    1.111   .     S
C118   H120    1.111   .     S
C118   C193    1.528   .     S
O122   C123    1.426   .     S
C123   H124    1.111   .     S
C123   H125    1.114   .     S
C123   C126    1.537   .     S
C126   C129    1.528   .     S
C126   H361    1.110   .     S
C126   H362    1.109   .     S
H127   C594    1.110   1_545 S
H128   C594    1.109   1_545 S
C129   H132    1.110   .     S
C129   H130    1.111   .     S
C129   H365    1.110   .     S
H131   C597    1.110   1_545 S
N133   H134    1.029   .     S
N133   C135    1.450   .     S
C135   H137    1.112   .     S
C135   H138    1.108   .     S
C135   H136    1.109   .     S
N139   H140    1.032   .     S
N139   C141    1.446   .     S
C141   H143    1.106   .     S
C141   H144    1.110   .     S
C141   H142    1.109   .     S
N145   H146    1.026   .     S
N145   C147    1.449   .     S
C147   H149    1.111   .     S
C147   H150    1.111   .     S
C147   H148    1.111   .     S
N151   H152    1.031   .     S
N151   C153    1.448   .     S
C153   H154    1.110   .     S
C153   H155    1.109   .     S
C153   H156    1.111   .     S
C157   O181    1.290   .     A
C157   C168    1.448   .     S
C157   O183    1.293   .     A
C158   C167    1.463   .     S
C158   O182    1.303   .     A
C158   O184    1.288   .     A
C159   O185    1.289   .     A
C159   O187    1.287   .     A
C159   C161    1.427   .     S
C160   C162    1.428   .     S
C160   O188    1.287   .     A
C160   O186    1.289   .     A
C162   C5      1.330   1_655 S
C162   H20     1.086   1_655 S
C163   O189    1.389   .     S
C163   C168    1.414   .     A
C163   C633    1.401   1_545 S
C164   O200    1.387   .     S
C164   C167    1.416   .     A
C164   C400    1.390   .     S
C165   C167    1.412   .     A
C165   N211    1.427   .     S
C165   C397    1.401   .     S
C166   C168    1.404   .     A
C166   N217    1.429   .     S
C166   C632    1.390   1_545 S
C169   N180    1.358   .     A
C169   H177    1.078   .     S
C169   C1575   1.425   1_554 S
C170   N179    1.361   .     A
C170   H178    1.082   .     S
C170   C874    1.421   .     S
C171   N179    1.384   .     A
C171   N223    1.429   .     S
C171   C871    1.425   .     S
C172   N180    1.377   .     A
C172   N229    1.419   .     S
C172   C1574   1.421   1_554 S
Cu173  O185    1.951   .     S
Cu173  N179    2.018   .     S
Cu173  Cu174   2.686   .     S
Cu173  O184    1.960   .     S
Cu173  O181    1.958   .     S
Cu173  O188    1.950   .     S
Cu174  O182    1.958   .     S
Cu174  N180    2.018   .     S
Cu174  O186    1.951   .     S
Cu174  O183    1.960   .     S
Cu174  O187    1.950   .     S
H175   C5      1.086   1_655 S
O189   C190    1.421   .     S
C190   C193    1.531   .     S
C190   H191    1.110   .     S
C190   H192    1.115   .     S
C193   H194    1.111   .     S
C193   H195    1.110   .     S
C196   H199    1.111   .     S
C196   H197    1.111   .     S
C196   H198    1.111   .     S
C196   C37     1.528   1_655 S
O200   C201    1.426   .     S
C201   H202    1.111   .     S
C201   H203    1.114   .     S
C201   C204    1.537   .     S
C204   C207    1.528   .     S
C204   H439    1.110   .     S
C204   H440    1.109   .     S
H205   C672    1.110   1_545 S
H206   C672    1.109   1_545 S
C207   H210    1.110   .     S
C207   H208    1.111   .     S
C207   H443    1.110   .     S
H209   C675    1.110   1_545 S
N211   H212    1.029   .     S
N211   C213    1.450   .     S
C213   H215    1.112   .     S
C213   H216    1.108   .     S
C213   H214    1.109   .     S
N217   H218    1.032   .     S
N217   C219    1.446   .     S
C219   H221    1.106   .     S
C219   H222    1.110   .     S
C219   H220    1.109   .     S
N223   H224    1.026   .     S
N223   C225    1.449   .     S
C225   H227    1.111   .     S
C225   H228    1.111   .     S
C225   H226    1.111   .     S
N229   H230    1.031   .     S
N229   C231    1.448   .     S
C231   H232    1.110   .     S
C231   H233    1.109   .     S
C231   H234    1.111   .     S
C235   O259    1.290   .     A
C235   C246    1.448   .     S
C235   O261    1.293   .     A
C236   C245    1.463   .     S
C236   O260    1.303   .     A
C236   O262    1.288   .     A
C237   O263    1.289   .     A
C237   O265    1.287   .     A
C237   C239    1.427   .     S
C238   C240    1.428   .     S
C238   O266    1.287   .     A
C238   O264    1.289   .     A
C239   C396    1.330   1_455 S
C239   H409    1.086   1_455 S
C240   C317    1.330   .     S
C240   H332    1.086   .     S
C241   O267    1.389   .     S
C241   C246    1.414   .     A
C242   O278    1.387   .     S
C242   C245    1.416   .     A
C242   C478    1.390   .     S
C243   C245    1.412   .     A
C243   N289    1.427   .     S
C243   C475    1.401   .     S
C244   C246    1.404   .     A
C244   N295    1.429   .     S
C247   N258    1.358   .     A
C247   H255    1.078   .     S
C247   C1653   1.425   1_554 S
C248   N257    1.361   .     A
C248   H256    1.082   .     S
C248   C952    1.421   .     S
C249   N257    1.384   .     A
C249   N301    1.429   .     S
C249   C949    1.425   .     S
C250   N258    1.377   .     A
C250   N307    1.419   .     S
C250   C1652   1.421   1_554 S
Cu251  O263    1.951   .     S
Cu251  N257    2.018   .     S
Cu251  Cu252   2.686   .     S
Cu251  O262    1.960   .     S
Cu251  O259    1.958   .     S
Cu251  O266    1.950   .     S
Cu252  O260    1.958   .     S
Cu252  N258    2.018   .     S
Cu252  O264    1.951   .     S
Cu252  O261    1.960   .     S
Cu252  O265    1.950   .     S
H253   C317    1.086   .     S
H254   C396    1.086   1_455 S
O267   C268    1.421   .     S
C268   C271    1.531   .     S
C268   H269    1.110   .     S
C268   H270    1.115   .     S
C271   H272    1.111   .     S
C271   H273    1.110   .     S
C271   C430    1.528   1_455 S
C274   H277    1.111   .     S
C274   H275    1.111   .     S
C274   H276    1.111   .     S
C274   C349    1.528   .     S
O278   C279    1.426   .     S
C279   H280    1.111   .     S
C279   H281    1.114   .     S
C279   C282    1.537   .     S
C282   C285    1.528   .     S
C282   H517    1.110   .     S
C282   H518    1.109   .     S
C285   H288    1.110   .     S
C285   H286    1.111   .     S
C285   H521    1.110   .     S
N289   H290    1.029   .     S
N289   C291    1.450   .     S
C291   H293    1.112   .     S
C291   H294    1.108   .     S
C291   H292    1.109   .     S
N295   H296    1.032   .     S
N295   C297    1.446   .     S
C297   H299    1.106   .     S
C297   H300    1.110   .     S
C297   H298    1.109   .     S
N301   H302    1.026   .     S
N301   C303    1.449   .     S
C303   H305    1.111   .     S
C303   H306    1.111   .     S
C303   H304    1.111   .     S
N307   H308    1.031   .     S
N307   C309    1.448   .     S
C309   H310    1.110   .     S
C309   H311    1.109   .     S
C309   H312    1.111   .     S
C313   O337    1.290   .     A
C313   C324    1.448   .     S
C313   O339    1.293   .     A
C314   C323    1.463   .     S
C314   O338    1.303   .     A
C314   O340    1.288   .     A
C315   O341    1.289   .     A
C315   O343    1.287   .     A
C315   C317    1.427   .     S
C316   C318    1.428   .     S
C316   O344    1.287   .     A
C316   O342    1.289   .     A
C318   C395    1.330   .     S
C318   H410    1.086   .     S
C319   O345    1.389   .     S
C319   C324    1.414   .     A
C320   O356    1.387   .     S
C320   C323    1.416   .     A
C320   C556    1.390   .     S
C321   C323    1.412   .     A
C321   N367    1.427   .     S
C321   C553    1.401   .     S
C322   C324    1.404   .     A
C322   N373    1.429   .     S
C325   N336    1.358   .     A
C325   H333    1.078   .     S
C325   C1731   1.425   1_554 S
C326   N335    1.361   .     A
C326   H334    1.082   .     S
C326   C1030   1.421   .     S
C327   N335    1.384   .     A
C327   N379    1.429   .     S
C327   C1027   1.425   .     S
C328   N336    1.377   .     A
C328   N385    1.419   .     S
C328   C1730   1.421   1_554 S
Cu329  O341    1.951   .     S
Cu329  N335    2.018   .     S
Cu329  Cu330   2.686   .     S
Cu329  O340    1.960   .     S
Cu329  O337    1.958   .     S
Cu329  O344    1.950   .     S
Cu330  O338    1.958   .     S
Cu330  N336    2.018   .     S
Cu330  O342    1.951   .     S
Cu330  O339    1.960   .     S
Cu330  O343    1.950   .     S
H331   C395    1.086   .     S
O345   C346    1.421   .     S
C346   C349    1.531   .     S
C346   H347    1.110   .     S
C346   H348    1.115   .     S
C349   H350    1.111   .     S
C349   H351    1.110   .     S
C352   H355    1.111   .     S
C352   H353    1.111   .     S
C352   H354    1.111   .     S
C352   C427    1.528   .     S
O356   C357    1.426   .     S
C357   H358    1.111   .     S
C357   H359    1.114   .     S
C357   C360    1.537   .     S
C360   C363    1.528   .     S
C360   H595    1.110   .     S
C360   H596    1.109   .     S
C363   H366    1.110   .     S
C363   H364    1.111   .     S
C363   H599    1.110   .     S
N367   H368    1.029   .     S
N367   C369    1.450   .     S
C369   H371    1.112   .     S
C369   H372    1.108   .     S
C369   H370    1.109   .     S
N373   H374    1.032   .     S
N373   C375    1.446   .     S
C375   H377    1.106   .     S
C375   H378    1.110   .     S
C375   H376    1.109   .     S
N379   H380    1.026   .     S
N379   C381    1.449   .     S
C381   H383    1.111   .     S
C381   H384    1.111   .     S
C381   H382    1.111   .     S
N385   H386    1.031   .     S
N385   C387    1.448   .     S
C387   H388    1.110   .     S
C387   H389    1.109   .     S
C387   H390    1.111   .     S
C391   O415    1.290   .     A
C391   C402    1.448   .     S
C391   O417    1.293   .     A
C392   C401    1.463   .     S
C392   O416    1.303   .     A
C392   O418    1.288   .     A
C393   O419    1.289   .     A
C393   O421    1.287   .     A
C393   C395    1.427   .     S
C394   C396    1.428   .     S
C394   O422    1.287   .     A
C394   O420    1.289   .     A
C396   C239    1.330   1_655 S
C396   H254    1.086   1_655 S
C397   O423    1.389   .     S
C397   C402    1.414   .     A
C398   O434    1.387   .     S
C398   C401    1.416   .     A
C398   C634    1.390   .     S
C399   C401    1.412   .     A
C399   N445    1.427   .     S
C399   C631    1.401   .     S
C400   C402    1.404   .     A
C400   N451    1.429   .     S
C403   N414    1.358   .     A
C403   H411    1.078   .     S
C403   C1809   1.425   1_554 S
C404   N413    1.361   .     A
C404   H412    1.082   .     S
C404   C1108   1.421   .     S
C405   N413    1.384   .     A
C405   N457    1.429   .     S
C405   C1105   1.425   .     S
C406   N414    1.377   .     A
C406   N463    1.419   .     S
C406   C1808   1.421   1_554 S
Cu407  O419    1.951   .     S
Cu407  N413    2.018   .     S
Cu407  Cu408   2.686   .     S
Cu407  O418    1.960   .     S
Cu407  O415    1.958   .     S
Cu407  O422    1.950   .     S
Cu408  O416    1.958   .     S
Cu408  N414    2.018   .     S
Cu408  O420    1.951   .     S
Cu408  O417    1.960   .     S
Cu408  O421    1.950   .     S
H409   C239    1.086   1_655 S
O423   C424    1.421   .     S
C424   C427    1.531   .     S
C424   H425    1.110   .     S
C424   H426    1.115   .     S
C427   H428    1.111   .     S
C427   H429    1.110   .     S
C430   H433    1.111   .     S
C430   H431    1.111   .     S
C430   H432    1.111   .     S
C430   C271    1.528   1_655 S
O434   C435    1.426   .     S
C435   H436    1.111   .     S
C435   H437    1.114   .     S
C435   C438    1.537   .     S
C438   C441    1.528   .     S
C438   H673    1.110   .     S
C438   H674    1.109   .     S
C441   H444    1.110   .     S
C441   H442    1.111   .     S
C441   H677    1.110   .     S
N445   H446    1.029   .     S
N445   C447    1.450   .     S
C447   H449    1.112   .     S
C447   H450    1.108   .     S
C447   H448    1.109   .     S
N451   H452    1.032   .     S
N451   C453    1.446   .     S
C453   H455    1.106   .     S
C453   H456    1.110   .     S
C453   H454    1.109   .     S
N457   H458    1.026   .     S
N457   C459    1.449   .     S
C459   H461    1.111   .     S
C459   H462    1.111   .     S
C459   H460    1.111   .     S
N463   H464    1.031   .     S
N463   C465    1.448   .     S
C465   H466    1.110   .     S
C465   H467    1.109   .     S
C465   H468    1.111   .     S
C469   O493    1.290   .     A
C469   C480    1.448   .     S
C469   O495    1.293   .     A
C470   C479    1.463   .     S
C470   O494    1.303   .     A
C470   O496    1.288   .     A
C471   O497    1.289   .     A
C471   O499    1.287   .     A
C471   C473    1.427   .     S
C472   C474    1.428   .     S
C472   O500    1.287   .     A
C472   O498    1.289   .     A
C473   C630    1.330   1_455 S
C473   H643    1.086   1_455 S
C474   C551    1.330   .     S
C474   H566    1.086   .     S
C475   O501    1.389   .     S
C475   C480    1.414   .     A
C476   O512    1.387   .     S
C476   C479    1.416   .     A
C476   C10     1.390   1_565 S
C477   C479    1.412   .     A
C477   N523    1.427   .     S
C477   C7      1.401   1_565 S
C478   C480    1.404   .     A
C478   N529    1.429   .     S
C481   N492    1.358   .     A
C481   H489    1.078   .     S
C481   C1887   1.425   1_554 S
C482   N491    1.361   .     A
C482   H490    1.082   .     S
C482   C1186   1.421   .     S
C483   N491    1.384   .     A
C483   N535    1.429   .     S
C483   C1183   1.425   .     S
C484   N492    1.377   .     A
C484   N541    1.419   .     S
C484   C1886   1.421   1_554 S
Cu485  O497    1.951   .     S
Cu485  N491    2.018   .     S
Cu485  Cu486   2.686   .     S
Cu485  O496    1.960   .     S
Cu485  O493    1.958   .     S
Cu485  O500    1.950   .     S
Cu486  O494    1.958   .     S
Cu486  N492    2.018   .     S
Cu486  O498    1.951   .     S
Cu486  O495    1.960   .     S
Cu486  O499    1.950   .     S
H487   C551    1.086   .     S
H488   C630    1.086   1_455 S
O501   C502    1.421   .     S
C502   C505    1.531   .     S
C502   H503    1.110   .     S
C502   H504    1.115   .     S
C505   H506    1.111   .     S
C505   H507    1.110   .     S
C505   C664    1.528   1_455 S
C508   H511    1.111   .     S
C508   H509    1.111   .     S
C508   H510    1.111   .     S
C508   C583    1.528   .     S
O512   C513    1.426   .     S
C513   H514    1.111   .     S
C513   H515    1.114   .     S
C513   C516    1.537   .     S
C516   C519    1.528   .     S
C516   H49     1.110   1_565 S
C516   H50     1.109   1_565 S
C519   H522    1.110   .     S
C519   H520    1.111   .     S
C519   H53     1.110   1_565 S
N523   H524    1.029   .     S
N523   C525    1.450   .     S
C525   H527    1.112   .     S
C525   H528    1.108   .     S
C525   H526    1.109   .     S
N529   H530    1.032   .     S
N529   C531    1.446   .     S
C531   H533    1.106   .     S
C531   H534    1.110   .     S
C531   H532    1.109   .     S
N535   H536    1.026   .     S
N535   C537    1.449   .     S
C537   H539    1.111   .     S
C537   H540    1.111   .     S
C537   H538    1.111   .     S
N541   H542    1.031   .     S
N541   C543    1.448   .     S
C543   H544    1.110   .     S
C543   H545    1.109   .     S
C543   H546    1.111   .     S
C547   O571    1.290   .     A
C547   C558    1.448   .     S
C547   O573    1.293   .     A
C548   C557    1.463   .     S
C548   O572    1.303   .     A
C548   O574    1.288   .     A
C549   O575    1.289   .     A
C549   O577    1.287   .     A
C549   C551    1.427   .     S
C550   C552    1.428   .     S
C550   O578    1.287   .     A
C550   O576    1.289   .     A
C552   C629    1.330   .     S
C552   H644    1.086   .     S
C553   O579    1.389   .     S
C553   C558    1.414   .     A
C554   O590    1.387   .     S
C554   C557    1.416   .     A
C554   C88     1.390   1_565 S
C555   C557    1.412   .     A
C555   N601    1.427   .     S
C555   C85     1.401   1_565 S
C556   C558    1.404   .     A
C556   N607    1.429   .     S
C559   N570    1.358   .     A
C559   H567    1.078   .     S
C559   C1965   1.425   1_554 S
C560   N569    1.361   .     A
C560   H568    1.082   .     S
C560   C1264   1.421   .     S
C561   N569    1.384   .     A
C561   N613    1.429   .     S
C561   C1261   1.425   .     S
C562   N570    1.377   .     A
C562   N619    1.419   .     S
C562   C1964   1.421   1_554 S
Cu563  O575    1.951   .     S
Cu563  N569    2.018   .     S
Cu563  Cu564   2.686   .     S
Cu563  O574    1.960   .     S
Cu563  O571    1.958   .     S
Cu563  O578    1.950   .     S
Cu564  O572    1.958   .     S
Cu564  N570    2.018   .     S
Cu564  O576    1.951   .     S
Cu564  O573    1.960   .     S
Cu564  O577    1.950   .     S
H565   C629    1.086   .     S
O579   C580    1.421   .     S
C580   C583    1.531   .     S
C580   H581    1.110   .     S
C580   H582    1.115   .     S
C583   H584    1.111   .     S
C583   H585    1.110   .     S
C586   H589    1.111   .     S
C586   H587    1.111   .     S
C586   H588    1.111   .     S
C586   C661    1.528   .     S
O590   C591    1.426   .     S
C591   H592    1.111   .     S
C591   H593    1.114   .     S
C591   C594    1.537   .     S
C594   C597    1.528   .     S
C594   H127    1.110   1_565 S
C594   H128    1.109   1_565 S
C597   H600    1.110   .     S
C597   H598    1.111   .     S
C597   H131    1.110   1_565 S
N601   H602    1.029   .     S
N601   C603    1.450   .     S
C603   H605    1.112   .     S
C603   H606    1.108   .     S
C603   H604    1.109   .     S
N607   H608    1.032   .     S
N607   C609    1.446   .     S
C609   H611    1.106   .     S
C609   H612    1.110   .     S
C609   H610    1.109   .     S
N613   H614    1.026   .     S
N613   C615    1.449   .     S
C615   H617    1.111   .     S
C615   H618    1.111   .     S
C615   H616    1.111   .     S
N619   H620    1.031   .     S
N619   C621    1.448   .     S
C621   H622    1.110   .     S
C621   H623    1.109   .     S
C621   H624    1.111   .     S
C625   O649    1.290   .     A
C625   C636    1.448   .     S
C625   O651    1.293   .     A
C626   C635    1.463   .     S
C626   O650    1.303   .     A
C626   O652    1.288   .     A
C627   O653    1.289   .     A
C627   O655    1.287   .     A
C627   C629    1.427   .     S
C628   C630    1.428   .     S
C628   O656    1.287   .     A
C628   O654    1.289   .     A
C630   C473    1.330   1_655 S
C630   H488    1.086   1_655 S
C631   O657    1.389   .     S
C631   C636    1.414   .     A
C632   O668    1.387   .     S
C632   C635    1.416   .     A
C632   C166    1.390   1_565 S
C633   C635    1.412   .     A
C633   N679    1.427   .     S
C633   C163    1.401   1_565 S
C634   C636    1.404   .     A
C634   N685    1.429   .     S
C637   N648    1.358   .     A
C637   H645    1.078   .     S
C637   C2043   1.425   1_554 S
C638   N647    1.361   .     A
C638   H646    1.082   .     S
C638   C1342   1.421   .     S
C639   N647    1.384   .     A
C639   N691    1.429   .     S
C639   C1339   1.425   .     S
C640   N648    1.377   .     A
C640   N697    1.419   .     S
C640   C2042   1.421   1_554 S
Cu641  O653    1.951   .     S
Cu641  N647    2.018   .     S
Cu641  Cu642   2.686   .     S
Cu641  O652    1.960   .     S
Cu641  O649    1.958   .     S
Cu641  O656    1.950   .     S
Cu642  O650    1.958   .     S
Cu642  N648    2.018   .     S
Cu642  O654    1.951   .     S
Cu642  O651    1.960   .     S
Cu642  O655    1.950   .     S
H643   C473    1.086   1_655 S
O657   C658    1.421   .     S
C658   C661    1.531   .     S
C658   H659    1.110   .     S
C658   H660    1.115   .     S
C661   H662    1.111   .     S
C661   H663    1.110   .     S
C664   H667    1.111   .     S
C664   H665    1.111   .     S
C664   H666    1.111   .     S
C664   C505    1.528   1_655 S
O668   C669    1.426   .     S
C669   H670    1.111   .     S
C669   H671    1.114   .     S
C669   C672    1.537   .     S
C672   C675    1.528   .     S
C672   H205    1.110   1_565 S
C672   H206    1.109   1_565 S
C675   H678    1.110   .     S
C675   H676    1.111   .     S
C675   H209    1.110   1_565 S
N679   H680    1.029   .     S
N679   C681    1.450   .     S
C681   H683    1.112   .     S
C681   H684    1.108   .     S
C681   H682    1.109   .     S
N685   H686    1.032   .     S
N685   C687    1.446   .     S
C687   H689    1.106   .     S
C687   H690    1.110   .     S
C687   H688    1.109   .     S
N691   H692    1.026   .     S
N691   C693    1.449   .     S
C693   H695    1.111   .     S
C693   H696    1.111   .     S
C693   H694    1.111   .     S
N697   H698    1.031   .     S
N697   C699    1.448   .     S
C699   H700    1.110   .     S
C699   H701    1.109   .     S
C699   H702    1.111   .     S
C703   O727    1.290   .     A
C703   C714    1.448   .     S
C703   O729    1.293   .     A
C704   C713    1.463   .     S
C704   O728    1.303   .     A
C704   O730    1.288   .     A
C705   O731    1.289   .     A
C705   O733    1.287   .     A
C705   C707    1.427   .     S
C706   C708    1.428   .     S
C706   O734    1.287   .     A
C706   O732    1.289   .     A
C707   C864    1.330   1_455 S
C707   H877    1.086   1_455 S
C708   C785    1.330   .     S
C708   H800    1.086   .     S
C709   O735    1.389   .     S
C709   C714    1.414   .     A
C709   C1179   1.401   1_545 S
C710   O746    1.387   .     S
C710   C713    1.416   .     A
C710   C946    1.390   .     S
C711   C713    1.412   .     A
C711   N757    1.427   .     S
C711   C943    1.401   .     S
C712   C714    1.404   .     A
C712   N763    1.429   .     S
C712   C1178   1.390   1_545 S
C715   N726    1.358   .     A
C715   H723    1.078   .     S
C716   N725    1.361   .     A
C716   H724    1.082   .     S
C716   C1420   1.421   .     S
C717   N725    1.384   .     A
C717   N769    1.429   .     S
C717   C1417   1.425   .     S
C718   N726    1.377   .     A
C718   N775    1.419   .     S
Cu719  O731    1.951   .     S
Cu719  N725    2.018   .     S
Cu719  Cu720   2.686   .     S
Cu719  O730    1.960   .     S
Cu719  O727    1.958   .     S
Cu719  O734    1.950   .     S
Cu720  O728    1.958   .     S
Cu720  N726    2.018   .     S
Cu720  O732    1.951   .     S
Cu720  O729    1.960   .     S
Cu720  O733    1.950   .     S
H721   C785    1.086   .     S
H722   C864    1.086   1_455 S
O735   C736    1.421   .     S
C736   C739    1.531   .     S
C736   H737    1.110   .     S
C736   H738    1.115   .     S
C739   H740    1.111   .     S
C739   H741    1.110   .     S
C739   C898    1.528   1_455 S
C742   H745    1.111   .     S
C742   H743    1.111   .     S
C742   H744    1.111   .     S
C742   C817    1.528   .     S
O746   C747    1.426   .     S
C747   H748    1.111   .     S
C747   H749    1.114   .     S
C747   C750    1.537   .     S
C750   C753    1.528   .     S
C750   H985    1.110   .     S
C750   H986    1.109   .     S
H751   C1218   1.110   1_545 S
H752   C1218   1.109   1_545 S
C753   H756    1.110   .     S
C753   H754    1.111   .     S
C753   H989    1.110   .     S
H755   C1221   1.110   1_545 S
N757   H758    1.029   .     S
N757   C759    1.450   .     S
C759   H761    1.112   .     S
C759   H762    1.108   .     S
C759   H760    1.109   .     S
N763   H764    1.032   .     S
N763   C765    1.446   .     S
C765   H767    1.106   .     S
C765   H768    1.110   .     S
C765   H766    1.109   .     S
N769   H770    1.026   .     S
N769   C771    1.449   .     S
C771   H773    1.111   .     S
C771   H774    1.111   .     S
C771   H772    1.111   .     S
N775   H776    1.031   .     S
N775   C777    1.448   .     S
C777   H778    1.110   .     S
C777   H779    1.109   .     S
C777   H780    1.111   .     S
C781   O805    1.290   .     A
C781   C792    1.448   .     S
C781   O807    1.293   .     A
C782   C791    1.463   .     S
C782   O806    1.303   .     A
C782   O808    1.288   .     A
C783   O809    1.289   .     A
C783   O811    1.287   .     A
C783   C785    1.427   .     S
C784   C786    1.428   .     S
C784   O812    1.287   .     A
C784   O810    1.289   .     A
C786   C863    1.330   .     S
C786   H878    1.086   .     S
C787   O813    1.389   .     S
C787   C792    1.414   .     A
C787   C1257   1.401   1_545 S
C788   O824    1.387   .     S
C788   C791    1.416   .     A
C788   C1024   1.390   .     S
C789   C791    1.412   .     A
C789   N835    1.427   .     S
C789   C1021   1.401   .     S
C790   C792    1.404   .     A
C790   N841    1.429   .     S
C790   C1256   1.390   1_545 S
C793   N804    1.358   .     A
C793   H801    1.078   .     S
C794   N803    1.361   .     A
C794   H802    1.082   .     S
C794   C1498   1.421   .     S
C795   N803    1.384   .     A
C795   N847    1.429   .     S
C795   C1495   1.425   .     S
C796   N804    1.377   .     A
C796   N853    1.419   .     S
Cu797  O809    1.951   .     S
Cu797  N803    2.018   .     S
Cu797  Cu798   2.686   .     S
Cu797  O808    1.960   .     S
Cu797  O805    1.958   .     S
Cu797  O812    1.950   .     S
Cu798  O806    1.958   .     S
Cu798  N804    2.018   .     S
Cu798  O810    1.951   .     S
Cu798  O807    1.960   .     S
Cu798  O811    1.950   .     S
H799   C863    1.086   .     S
O813   C814    1.421   .     S
C814   C817    1.531   .     S
C814   H815    1.110   .     S
C814   H816    1.115   .     S
C817   H818    1.111   .     S
C817   H819    1.110   .     S
C820   H823    1.111   .     S
C820   H821    1.111   .     S
C820   H822    1.111   .     S
C820   C895    1.528   .     S
O824   C825    1.426   .     S
C825   H826    1.111   .     S
C825   H827    1.114   .     S
C825   C828    1.537   .     S
C828   C831    1.528   .     S
C828   H1063   1.110   .     S
C828   H1064   1.109   .     S
H829   C1296   1.110   1_545 S
H830   C1296   1.109   1_545 S
C831   H834    1.110   .     S
C831   H832    1.111   .     S
C831   H1067   1.110   .     S
H833   C1299   1.110   1_545 S
N835   H836    1.029   .     S
N835   C837    1.450   .     S
C837   H839    1.112   .     S
C837   H840    1.108   .     S
C837   H838    1.109   .     S
N841   H842    1.032   .     S
N841   C843    1.446   .     S
C843   H845    1.106   .     S
C843   H846    1.110   .     S
C843   H844    1.109   .     S
N847   H848    1.026   .     S
N847   C849    1.449   .     S
C849   H851    1.111   .     S
C849   H852    1.111   .     S
C849   H850    1.111   .     S
N853   H854    1.031   .     S
N853   C855    1.448   .     S
C855   H856    1.110   .     S
C855   H857    1.109   .     S
C855   H858    1.111   .     S
C859   O883    1.290   .     A
C859   C870    1.448   .     S
C859   O885    1.293   .     A
C860   C869    1.463   .     S
C860   O884    1.303   .     A
C860   O886    1.288   .     A
C861   O887    1.289   .     A
C861   O889    1.287   .     A
C861   C863    1.427   .     S
C862   C864    1.428   .     S
C862   O890    1.287   .     A
C862   O888    1.289   .     A
C864   C707    1.330   1_655 S
C864   H722    1.086   1_655 S
C865   O891    1.389   .     S
C865   C870    1.414   .     A
C865   C1335   1.401   1_545 S
C866   O902    1.387   .     S
C866   C869    1.416   .     A
C866   C1102   1.390   .     S
C867   C869    1.412   .     A
C867   N913    1.427   .     S
C867   C1099   1.401   .     S
C868   C870    1.404   .     A
C868   N919    1.429   .     S
C868   C1334   1.390   1_545 S
C871   N882    1.358   .     A
C871   H879    1.078   .     S
C872   N881    1.361   .     A
C872   H880    1.082   .     S
C872   C1576   1.421   .     S
C873   N881    1.384   .     A
C873   N925    1.429   .     S
C873   C1573   1.425   .     S
C874   N882    1.377   .     A
C874   N931    1.419   .     S
Cu875  O887    1.951   .     S
Cu875  N881    2.018   .     S
Cu875  Cu876   2.686   .     S
Cu875  O886    1.960   .     S
Cu875  O883    1.958   .     S
Cu875  O890    1.950   .     S
Cu876  O884    1.958   .     S
Cu876  N882    2.018   .     S
Cu876  O888    1.951   .     S
Cu876  O885    1.960   .     S
Cu876  O889    1.950   .     S
H877   C707    1.086   1_655 S
O891   C892    1.421   .     S
C892   C895    1.531   .     S
C892   H893    1.110   .     S
C892   H894    1.115   .     S
C895   H896    1.111   .     S
C895   H897    1.110   .     S
C898   H901    1.111   .     S
C898   H899    1.111   .     S
C898   H900    1.111   .     S
C898   C739    1.528   1_655 S
O902   C903    1.426   .     S
C903   H904    1.111   .     S
C903   H905    1.114   .     S
C903   C906    1.537   .     S
C906   C909    1.528   .     S
C906   H1141   1.110   .     S
C906   H1142   1.109   .     S
H907   C1374   1.110   1_545 S
H908   C1374   1.109   1_545 S
C909   H912    1.110   .     S
C909   H910    1.111   .     S
C909   H1145   1.110   .     S
H911   C1377   1.110   1_545 S
N913   H914    1.029   .     S
N913   C915    1.450   .     S
C915   H917    1.112   .     S
C915   H918    1.108   .     S
C915   H916    1.109   .     S
N919   H920    1.032   .     S
N919   C921    1.446   .     S
C921   H923    1.106   .     S
C921   H924    1.110   .     S
C921   H922    1.109   .     S
N925   H926    1.026   .     S
N925   C927    1.449   .     S
C927   H929    1.111   .     S
C927   H930    1.111   .     S
C927   H928    1.111   .     S
N931   H932    1.031   .     S
N931   C933    1.448   .     S
C933   H934    1.110   .     S
C933   H935    1.109   .     S
C933   H936    1.111   .     S
C937   O961    1.290   .     A
C937   C948    1.448   .     S
C937   O963    1.293   .     A
C938   C947    1.463   .     S
C938   O962    1.303   .     A
C938   O964    1.288   .     A
C939   O965    1.289   .     A
C939   O967    1.287   .     A
C939   C941    1.427   .     S
C940   C942    1.428   .     S
C940   O968    1.287   .     A
C940   O966    1.289   .     A
C941   C1098   1.330   1_455 S
C941   H1111   1.086   1_455 S
C942   C1019   1.330   .     S
C942   H1034   1.086   .     S
C943   O969    1.389   .     S
C943   C948    1.414   .     A
C944   O980    1.387   .     S
C944   C947    1.416   .     A
C944   C1180   1.390   .     S
C945   C947    1.412   .     A
C945   N991    1.427   .     S
C945   C1177   1.401   .     S
C946   C948    1.404   .     A
C946   N997    1.429   .     S
C949   N960    1.358   .     A
C949   H957    1.078   .     S
C950   N959    1.361   .     A
C950   H958    1.082   .     S
C950   C1654   1.421   .     S
C951   N959    1.384   .     A
C951   N1003   1.429   .     S
C951   C1651   1.425   .     S
C952   N960    1.377   .     A
C952   N1009   1.419   .     S
Cu953  O965    1.951   .     S
Cu953  N959    2.018   .     S
Cu953  Cu954   2.686   .     S
Cu953  O964    1.960   .     S
Cu953  O961    1.958   .     S
Cu953  O968    1.950   .     S
Cu954  O962    1.958   .     S
Cu954  N960    2.018   .     S
Cu954  O966    1.951   .     S
Cu954  O963    1.960   .     S
Cu954  O967    1.950   .     S
H955   C1019   1.086   .     S
H956   C1098   1.086   1_455 S
O969   C970    1.421   .     S
C970   C973    1.531   .     S
C970   H971    1.110   .     S
C970   H972    1.115   .     S
C973   H974    1.111   .     S
C973   H975    1.110   .     S
C973   C1132   1.528   1_455 S
C976   H979    1.111   .     S
C976   H977    1.111   .     S
C976   H978    1.111   .     S
C976   C1051   1.528   .     S
O980   C981    1.426   .     S
C981   H982    1.111   .     S
C981   H983    1.114   .     S
C981   C984    1.537   .     S
C984   C987    1.528   .     S
C984   H1219   1.110   .     S
C984   H1220   1.109   .     S
C987   H990    1.110   .     S
C987   H988    1.111   .     S
C987   H1223   1.110   .     S
N991   H992    1.029   .     S
N991   C993    1.450   .     S
C993   H995    1.112   .     S
C993   H996    1.108   .     S
C993   H994    1.109   .     S
N997   H998    1.032   .     S
N997   C999    1.446   .     S
C999   H1001   1.106   .     S
C999   H1002   1.110   .     S
C999   H1000   1.109   .     S
N1003  H1004   1.026   .     S
N1003  C1005   1.449   .     S
C1005  H1007   1.111   .     S
C1005  H1008   1.111   .     S
C1005  H1006   1.111   .     S
N1009  H1010   1.031   .     S
N1009  C1011   1.448   .     S
C1011  H1012   1.110   .     S
C1011  H1013   1.109   .     S
C1011  H1014   1.111   .     S
C1015  O1039   1.290   .     A
C1015  C1026   1.448   .     S
C1015  O1041   1.293   .     A
C1016  C1025   1.463   .     S
C1016  O1040   1.303   .     A
C1016  O1042   1.288   .     A
C1017  O1043   1.289   .     A
C1017  O1045   1.287   .     A
C1017  C1019   1.427   .     S
C1018  C1020   1.428   .     S
C1018  O1046   1.287   .     A
C1018  O1044   1.289   .     A
C1020  C1097   1.330   .     S
C1020  H1112   1.086   .     S
C1021  O1047   1.389   .     S
C1021  C1026   1.414   .     A
C1022  O1058   1.387   .     S
C1022  C1025   1.416   .     A
C1022  C1258   1.390   .     S
C1023  C1025   1.412   .     A
C1023  N1069   1.427   .     S
C1023  C1255   1.401   .     S
C1024  C1026   1.404   .     A
C1024  N1075   1.429   .     S
C1027  N1038   1.358   .     A
C1027  H1035   1.078   .     S
C1028  N1037   1.361   .     A
C1028  H1036   1.082   .     S
C1028  C1732   1.421   .     S
C1029  N1037   1.384   .     A
C1029  N1081   1.429   .     S
C1029  C1729   1.425   .     S
C1030  N1038   1.377   .     A
C1030  N1087   1.419   .     S
Cu1031 O1043   1.951   .     S
Cu1031 N1037   2.018   .     S
Cu1031 Cu1032  2.686   .     S
Cu1031 O1042   1.960   .     S
Cu1031 O1039   1.958   .     S
Cu1031 O1046   1.950   .     S
Cu1032 O1040   1.958   .     S
Cu1032 N1038   2.018   .     S
Cu1032 O1044   1.951   .     S
Cu1032 O1041   1.960   .     S
Cu1032 O1045   1.950   .     S
H1033  C1097   1.086   .     S
O1047  C1048   1.421   .     S
C1048  C1051   1.531   .     S
C1048  H1049   1.110   .     S
C1048  H1050   1.115   .     S
C1051  H1052   1.111   .     S
C1051  H1053   1.110   .     S
C1054  H1057   1.111   .     S
C1054  H1055   1.111   .     S
C1054  H1056   1.111   .     S
C1054  C1129   1.528   .     S
O1058  C1059   1.426   .     S
C1059  H1060   1.111   .     S
C1059  H1061   1.114   .     S
C1059  C1062   1.537   .     S
C1062  C1065   1.528   .     S
C1062  H1297   1.110   .     S
C1062  H1298   1.109   .     S
C1065  H1068   1.110   .     S
C1065  H1066   1.111   .     S
C1065  H1301   1.110   .     S
N1069  H1070   1.029   .     S
N1069  C1071   1.450   .     S
C1071  H1073   1.112   .     S
C1071  H1074   1.108   .     S
C1071  H1072   1.109   .     S
N1075  H1076   1.032   .     S
N1075  C1077   1.446   .     S
C1077  H1079   1.106   .     S
C1077  H1080   1.110   .     S
C1077  H1078   1.109   .     S
N1081  H1082   1.026   .     S
N1081  C1083   1.449   .     S
C1083  H1085   1.111   .     S
C1083  H1086   1.111   .     S
C1083  H1084   1.111   .     S
N1087  H1088   1.031   .     S
N1087  C1089   1.448   .     S
C1089  H1090   1.110   .     S
C1089  H1091   1.109   .     S
C1089  H1092   1.111   .     S
C1093  O1117   1.290   .     A
C1093  C1104   1.448   .     S
C1093  O1119   1.293   .     A
C1094  C1103   1.463   .     S
C1094  O1118   1.303   .     A
C1094  O1120   1.288   .     A
C1095  O1121   1.289   .     A
C1095  O1123   1.287   .     A
C1095  C1097   1.427   .     S
C1096  C1098   1.428   .     S
C1096  O1124   1.287   .     A
C1096  O1122   1.289   .     A
C1098  C941    1.330   1_655 S
C1098  H956    1.086   1_655 S
C1099  O1125   1.389   .     S
C1099  C1104   1.414   .     A
C1100  O1136   1.387   .     S
C1100  C1103   1.416   .     A
C1100  C1336   1.390   .     S
C1101  C1103   1.412   .     A
C1101  N1147   1.427   .     S
C1101  C1333   1.401   .     S
C1102  C1104   1.404   .     A
C1102  N1153   1.429   .     S
C1105  N1116   1.358   .     A
C1105  H1113   1.078   .     S
C1106  N1115   1.361   .     A
C1106  H1114   1.082   .     S
C1106  C1810   1.421   .     S
C1107  N1115   1.384   .     A
C1107  N1159   1.429   .     S
C1107  C1807   1.425   .     S
C1108  N1116   1.377   .     A
C1108  N1165   1.419   .     S
Cu1109 O1121   1.951   .     S
Cu1109 N1115   2.018   .     S
Cu1109 Cu1110  2.686   .     S
Cu1109 O1120   1.960   .     S
Cu1109 O1117   1.958   .     S
Cu1109 O1124   1.950   .     S
Cu1110 O1118   1.958   .     S
Cu1110 N1116   2.018   .     S
Cu1110 O1122   1.951   .     S
Cu1110 O1119   1.960   .     S
Cu1110 O1123   1.950   .     S
H1111  C941    1.086   1_655 S
O1125  C1126   1.421   .     S
C1126  C1129   1.531   .     S
C1126  H1127   1.110   .     S
C1126  H1128   1.115   .     S
C1129  H1130   1.111   .     S
C1129  H1131   1.110   .     S
C1132  H1135   1.111   .     S
C1132  H1133   1.111   .     S
C1132  H1134   1.111   .     S
C1132  C973    1.528   1_655 S
O1136  C1137   1.426   .     S
C1137  H1138   1.111   .     S
C1137  H1139   1.114   .     S
C1137  C1140   1.537   .     S
C1140  C1143   1.528   .     S
C1140  H1375   1.110   .     S
C1140  H1376   1.109   .     S
C1143  H1146   1.110   .     S
C1143  H1144   1.111   .     S
C1143  H1379   1.110   .     S
N1147  H1148   1.029   .     S
N1147  C1149   1.450   .     S
C1149  H1151   1.112   .     S
C1149  H1152   1.108   .     S
C1149  H1150   1.109   .     S
N1153  H1154   1.032   .     S
N1153  C1155   1.446   .     S
C1155  H1157   1.106   .     S
C1155  H1158   1.110   .     S
C1155  H1156   1.109   .     S
N1159  H1160   1.026   .     S
N1159  C1161   1.449   .     S
C1161  H1163   1.111   .     S
C1161  H1164   1.111   .     S
C1161  H1162   1.111   .     S
N1165  H1166   1.031   .     S
N1165  C1167   1.448   .     S
C1167  H1168   1.110   .     S
C1167  H1169   1.109   .     S
C1167  H1170   1.111   .     S
C1171  O1195   1.290   .     A
C1171  C1182   1.448   .     S
C1171  O1197   1.293   .     A
C1172  C1181   1.463   .     S
C1172  O1196   1.303   .     A
C1172  O1198   1.288   .     A
C1173  O1199   1.289   .     A
C1173  O1201   1.287   .     A
C1173  C1175   1.427   .     S
C1174  C1176   1.428   .     S
C1174  O1202   1.287   .     A
C1174  O1200   1.289   .     A
C1175  C1332   1.330   1_455 S
C1175  H1345   1.086   1_455 S
C1176  C1253   1.330   .     S
C1176  H1268   1.086   .     S
C1177  O1203   1.389   .     S
C1177  C1182   1.414   .     A
C1178  O1214   1.387   .     S
C1178  C1181   1.416   .     A
C1178  C712    1.390   1_565 S
C1179  C1181   1.412   .     A
C1179  N1225   1.427   .     S
C1179  C709    1.401   1_565 S
C1180  C1182   1.404   .     A
C1180  N1231   1.429   .     S
C1183  N1194   1.358   .     A
C1183  H1191   1.078   .     S
C1184  N1193   1.361   .     A
C1184  H1192   1.082   .     S
C1184  C1888   1.421   .     S
C1185  N1193   1.384   .     A
C1185  N1237   1.429   .     S
C1185  C1885   1.425   .     S
C1186  N1194   1.377   .     A
C1186  N1243   1.419   .     S
Cu1187 O1199   1.951   .     S
Cu1187 N1193   2.018   .     S
Cu1187 Cu1188  2.686   .     S
Cu1187 O1198   1.960   .     S
Cu1187 O1195   1.958   .     S
Cu1187 O1202   1.950   .     S
Cu1188 O1196   1.958   .     S
Cu1188 N1194   2.018   .     S
Cu1188 O1200   1.951   .     S
Cu1188 O1197   1.960   .     S
Cu1188 O1201   1.950   .     S
H1189  C1253   1.086   .     S
H1190  C1332   1.086   1_455 S
O1203  C1204   1.421   .     S
C1204  C1207   1.531   .     S
C1204  H1205   1.110   .     S
C1204  H1206   1.115   .     S
C1207  H1208   1.111   .     S
C1207  H1209   1.110   .     S
C1207  C1366   1.528   1_455 S
C1210  H1213   1.111   .     S
C1210  H1211   1.111   .     S
C1210  H1212   1.111   .     S
C1210  C1285   1.528   .     S
O1214  C1215   1.426   .     S
C1215  H1216   1.111   .     S
C1215  H1217   1.114   .     S
C1215  C1218   1.537   .     S
C1218  C1221   1.528   .     S
C1218  H751    1.110   1_565 S
C1218  H752    1.109   1_565 S
C1221  H1224   1.110   .     S
C1221  H1222   1.111   .     S
C1221  H755    1.110   1_565 S
N1225  H1226   1.029   .     S
N1225  C1227   1.450   .     S
C1227  H1229   1.112   .     S
C1227  H1230   1.108   .     S
C1227  H1228   1.109   .     S
N1231  H1232   1.032   .     S
N1231  C1233   1.446   .     S
C1233  H1235   1.106   .     S
C1233  H1236   1.110   .     S
C1233  H1234   1.109   .     S
N1237  H1238   1.026   .     S
N1237  C1239   1.449   .     S
C1239  H1241   1.111   .     S
C1239  H1242   1.111   .     S
C1239  H1240   1.111   .     S
N1243  H1244   1.031   .     S
N1243  C1245   1.448   .     S
C1245  H1246   1.110   .     S
C1245  H1247   1.109   .     S
C1245  H1248   1.111   .     S
C1249  O1273   1.290   .     A
C1249  C1260   1.448   .     S
C1249  O1275   1.293   .     A
C1250  C1259   1.463   .     S
C1250  O1274   1.303   .     A
C1250  O1276   1.288   .     A
C1251  O1277   1.289   .     A
C1251  O1279   1.287   .     A
C1251  C1253   1.427   .     S
C1252  C1254   1.428   .     S
C1252  O1280   1.287   .     A
C1252  O1278   1.289   .     A
C1254  C1331   1.330   .     S
C1254  H1346   1.086   .     S
C1255  O1281   1.389   .     S
C1255  C1260   1.414   .     A
C1256  O1292   1.387   .     S
C1256  C1259   1.416   .     A
C1256  C790    1.390   1_565 S
C1257  C1259   1.412   .     A
C1257  N1303   1.427   .     S
C1257  C787    1.401   1_565 S
C1258  C1260   1.404   .     A
C1258  N1309   1.429   .     S
C1261  N1272   1.358   .     A
C1261  H1269   1.078   .     S
C1262  N1271   1.361   .     A
C1262  H1270   1.082   .     S
C1262  C1966   1.421   .     S
C1263  N1271   1.384   .     A
C1263  N1315   1.429   .     S
C1263  C1963   1.425   .     S
C1264  N1272   1.377   .     A
C1264  N1321   1.419   .     S
Cu1265 O1277   1.951   .     S
Cu1265 N1271   2.018   .     S
Cu1265 Cu1266  2.686   .     S
Cu1265 O1276   1.960   .     S
Cu1265 O1273   1.958   .     S
Cu1265 O1280   1.950   .     S
Cu1266 O1274   1.958   .     S
Cu1266 N1272   2.018   .     S
Cu1266 O1278   1.951   .     S
Cu1266 O1275   1.960   .     S
Cu1266 O1279   1.950   .     S
H1267  C1331   1.086   .     S
O1281  C1282   1.421   .     S
C1282  C1285   1.531   .     S
C1282  H1283   1.110   .     S
C1282  H1284   1.115   .     S
C1285  H1286   1.111   .     S
C1285  H1287   1.110   .     S
C1288  H1291   1.111   .     S
C1288  H1289   1.111   .     S
C1288  H1290   1.111   .     S
C1288  C1363   1.528   .     S
O1292  C1293   1.426   .     S
C1293  H1294   1.111   .     S
C1293  H1295   1.114   .     S
C1293  C1296   1.537   .     S
C1296  C1299   1.528   .     S
C1296  H829    1.110   1_565 S
C1296  H830    1.109   1_565 S
C1299  H1302   1.110   .     S
C1299  H1300   1.111   .     S
C1299  H833    1.110   1_565 S
N1303  H1304   1.029   .     S
N1303  C1305   1.450   .     S
C1305  H1307   1.112   .     S
C1305  H1308   1.108   .     S
C1305  H1306   1.109   .     S
N1309  H1310   1.032   .     S
N1309  C1311   1.446   .     S
C1311  H1313   1.106   .     S
C1311  H1314   1.110   .     S
C1311  H1312   1.109   .     S
N1315  H1316   1.026   .     S
N1315  C1317   1.449   .     S
C1317  H1319   1.111   .     S
C1317  H1320   1.111   .     S
C1317  H1318   1.111   .     S
N1321  H1322   1.031   .     S
N1321  C1323   1.448   .     S
C1323  H1324   1.110   .     S
C1323  H1325   1.109   .     S
C1323  H1326   1.111   .     S
C1327  O1351   1.290   .     A
C1327  C1338   1.448   .     S
C1327  O1353   1.293   .     A
C1328  C1337   1.463   .     S
C1328  O1352   1.303   .     A
C1328  O1354   1.288   .     A
C1329  O1355   1.289   .     A
C1329  O1357   1.287   .     A
C1329  C1331   1.427   .     S
C1330  C1332   1.428   .     S
C1330  O1358   1.287   .     A
C1330  O1356   1.289   .     A
C1332  C1175   1.330   1_655 S
C1332  H1190   1.086   1_655 S
C1333  O1359   1.389   .     S
C1333  C1338   1.414   .     A
C1334  O1370   1.387   .     S
C1334  C1337   1.416   .     A
C1334  C868    1.390   1_565 S
C1335  C1337   1.412   .     A
C1335  N1381   1.427   .     S
C1335  C865    1.401   1_565 S
C1336  C1338   1.404   .     A
C1336  N1387   1.429   .     S
C1339  N1350   1.358   .     A
C1339  H1347   1.078   .     S
C1340  N1349   1.361   .     A
C1340  H1348   1.082   .     S
C1340  C2044   1.421   .     S
C1341  N1349   1.384   .     A
C1341  N1393   1.429   .     S
C1341  C2041   1.425   .     S
C1342  N1350   1.377   .     A
C1342  N1399   1.419   .     S
Cu1343 O1355   1.951   .     S
Cu1343 N1349   2.018   .     S
Cu1343 Cu1344  2.686   .     S
Cu1343 O1354   1.960   .     S
Cu1343 O1351   1.958   .     S
Cu1343 O1358   1.950   .     S
Cu1344 O1352   1.958   .     S
Cu1344 N1350   2.018   .     S
Cu1344 O1356   1.951   .     S
Cu1344 O1353   1.960   .     S
Cu1344 O1357   1.950   .     S
H1345  C1175   1.086   1_655 S
O1359  C1360   1.421   .     S
C1360  C1363   1.531   .     S
C1360  H1361   1.110   .     S
C1360  H1362   1.115   .     S
C1363  H1364   1.111   .     S
C1363  H1365   1.110   .     S
C1366  H1369   1.111   .     S
C1366  H1367   1.111   .     S
C1366  H1368   1.111   .     S
C1366  C1207   1.528   1_655 S
O1370  C1371   1.426   .     S
C1371  H1372   1.111   .     S
C1371  H1373   1.114   .     S
C1371  C1374   1.537   .     S
C1374  C1377   1.528   .     S
C1374  H907    1.110   1_565 S
C1374  H908    1.109   1_565 S
C1377  H1380   1.110   .     S
C1377  H1378   1.111   .     S
C1377  H911    1.110   1_565 S
N1381  H1382   1.029   .     S
N1381  C1383   1.450   .     S
C1383  H1385   1.112   .     S
C1383  H1386   1.108   .     S
C1383  H1384   1.109   .     S
N1387  H1388   1.032   .     S
N1387  C1389   1.446   .     S
C1389  H1391   1.106   .     S
C1389  H1392   1.110   .     S
C1389  H1390   1.109   .     S
N1393  H1394   1.026   .     S
N1393  C1395   1.449   .     S
C1395  H1397   1.111   .     S
C1395  H1398   1.111   .     S
C1395  H1396   1.111   .     S
N1399  H1400   1.031   .     S
N1399  C1401   1.448   .     S
C1401  H1402   1.110   .     S
C1401  H1403   1.109   .     S
C1401  H1404   1.111   .     S
C1405  O1429   1.290   .     A
C1405  C1416   1.448   .     S
C1405  O1431   1.293   .     A
C1406  C1415   1.463   .     S
C1406  O1430   1.303   .     A
C1406  O1432   1.288   .     A
C1407  O1433   1.289   .     A
C1407  O1435   1.287   .     A
C1407  C1409   1.427   .     S
C1408  C1410   1.428   .     S
C1408  O1436   1.287   .     A
C1408  O1434   1.289   .     A
C1409  C1566   1.330   1_455 S
C1409  H1579   1.086   1_455 S
C1410  C1487   1.330   .     S
C1410  H1502   1.086   .     S
C1411  O1437   1.389   .     S
C1411  C1416   1.414   .     A
C1411  C1881   1.401   1_545 S
C1412  O1448   1.387   .     S
C1412  C1415   1.416   .     A
C1412  C1648   1.390   .     S
C1413  C1415   1.412   .     A
C1413  N1459   1.427   .     S
C1413  C1645   1.401   .     S
C1414  C1416   1.404   .     A
C1414  N1465   1.429   .     S
C1414  C1880   1.390   1_545 S
C1417  N1428   1.358   .     A
C1417  H1425   1.078   .     S
C1418  N1427   1.361   .     A
C1418  H1426   1.082   .     S
C1418  C16     1.421   1_556 S
C1419  N1427   1.384   .     A
C1419  N1471   1.429   .     S
C1419  C13     1.425   1_556 S
C1420  N1428   1.377   .     A
C1420  N1477   1.419   .     S
Cu1421 O1433   1.951   .     S
Cu1421 N1427   2.018   .     S
Cu1421 Cu1422  2.686   .     S
Cu1421 O1432   1.960   .     S
Cu1421 O1429   1.958   .     S
Cu1421 O1436   1.950   .     S
Cu1422 O1430   1.958   .     S
Cu1422 N1428   2.018   .     S
Cu1422 O1434   1.951   .     S
Cu1422 O1431   1.960   .     S
Cu1422 O1435   1.950   .     S
H1423  C1487   1.086   .     S
H1424  C1566   1.086   1_455 S
O1437  C1438   1.421   .     S
C1438  C1441   1.531   .     S
C1438  H1439   1.110   .     S
C1438  H1440   1.115   .     S
C1441  H1442   1.111   .     S
C1441  H1443   1.110   .     S
C1441  C1600   1.528   1_455 S
C1444  H1447   1.111   .     S
C1444  H1445   1.111   .     S
C1444  H1446   1.111   .     S
C1444  C1519   1.528   .     S
O1448  C1449   1.426   .     S
C1449  H1450   1.111   .     S
C1449  H1451   1.114   .     S
C1449  C1452   1.537   .     S
C1452  C1455   1.528   .     S
C1452  H1687   1.110   .     S
C1452  H1688   1.109   .     S
H1453  C1920   1.110   1_545 S
H1454  C1920   1.109   1_545 S
C1455  H1458   1.110   .     S
C1455  H1456   1.111   .     S
C1455  H1691   1.110   .     S
H1457  C1923   1.110   1_545 S
N1459  H1460   1.029   .     S
N1459  C1461   1.450   .     S
C1461  H1463   1.112   .     S
C1461  H1464   1.108   .     S
C1461  H1462   1.109   .     S
N1465  H1466   1.032   .     S
N1465  C1467   1.446   .     S
C1467  H1469   1.106   .     S
C1467  H1470   1.110   .     S
C1467  H1468   1.109   .     S
N1471  H1472   1.026   .     S
N1471  C1473   1.449   .     S
C1473  H1475   1.111   .     S
C1473  H1476   1.111   .     S
C1473  H1474   1.111   .     S
N1477  H1478   1.031   .     S
N1477  C1479   1.448   .     S
C1479  H1480   1.110   .     S
C1479  H1481   1.109   .     S
C1479  H1482   1.111   .     S
C1483  O1507   1.290   .     A
C1483  C1494   1.448   .     S
C1483  O1509   1.293   .     A
C1484  C1493   1.463   .     S
C1484  O1508   1.303   .     A
C1484  O1510   1.288   .     A
C1485  O1511   1.289   .     A
C1485  O1513   1.287   .     A
C1485  C1487   1.427   .     S
C1486  C1488   1.428   .     S
C1486  O1514   1.287   .     A
C1486  O1512   1.289   .     A
C1488  C1565   1.330   .     S
C1488  H1580   1.086   .     S
C1489  O1515   1.389   .     S
C1489  C1494   1.414   .     A
C1489  C1959   1.401   1_545 S
C1490  O1526   1.387   .     S
C1490  C1493   1.416   .     A
C1490  C1726   1.390   .     S
C1491  C1493   1.412   .     A
C1491  N1537   1.427   .     S
C1491  C1723   1.401   .     S
C1492  C1494   1.404   .     A
C1492  N1543   1.429   .     S
C1492  C1958   1.390   1_545 S
C1495  N1506   1.358   .     A
C1495  H1503   1.078   .     S
C1496  N1505   1.361   .     A
C1496  H1504   1.082   .     S
C1496  C94     1.421   1_556 S
C1497  N1505   1.384   .     A
C1497  N1549   1.429   .     S
C1497  C91     1.425   1_556 S
C1498  N1506   1.377   .     A
C1498  N1555   1.419   .     S
Cu1499 O1511   1.951   .     S
Cu1499 N1505   2.018   .     S
Cu1499 Cu1500  2.686   .     S
Cu1499 O1510   1.960   .     S
Cu1499 O1507   1.958   .     S
Cu1499 O1514   1.950   .     S
Cu1500 O1508   1.958   .     S
Cu1500 N1506   2.018   .     S
Cu1500 O1512   1.951   .     S
Cu1500 O1509   1.960   .     S
Cu1500 O1513   1.950   .     S
H1501  C1565   1.086   .     S
O1515  C1516   1.421   .     S
C1516  C1519   1.531   .     S
C1516  H1517   1.110   .     S
C1516  H1518   1.115   .     S
C1519  H1520   1.111   .     S
C1519  H1521   1.110   .     S
C1522  H1525   1.111   .     S
C1522  H1523   1.111   .     S
C1522  H1524   1.111   .     S
C1522  C1597   1.528   .     S
O1526  C1527   1.426   .     S
C1527  H1528   1.111   .     S
C1527  H1529   1.114   .     S
C1527  C1530   1.537   .     S
C1530  C1533   1.528   .     S
C1530  H1765   1.110   .     S
C1530  H1766   1.109   .     S
H1531  C1998   1.110   1_545 S
H1532  C1998   1.109   1_545 S
C1533  H1536   1.110   .     S
C1533  H1534   1.111   .     S
C1533  H1769   1.110   .     S
H1535  C2001   1.110   1_545 S
N1537  H1538   1.029   .     S
N1537  C1539   1.450   .     S
C1539  H1541   1.112   .     S
C1539  H1542   1.108   .     S
C1539  H1540   1.109   .     S
N1543  H1544   1.032   .     S
N1543  C1545   1.446   .     S
C1545  H1547   1.106   .     S
C1545  H1548   1.110   .     S
C1545  H1546   1.109   .     S
N1549  H1550   1.026   .     S
N1549  C1551   1.449   .     S
C1551  H1553   1.111   .     S
C1551  H1554   1.111   .     S
C1551  H1552   1.111   .     S
N1555  H1556   1.031   .     S
N1555  C1557   1.448   .     S
C1557  H1558   1.110   .     S
C1557  H1559   1.109   .     S
C1557  H1560   1.111   .     S
C1561  O1585   1.290   .     A
C1561  C1572   1.448   .     S
C1561  O1587   1.293   .     A
C1562  C1571   1.463   .     S
C1562  O1586   1.303   .     A
C1562  O1588   1.288   .     A
C1563  O1589   1.289   .     A
C1563  O1591   1.287   .     A
C1563  C1565   1.427   .     S
C1564  C1566   1.428   .     S
C1564  O1592   1.287   .     A
C1564  O1590   1.289   .     A
C1566  C1409   1.330   1_655 S
C1566  H1424   1.086   1_655 S
C1567  O1593   1.389   .     S
C1567  C1572   1.414   .     A
C1567  C2037   1.401   1_545 S
C1568  O1604   1.387   .     S
C1568  C1571   1.416   .     A
C1568  C1804   1.390   .     S
C1569  C1571   1.412   .     A
C1569  N1615   1.427   .     S
C1569  C1801   1.401   .     S
C1570  C1572   1.404   .     A
C1570  N1621   1.429   .     S
C1570  C2036   1.390   1_545 S
C1573  N1584   1.358   .     A
C1573  H1581   1.078   .     S
C1574  N1583   1.361   .     A
C1574  H1582   1.082   .     S
C1574  C172    1.421   1_556 S
C1575  N1583   1.384   .     A
C1575  N1627   1.429   .     S
C1575  C169    1.425   1_556 S
C1576  N1584   1.377   .     A
C1576  N1633   1.419   .     S
Cu1577 O1589   1.951   .     S
Cu1577 N1583   2.018   .     S
Cu1577 Cu1578  2.686   .     S
Cu1577 O1588   1.960   .     S
Cu1577 O1585   1.958   .     S
Cu1577 O1592   1.950   .     S
Cu1578 O1586   1.958   .     S
Cu1578 N1584   2.018   .     S
Cu1578 O1590   1.951   .     S
Cu1578 O1587   1.960   .     S
Cu1578 O1591   1.950   .     S
H1579  C1409   1.086   1_655 S
O1593  C1594   1.421   .     S
C1594  C1597   1.531   .     S
C1594  H1595   1.110   .     S
C1594  H1596   1.115   .     S
C1597  H1598   1.111   .     S
C1597  H1599   1.110   .     S
C1600  H1603   1.111   .     S
C1600  H1601   1.111   .     S
C1600  H1602   1.111   .     S
C1600  C1441   1.528   1_655 S
O1604  C1605   1.426   .     S
C1605  H1606   1.111   .     S
C1605  H1607   1.114   .     S
C1605  C1608   1.537   .     S
C1608  C1611   1.528   .     S
C1608  H1843   1.110   .     S
C1608  H1844   1.109   .     S
H1609  C2076   1.110   1_545 S
H1610  C2076   1.109   1_545 S
C1611  H1614   1.110   .     S
C1611  H1612   1.111   .     S
C1611  H1847   1.110   .     S
H1613  C2079   1.110   1_545 S
N1615  H1616   1.029   .     S
N1615  C1617   1.450   .     S
C1617  H1619   1.112   .     S
C1617  H1620   1.108   .     S
C1617  H1618   1.109   .     S
N1621  H1622   1.032   .     S
N1621  C1623   1.446   .     S
C1623  H1625   1.106   .     S
C1623  H1626   1.110   .     S
C1623  H1624   1.109   .     S
N1627  H1628   1.026   .     S
N1627  C1629   1.449   .     S
C1629  H1631   1.111   .     S
C1629  H1632   1.111   .     S
C1629  H1630   1.111   .     S
N1633  H1634   1.031   .     S
N1633  C1635   1.448   .     S
C1635  H1636   1.110   .     S
C1635  H1637   1.109   .     S
C1635  H1638   1.111   .     S
C1639  O1663   1.290   .     A
C1639  C1650   1.448   .     S
C1639  O1665   1.293   .     A
C1640  C1649   1.463   .     S
C1640  O1664   1.303   .     A
C1640  O1666   1.288   .     A
C1641  O1667   1.289   .     A
C1641  O1669   1.287   .     A
C1641  C1643   1.427   .     S
C1642  C1644   1.428   .     S
C1642  O1670   1.287   .     A
C1642  O1668   1.289   .     A
C1643  C1800   1.330   1_455 S
C1643  H1813   1.086   1_455 S
C1644  C1721   1.330   .     S
C1644  H1736   1.086   .     S
C1645  O1671   1.389   .     S
C1645  C1650   1.414   .     A
C1646  O1682   1.387   .     S
C1646  C1649   1.416   .     A
C1646  C1882   1.390   .     S
C1647  C1649   1.412   .     A
C1647  N1693   1.427   .     S
C1647  C1879   1.401   .     S
C1648  C1650   1.404   .     A
C1648  N1699   1.429   .     S
C1651  N1662   1.358   .     A
C1651  H1659   1.078   .     S
C1652  N1661   1.361   .     A
C1652  H1660   1.082   .     S
C1652  C250    1.421   1_556 S
C1653  N1661   1.384   .     A
C1653  N1705   1.429   .     S
C1653  C247    1.425   1_556 S
C1654  N1662   1.377   .     A
C1654  N1711   1.419   .     S
Cu1655 O1667   1.951   .     S
Cu1655 N1661   2.018   .     S
Cu1655 Cu1656  2.686   .     S
Cu1655 O1666   1.960   .     S
Cu1655 O1663   1.958   .     S
Cu1655 O1670   1.950   .     S
Cu1656 O1664   1.958   .     S
Cu1656 N1662   2.018   .     S
Cu1656 O1668   1.951   .     S
Cu1656 O1665   1.960   .     S
Cu1656 O1669   1.950   .     S
H1657  C1721   1.086   .     S
H1658  C1800   1.086   1_455 S
O1671  C1672   1.421   .     S
C1672  C1675   1.531   .     S
C1672  H1673   1.110   .     S
C1672  H1674   1.115   .     S
C1675  H1676   1.111   .     S
C1675  H1677   1.110   .     S
C1675  C1834   1.528   1_455 S
C1678  H1681   1.111   .     S
C1678  H1679   1.111   .     S
C1678  H1680   1.111   .     S
C1678  C1753   1.528   .     S
O1682  C1683   1.426   .     S
C1683  H1684   1.111   .     S
C1683  H1685   1.114   .     S
C1683  C1686   1.537   .     S
C1686  C1689   1.528   .     S
C1686  H1921   1.110   .     S
C1686  H1922   1.109   .     S
C1689  H1692   1.110   .     S
C1689  H1690   1.111   .     S
C1689  H1925   1.110   .     S
N1693  H1694   1.029   .     S
N1693  C1695   1.450   .     S
C1695  H1697   1.112   .     S
C1695  H1698   1.108   .     S
C1695  H1696   1.109   .     S
N1699  H1700   1.032   .     S
N1699  C1701   1.446   .     S
C1701  H1703   1.106   .     S
C1701  H1704   1.110   .     S
C1701  H1702   1.109   .     S
N1705  H1706   1.026   .     S
N1705  C1707   1.449   .     S
C1707  H1709   1.111   .     S
C1707  H1710   1.111   .     S
C1707  H1708   1.111   .     S
N1711  H1712   1.031   .     S
N1711  C1713   1.448   .     S
C1713  H1714   1.110   .     S
C1713  H1715   1.109   .     S
C1713  H1716   1.111   .     S
C1717  O1741   1.290   .     A
C1717  C1728   1.448   .     S
C1717  O1743   1.293   .     A
C1718  C1727   1.463   .     S
C1718  O1742   1.303   .     A
C1718  O1744   1.288   .     A
C1719  O1745   1.289   .     A
C1719  O1747   1.287   .     A
C1719  C1721   1.427   .     S
C1720  C1722   1.428   .     S
C1720  O1748   1.287   .     A
C1720  O1746   1.289   .     A
C1722  C1799   1.330   .     S
C1722  H1814   1.086   .     S
C1723  O1749   1.389   .     S
C1723  C1728   1.414   .     A
C1724  O1760   1.387   .     S
C1724  C1727   1.416   .     A
C1724  C1960   1.390   .     S
C1725  C1727   1.412   .     A
C1725  N1771   1.427   .     S
C1725  C1957   1.401   .     S
C1726  C1728   1.404   .     A
C1726  N1777   1.429   .     S
C1729  N1740   1.358   .     A
C1729  H1737   1.078   .     S
C1730  N1739   1.361   .     A
C1730  H1738   1.082   .     S
C1730  C328    1.421   1_556 S
C1731  N1739   1.384   .     A
C1731  N1783   1.429   .     S
C1731  C325    1.425   1_556 S
C1732  N1740   1.377   .     A
C1732  N1789   1.419   .     S
Cu1733 O1745   1.951   .     S
Cu1733 N1739   2.018   .     S
Cu1733 Cu1734  2.686   .     S
Cu1733 O1744   1.960   .     S
Cu1733 O1741   1.958   .     S
Cu1733 O1748   1.950   .     S
Cu1734 O1742   1.958   .     S
Cu1734 N1740   2.018   .     S
Cu1734 O1746   1.951   .     S
Cu1734 O1743   1.960   .     S
Cu1734 O1747   1.950   .     S
H1735  C1799   1.086   .     S
O1749  C1750   1.421   .     S
C1750  C1753   1.531   .     S
C1750  H1751   1.110   .     S
C1750  H1752   1.115   .     S
C1753  H1754   1.111   .     S
C1753  H1755   1.110   .     S
C1756  H1759   1.111   .     S
C1756  H1757   1.111   .     S
C1756  H1758   1.111   .     S
C1756  C1831   1.528   .     S
O1760  C1761   1.426   .     S
C1761  H1762   1.111   .     S
C1761  H1763   1.114   .     S
C1761  C1764   1.537   .     S
C1764  C1767   1.528   .     S
C1764  H1999   1.110   .     S
C1764  H2000   1.109   .     S
C1767  H1770   1.110   .     S
C1767  H1768   1.111   .     S
C1767  H2003   1.110   .     S
N1771  H1772   1.029   .     S
N1771  C1773   1.450   .     S
C1773  H1775   1.112   .     S
C1773  H1776   1.108   .     S
C1773  H1774   1.109   .     S
N1777  H1778   1.032   .     S
N1777  C1779   1.446   .     S
C1779  H1781   1.106   .     S
C1779  H1782   1.110   .     S
C1779  H1780   1.109   .     S
N1783  H1784   1.026   .     S
N1783  C1785   1.449   .     S
C1785  H1787   1.111   .     S
C1785  H1788   1.111   .     S
C1785  H1786   1.111   .     S
N1789  H1790   1.031   .     S
N1789  C1791   1.448   .     S
C1791  H1792   1.110   .     S
C1791  H1793   1.109   .     S
C1791  H1794   1.111   .     S
C1795  O1819   1.290   .     A
C1795  C1806   1.448   .     S
C1795  O1821   1.293   .     A
C1796  C1805   1.463   .     S
C1796  O1820   1.303   .     A
C1796  O1822   1.288   .     A
C1797  O1823   1.289   .     A
C1797  O1825   1.287   .     A
C1797  C1799   1.427   .     S
C1798  C1800   1.428   .     S
C1798  O1826   1.287   .     A
C1798  O1824   1.289   .     A
C1800  C1643   1.330   1_655 S
C1800  H1658   1.086   1_655 S
C1801  O1827   1.389   .     S
C1801  C1806   1.414   .     A
C1802  O1838   1.387   .     S
C1802  C1805   1.416   .     A
C1802  C2038   1.390   .     S
C1803  C1805   1.412   .     A
C1803  N1849   1.427   .     S
C1803  C2035   1.401   .     S
C1804  C1806   1.404   .     A
C1804  N1855   1.429   .     S
C1807  N1818   1.358   .     A
C1807  H1815   1.078   .     S
C1808  N1817   1.361   .     A
C1808  H1816   1.082   .     S
C1808  C406    1.421   1_556 S
C1809  N1817   1.384   .     A
C1809  N1861   1.429   .     S
C1809  C403    1.425   1_556 S
C1810  N1818   1.377   .     A
C1810  N1867   1.419   .     S
Cu1811 O1823   1.951   .     S
Cu1811 N1817   2.018   .     S
Cu1811 Cu1812  2.686   .     S
Cu1811 O1822   1.960   .     S
Cu1811 O1819   1.958   .     S
Cu1811 O1826   1.950   .     S
Cu1812 O1820   1.958   .     S
Cu1812 N1818   2.018   .     S
Cu1812 O1824   1.951   .     S
Cu1812 O1821   1.960   .     S
Cu1812 O1825   1.950   .     S
H1813  C1643   1.086   1_655 S
O1827  C1828   1.421   .     S
C1828  C1831   1.531   .     S
C1828  H1829   1.110   .     S
C1828  H1830   1.115   .     S
C1831  H1832   1.111   .     S
C1831  H1833   1.110   .     S
C1834  H1837   1.111   .     S
C1834  H1835   1.111   .     S
C1834  H1836   1.111   .     S
C1834  C1675   1.528   1_655 S
O1838  C1839   1.426   .     S
C1839  H1840   1.111   .     S
C1839  H1841   1.114   .     S
C1839  C1842   1.537   .     S
C1842  C1845   1.528   .     S
C1842  H2077   1.110   .     S
C1842  H2078   1.109   .     S
C1845  H1848   1.110   .     S
C1845  H1846   1.111   .     S
C1845  H2081   1.110   .     S
N1849  H1850   1.029   .     S
N1849  C1851   1.450   .     S
C1851  H1853   1.112   .     S
C1851  H1854   1.108   .     S
C1851  H1852   1.109   .     S
N1855  H1856   1.032   .     S
N1855  C1857   1.446   .     S
C1857  H1859   1.106   .     S
C1857  H1860   1.110   .     S
C1857  H1858   1.109   .     S
N1861  H1862   1.026   .     S
N1861  C1863   1.449   .     S
C1863  H1865   1.111   .     S
C1863  H1866   1.111   .     S
C1863  H1864   1.111   .     S
N1867  H1868   1.031   .     S
N1867  C1869   1.448   .     S
C1869  H1870   1.110   .     S
C1869  H1871   1.109   .     S
C1869  H1872   1.111   .     S
C1873  O1897   1.290   .     A
C1873  C1884   1.448   .     S
C1873  O1899   1.293   .     A
C1874  C1883   1.463   .     S
C1874  O1898   1.303   .     A
C1874  O1900   1.288   .     A
C1875  O1901   1.289   .     A
C1875  O1903   1.287   .     A
C1875  C1877   1.427   .     S
C1876  C1878   1.428   .     S
C1876  O1904   1.287   .     A
C1876  O1902   1.289   .     A
C1877  C2034   1.330   1_455 S
C1877  H2047   1.086   1_455 S
C1878  C1955   1.330   .     S
C1878  H1970   1.086   .     S
C1879  O1905   1.389   .     S
C1879  C1884   1.414   .     A
C1880  O1916   1.387   .     S
C1880  C1883   1.416   .     A
C1880  C1414   1.390   1_565 S
C1881  C1883   1.412   .     A
C1881  N1927   1.427   .     S
C1881  C1411   1.401   1_565 S
C1882  C1884   1.404   .     A
C1882  N1933   1.429   .     S
C1885  N1896   1.358   .     A
C1885  H1893   1.078   .     S
C1886  N1895   1.361   .     A
C1886  H1894   1.082   .     S
C1886  C484    1.421   1_556 S
C1887  N1895   1.384   .     A
C1887  N1939   1.429   .     S
C1887  C481    1.425   1_556 S
C1888  N1896   1.377   .     A
C1888  N1945   1.419   .     S
Cu1889 O1901   1.951   .     S
Cu1889 N1895   2.018   .     S
Cu1889 Cu1890  2.686   .     S
Cu1889 O1900   1.960   .     S
Cu1889 O1897   1.958   .     S
Cu1889 O1904   1.950   .     S
Cu1890 O1898   1.958   .     S
Cu1890 N1896   2.018   .     S
Cu1890 O1902   1.951   .     S
Cu1890 O1899   1.960   .     S
Cu1890 O1903   1.950   .     S
H1891  C1955   1.086   .     S
H1892  C2034   1.086   1_455 S
O1905  C1906   1.421   .     S
C1906  C1909   1.531   .     S
C1906  H1907   1.110   .     S
C1906  H1908   1.115   .     S
C1909  H1910   1.111   .     S
C1909  H1911   1.110   .     S
C1909  C2068   1.528   1_455 S
C1912  H1915   1.111   .     S
C1912  H1913   1.111   .     S
C1912  H1914   1.111   .     S
C1912  C1987   1.528   .     S
O1916  C1917   1.426   .     S
C1917  H1918   1.111   .     S
C1917  H1919   1.114   .     S
C1917  C1920   1.537   .     S
C1920  C1923   1.528   .     S
C1920  H1453   1.110   1_565 S
C1920  H1454   1.109   1_565 S
C1923  H1926   1.110   .     S
C1923  H1924   1.111   .     S
C1923  H1457   1.110   1_565 S
N1927  H1928   1.029   .     S
N1927  C1929   1.450   .     S
C1929  H1931   1.112   .     S
C1929  H1932   1.108   .     S
C1929  H1930   1.109   .     S
N1933  H1934   1.032   .     S
N1933  C1935   1.446   .     S
C1935  H1937   1.106   .     S
C1935  H1938   1.110   .     S
C1935  H1936   1.109   .     S
N1939  H1940   1.026   .     S
N1939  C1941   1.449   .     S
C1941  H1943   1.111   .     S
C1941  H1944   1.111   .     S
C1941  H1942   1.111   .     S
N1945  H1946   1.031   .     S
N1945  C1947   1.448   .     S
C1947  H1948   1.110   .     S
C1947  H1949   1.109   .     S
C1947  H1950   1.111   .     S
C1951  O1975   1.290   .     A
C1951  C1962   1.448   .     S
C1951  O1977   1.293   .     A
C1952  C1961   1.463   .     S
C1952  O1976   1.303   .     A
C1952  O1978   1.288   .     A
C1953  O1979   1.289   .     A
C1953  O1981   1.287   .     A
C1953  C1955   1.427   .     S
C1954  C1956   1.428   .     S
C1954  O1982   1.287   .     A
C1954  O1980   1.289   .     A
C1956  C2033   1.330   .     S
C1956  H2048   1.086   .     S
C1957  O1983   1.389   .     S
C1957  C1962   1.414   .     A
C1958  O1994   1.387   .     S
C1958  C1961   1.416   .     A
C1958  C1492   1.390   1_565 S
C1959  C1961   1.412   .     A
C1959  N2005   1.427   .     S
C1959  C1489   1.401   1_565 S
C1960  C1962   1.404   .     A
C1960  N2011   1.429   .     S
C1963  N1974   1.358   .     A
C1963  H1971   1.078   .     S
C1964  N1973   1.361   .     A
C1964  H1972   1.082   .     S
C1964  C562    1.421   1_556 S
C1965  N1973   1.384   .     A
C1965  N2017   1.429   .     S
C1965  C559    1.425   1_556 S
C1966  N1974   1.377   .     A
C1966  N2023   1.419   .     S
Cu1967 O1979   1.951   .     S
Cu1967 N1973   2.018   .     S
Cu1967 Cu1968  2.686   .     S
Cu1967 O1978   1.960   .     S
Cu1967 O1975   1.958   .     S
Cu1967 O1982   1.950   .     S
Cu1968 O1976   1.958   .     S
Cu1968 N1974   2.018   .     S
Cu1968 O1980   1.951   .     S
Cu1968 O1977   1.960   .     S
Cu1968 O1981   1.950   .     S
H1969  C2033   1.086   .     S
O1983  C1984   1.421   .     S
C1984  C1987   1.531   .     S
C1984  H1985   1.110   .     S
C1984  H1986   1.115   .     S
C1987  H1988   1.111   .     S
C1987  H1989   1.110   .     S
C1990  H1993   1.111   .     S
C1990  H1991   1.111   .     S
C1990  H1992   1.111   .     S
C1990  C2065   1.528   .     S
O1994  C1995   1.426   .     S
C1995  H1996   1.111   .     S
C1995  H1997   1.114   .     S
C1995  C1998   1.537   .     S
C1998  C2001   1.528   .     S
C1998  H1531   1.110   1_565 S
C1998  H1532   1.109   1_565 S
C2001  H2004   1.110   .     S
C2001  H2002   1.111   .     S
C2001  H1535   1.110   1_565 S
N2005  H2006   1.029   .     S
N2005  C2007   1.450   .     S
C2007  H2009   1.112   .     S
C2007  H2010   1.108   .     S
C2007  H2008   1.109   .     S
N2011  H2012   1.032   .     S
N2011  C2013   1.446   .     S
C2013  H2015   1.106   .     S
C2013  H2016   1.110   .     S
C2013  H2014   1.109   .     S
N2017  H2018   1.026   .     S
N2017  C2019   1.449   .     S
C2019  H2021   1.111   .     S
C2019  H2022   1.111   .     S
C2019  H2020   1.111   .     S
N2023  H2024   1.031   .     S
N2023  C2025   1.448   .     S
C2025  H2026   1.110   .     S
C2025  H2027   1.109   .     S
C2025  H2028   1.111   .     S
C2029  O2053   1.290   .     A
C2029  C2040   1.448   .     S
C2029  O2055   1.293   .     A
C2030  C2039   1.463   .     S
C2030  O2054   1.303   .     A
C2030  O2056   1.288   .     A
C2031  O2057   1.289   .     A
C2031  O2059   1.287   .     A
C2031  C2033   1.427   .     S
C2032  C2034   1.428   .     S
C2032  O2060   1.287   .     A
C2032  O2058   1.289   .     A
C2034  C1877   1.330   1_655 S
C2034  H1892   1.086   1_655 S
C2035  O2061   1.389   .     S
C2035  C2040   1.414   .     A
C2036  O2072   1.387   .     S
C2036  C2039   1.416   .     A
C2036  C1570   1.390   1_565 S
C2037  C2039   1.412   .     A
C2037  N2083   1.427   .     S
C2037  C1567   1.401   1_565 S
C2038  C2040   1.404   .     A
C2038  N2089   1.429   .     S
C2041  N2052   1.358   .     A
C2041  H2049   1.078   .     S
C2042  N2051   1.361   .     A
C2042  H2050   1.082   .     S
C2042  C640    1.421   1_556 S
C2043  N2051   1.384   .     A
C2043  N2095   1.429   .     S
C2043  C637    1.425   1_556 S
C2044  N2052   1.377   .     A
C2044  N2101   1.419   .     S
Cu2045 O2057   1.951   .     S
Cu2045 N2051   2.018   .     S
Cu2045 Cu2046  2.686   .     S
Cu2045 O2056   1.960   .     S
Cu2045 O2053   1.958   .     S
Cu2045 O2060   1.950   .     S
Cu2046 O2054   1.958   .     S
Cu2046 N2052   2.018   .     S
Cu2046 O2058   1.951   .     S
Cu2046 O2055   1.960   .     S
Cu2046 O2059   1.950   .     S
H2047  C1877   1.086   1_655 S
O2061  C2062   1.421   .     S
C2062  C2065   1.531   .     S
C2062  H2063   1.110   .     S
C2062  H2064   1.115   .     S
C2065  H2066   1.111   .     S
C2065  H2067   1.110   .     S
C2068  H2071   1.111   .     S
C2068  H2069   1.111   .     S
C2068  H2070   1.111   .     S
C2068  C1909   1.528   1_655 S
O2072  C2073   1.426   .     S
C2073  H2074   1.111   .     S
C2073  H2075   1.114   .     S
C2073  C2076   1.537   .     S
C2076  C2079   1.528   .     S
C2076  H1609   1.110   1_565 S
C2076  H1610   1.109   1_565 S
C2079  H2082   1.110   .     S
C2079  H2080   1.111   .     S
C2079  H1613   1.110   1_565 S
N2083  H2084   1.029   .     S
N2083  C2085   1.450   .     S
C2085  H2087   1.112   .     S
C2085  H2088   1.108   .     S
C2085  H2086   1.109   .     S
N2089  H2090   1.032   .     S
N2089  C2091   1.446   .     S
C2091  H2093   1.106   .     S
C2091  H2094   1.110   .     S
C2091  H2092   1.109   .     S
N2095  H2096   1.026   .     S
N2095  C2097   1.449   .     S
C2097  H2099   1.111   .     S
C2097  H2100   1.111   .     S
C2097  H2098   1.111   .     S
N2101  H2102   1.031   .     S
N2101  C2103   1.448   .     S
C2103  H2104   1.110   .     S
C2103  H2105   1.109   .     S
C2103  H2106   1.111   .     S
