data_str_m2_o1_o17_pcu_sym.28
_audit_creation_date              2020-01-03
_audit_creation_method            'Materials Studio'
_symmetry_space_group_name_H-M    'P1'
_symmetry_Int_Tables_number       1
_symmetry_cell_setting            triclinic
loop_
_symmetry_equiv_pos_as_xyz
  x,y,z
_cell_length_a                    32.3114
_cell_length_b                    28.5012
_cell_length_c                    30.3600
_cell_angle_alpha                 88.2926
_cell_angle_beta                  90.1906
_cell_angle_gamma                 90.0012
loop_
_atom_site_label
_atom_site_type_symbol
_atom_site_fract_x
_atom_site_fract_y
_atom_site_fract_z
_atom_site_U_iso_or_equiv
_atom_site_adp_type
_atom_site_occupancy
C1     C     0.08752   0.16663   0.24984   0.00000  Uiso   1.00
C2     C     0.04286   0.16639   0.24992   0.00000  Uiso   1.00
C3     C     0.13945   0.02565   0.22424   0.00000  Uiso   1.00
C4     C     0.19393   0.30774   0.27567   0.00000  Uiso   1.00
C5     C     0.19404   0.02404   0.27555   0.00000  Uiso   1.00
C6     C     0.13950   0.30935   0.22420   0.00000  Uiso   1.00
C7     C     0.16688   0.16756   0.16420   0.00000  Uiso   1.00
C8     C     0.16710   0.16580   0.33580   0.00000  Uiso   1.00
C9     C     0.16678   0.20665   0.40585   0.00000  Uiso   1.00
C10    C     0.16705   0.12685   0.09415   0.00000  Uiso   1.00
C11    C     0.16749   0.16387   0.38440   0.00000  Uiso   1.00
C12    C     0.24581   0.16662   0.25018   0.00000  Uiso   1.00
C13    C     0.16714   0.16962   0.11562   0.00000  Uiso   1.00
C14    C     0.16779   0.12087   0.40958   0.00000  Uiso   1.00
C15    C     0.16669   0.21268   0.09049   0.00000  Uiso   1.00
C16    C     0.16694   0.12202   0.45607   0.00000  Uiso   1.00
C17    C     0.16617   0.21152   0.04397   0.00000  Uiso   1.00
C18    C     0.16625   0.16586   0.47684   0.00000  Uiso   1.00
C19    C     0.16615   0.16767   0.02318   0.00000  Uiso   1.00
C20    C     0.16638   0.20798   0.45145   0.00000  Uiso   1.00
C21    C     0.16672   0.12555   0.04856   0.00000  Uiso   1.00
C22    C     0.16783   0.08047   0.48252   0.00000  Uiso   1.00
C23    C     0.16746   0.08232   0.02812   0.00000  Uiso   1.00
C24    C     0.16675   0.25307   0.01751   0.00000  Uiso   1.00
C25    C     0.17033   0.07501   0.38790   0.00000  Uiso   1.00
C26    C     0.16753   0.25866   0.11225   0.00000  Uiso   1.00
C27    C     0.04576   0.16416   0.16597   0.00000  Uiso   1.00
C28    C     0.05774   0.21302   0.14839   0.00000  Uiso   1.00
C29    C     0.28758   0.15918   0.33409   0.00000  Uiso   1.00
C30    C     0.27564   0.20698   0.35156   0.00000  Uiso   1.00
C31    C     0.28668   0.17055   0.16607   0.00000  Uiso   1.00
C32    C     0.27478   0.12186   0.15044   0.00000  Uiso   1.00
C33    C     0.04666   0.16583   0.33394   0.00000  Uiso   1.00
C34    C     0.16657   0.25121   0.47189   0.00000  Uiso   1.00
C35    C     0.05879   0.11631   0.34981   0.00000  Uiso   1.00
C36    C     0.02159   0.16634   0.20911   0.00000  Uiso   1.00
C37    C     0.31174   0.16396   0.29092   0.00000  Uiso   1.00
C38    C     0.31132   0.16770   0.20919   0.00000  Uiso   1.00
C39    C     0.02201   0.16536   0.29083   0.00000  Uiso   1.00
C40    C     0.29048   0.16637   0.25011   0.00000  Uiso   1.00
Cu41   Cu    0.16667   0.21355   0.25000   0.00000  Uiso   1.00
Cu42   Cu    0.16667   0.11978   0.25000   0.00000  Uiso   1.00
H43    H     0.16672   0.23956   0.38695   0.00000  Uiso   1.00
H44    H     0.11780   0.29134   0.20351   0.00000  Uiso   1.00
H45    H     0.19744   0.06659   0.36876   0.00000  Uiso   1.00
H46    H     0.19360   0.26780   0.13292   0.00000  Uiso   1.00
H47    H     0.03007   0.23580   0.14428   0.00000  Uiso   1.00
H48    H     0.07963   0.22975   0.17121   0.00000  Uiso   1.00
H49    H     0.07307   0.21013   0.11590   0.00000  Uiso   1.00
H50    H     0.07417   0.14260   0.17025   0.00000  Uiso   1.00
H51    H     0.02816   0.14583   0.14030   0.00000  Uiso   1.00
H52    H     0.26036   0.20215   0.38408   0.00000  Uiso   1.00
H53    H     0.30331   0.22953   0.35555   0.00000  Uiso   1.00
H54    H     0.16742   0.09394   0.11302   0.00000  Uiso   1.00
H55    H     0.25373   0.22509   0.32872   0.00000  Uiso   1.00
H56    H     0.25916   0.13789   0.32987   0.00000  Uiso   1.00
H57    H     0.30520   0.13926   0.35978   0.00000  Uiso   1.00
H58    H     0.30258   0.09948   0.14679   0.00000  Uiso   1.00
H59    H     0.25343   0.10415   0.17409   0.00000  Uiso   1.00
H60    H     0.25891   0.12529   0.11801   0.00000  Uiso   1.00
H61    H     0.25821   0.19185   0.16965   0.00000  Uiso   1.00
H62    H     0.30394   0.18951   0.13961   0.00000  Uiso   1.00
H63    H     0.08024   0.10011   0.32626   0.00000  Uiso   1.00
H64    H     0.07464   0.11801   0.38223   0.00000  Uiso   1.00
H65    H     0.16918   0.04608   0.46851   0.00000  Uiso   1.00
H66    H     0.03110   0.09355   0.35358   0.00000  Uiso   1.00
H67    H     0.07503   0.18751   0.33023   0.00000  Uiso   1.00
H68    H     0.02933   0.18314   0.36033   0.00000  Uiso   1.00
H69    H     0.16776   0.28749   0.03150   0.00000  Uiso   1.00
H70    H     0.16816   0.04973   0.04748   0.00000  Uiso   1.00
H71    H     0.16699   0.28380   0.45253   0.00000  Uiso   1.00
H72    H     0.11768   0.04505   0.20357   0.00000  Uiso   1.00
H73    H     0.21574   0.28847   0.29627   0.00000  Uiso   1.00
H74    H     0.21614   0.04214   0.29576   0.00000  Uiso   1.00
N75    N     0.16667   0.28402   0.25000   0.00000  Uiso   1.00
N76    N     0.16667   0.04931   0.25000   0.00000  Uiso   1.00
O77    O     0.10655   0.20625   0.25000   0.00000  Uiso   1.00
O78    O     0.13871   0.28611   0.10775   0.00000  Uiso   1.00
O79    O     0.22679   0.12709   0.25001   0.00000  Uiso   1.00
O80    O     0.22679   0.20625   0.25001   0.00000  Uiso   1.00
O81    O     0.10655   0.12709   0.25000   0.00000  Uiso   1.00
O82    O     0.16666   0.20627   0.18513   0.00000  Uiso   1.00
O83    O     0.16668   0.12707   0.31487   0.00000  Uiso   1.00
O84    O     0.16668   0.20627   0.31487   0.00000  Uiso   1.00
O85    O     0.16666   0.12707   0.18513   0.00000  Uiso   1.00
O86    O     0.14188   0.04691   0.39084   0.00000  Uiso   1.00
C87    C     0.42085   0.16663   0.24984   0.00000  Uiso   1.00
C88    C     0.37619   0.16639   0.24992   0.00000  Uiso   1.00
C89    C     0.47278   0.02565   0.22424   0.00000  Uiso   1.00
C90    C     0.52727   0.30774   0.27567   0.00000  Uiso   1.00
C91    C     0.52738   0.02404   0.27555   0.00000  Uiso   1.00
C92    C     0.47283   0.30935   0.22420   0.00000  Uiso   1.00
C93    C     0.50021   0.16756   0.16420   0.00000  Uiso   1.00
C94    C     0.50043   0.16580   0.33580   0.00000  Uiso   1.00
C95    C     0.50012   0.20665   0.40585   0.00000  Uiso   1.00
C96    C     0.50038   0.12685   0.09415   0.00000  Uiso   1.00
C97    C     0.50082   0.16387   0.38440   0.00000  Uiso   1.00
C98    C     0.57915   0.16662   0.25018   0.00000  Uiso   1.00
C99    C     0.50047   0.16962   0.11562   0.00000  Uiso   1.00
C100   C     0.50113   0.12087   0.40958   0.00000  Uiso   1.00
C101   C     0.50003   0.21268   0.09049   0.00000  Uiso   1.00
C102   C     0.50028   0.12202   0.45607   0.00000  Uiso   1.00
C103   C     0.49950   0.21152   0.04397   0.00000  Uiso   1.00
C104   C     0.49958   0.16586   0.47684   0.00000  Uiso   1.00
C105   C     0.49948   0.16767   0.02318   0.00000  Uiso   1.00
C106   C     0.49971   0.20798   0.45145   0.00000  Uiso   1.00
C107   C     0.50006   0.12555   0.04856   0.00000  Uiso   1.00
C108   C     0.50116   0.08047   0.48252   0.00000  Uiso   1.00
C109   C     0.50080   0.08232   0.02812   0.00000  Uiso   1.00
C110   C     0.50008   0.25307   0.01751   0.00000  Uiso   1.00
C111   C     0.50366   0.07501   0.38790   0.00000  Uiso   1.00
C112   C     0.50086   0.25866   0.11225   0.00000  Uiso   1.00
C113   C     0.37910   0.16416   0.16597   0.00000  Uiso   1.00
C114   C     0.39108   0.21302   0.14839   0.00000  Uiso   1.00
C115   C     0.62091   0.15918   0.33409   0.00000  Uiso   1.00
C116   C     0.60897   0.20698   0.35156   0.00000  Uiso   1.00
C117   C     0.62001   0.17055   0.16607   0.00000  Uiso   1.00
C118   C     0.60811   0.12186   0.15044   0.00000  Uiso   1.00
C119   C     0.37999   0.16583   0.33394   0.00000  Uiso   1.00
C120   C     0.49990   0.25121   0.47189   0.00000  Uiso   1.00
C121   C     0.39213   0.11631   0.34981   0.00000  Uiso   1.00
C122   C     0.35493   0.16634   0.20911   0.00000  Uiso   1.00
C123   C     0.64507   0.16396   0.29092   0.00000  Uiso   1.00
C124   C     0.64465   0.16770   0.20919   0.00000  Uiso   1.00
C125   C     0.35535   0.16536   0.29083   0.00000  Uiso   1.00
C126   C     0.62381   0.16637   0.25011   0.00000  Uiso   1.00
Cu127  Cu    0.50000   0.21355   0.25000   0.00000  Uiso   1.00
Cu128  Cu    0.50000   0.11978   0.25000   0.00000  Uiso   1.00
H129   H     0.50005   0.23956   0.38695   0.00000  Uiso   1.00
H130   H     0.45113   0.29134   0.20351   0.00000  Uiso   1.00
H131   H     0.53078   0.06659   0.36876   0.00000  Uiso   1.00
H132   H     0.52693   0.26780   0.13292   0.00000  Uiso   1.00
H133   H     0.36341   0.23580   0.14428   0.00000  Uiso   1.00
H134   H     0.41297   0.22975   0.17121   0.00000  Uiso   1.00
H135   H     0.40640   0.21013   0.11590   0.00000  Uiso   1.00
H136   H     0.40751   0.14260   0.17025   0.00000  Uiso   1.00
H137   H     0.36150   0.14583   0.14030   0.00000  Uiso   1.00
H138   H     0.59369   0.20215   0.38408   0.00000  Uiso   1.00
H139   H     0.63664   0.22953   0.35555   0.00000  Uiso   1.00
H140   H     0.50075   0.09394   0.11302   0.00000  Uiso   1.00
H141   H     0.58706   0.22509   0.32872   0.00000  Uiso   1.00
H142   H     0.59249   0.13789   0.32987   0.00000  Uiso   1.00
H143   H     0.63853   0.13926   0.35978   0.00000  Uiso   1.00
H144   H     0.63591   0.09948   0.14679   0.00000  Uiso   1.00
H145   H     0.58676   0.10415   0.17409   0.00000  Uiso   1.00
H146   H     0.59225   0.12529   0.11801   0.00000  Uiso   1.00
H147   H     0.59154   0.19185   0.16965   0.00000  Uiso   1.00
H148   H     0.63727   0.18951   0.13961   0.00000  Uiso   1.00
H149   H     0.41358   0.10011   0.32626   0.00000  Uiso   1.00
H150   H     0.40797   0.11801   0.38223   0.00000  Uiso   1.00
H151   H     0.50251   0.04608   0.46851   0.00000  Uiso   1.00
H152   H     0.36444   0.09355   0.35358   0.00000  Uiso   1.00
H153   H     0.40836   0.18751   0.33023   0.00000  Uiso   1.00
H154   H     0.36266   0.18314   0.36033   0.00000  Uiso   1.00
H155   H     0.50110   0.28749   0.03150   0.00000  Uiso   1.00
H156   H     0.50149   0.04973   0.04748   0.00000  Uiso   1.00
H157   H     0.50032   0.28380   0.45253   0.00000  Uiso   1.00
H158   H     0.45102   0.04505   0.20357   0.00000  Uiso   1.00
H159   H     0.54907   0.28847   0.29627   0.00000  Uiso   1.00
H160   H     0.54947   0.04214   0.29576   0.00000  Uiso   1.00
N161   N     0.50000   0.28402   0.25000   0.00000  Uiso   1.00
N162   N     0.50000   0.04931   0.25000   0.00000  Uiso   1.00
O163   O     0.43988   0.20625   0.25000   0.00000  Uiso   1.00
O164   O     0.47204   0.28611   0.10775   0.00000  Uiso   1.00
O165   O     0.56012   0.12709   0.25001   0.00000  Uiso   1.00
O166   O     0.56012   0.20625   0.25001   0.00000  Uiso   1.00
O167   O     0.43988   0.12709   0.25000   0.00000  Uiso   1.00
O168   O     0.49999   0.20627   0.18513   0.00000  Uiso   1.00
O169   O     0.50001   0.12707   0.31487   0.00000  Uiso   1.00
O170   O     0.50001   0.20627   0.31487   0.00000  Uiso   1.00
O171   O     0.49999   0.12707   0.18513   0.00000  Uiso   1.00
O172   O     0.47521   0.04691   0.39084   0.00000  Uiso   1.00
C173   C     0.75419   0.16663   0.24984   0.00000  Uiso   1.00
C174   C     0.70952   0.16639   0.24992   0.00000  Uiso   1.00
C175   C     0.80612   0.02565   0.22424   0.00000  Uiso   1.00
C176   C     0.86060   0.30774   0.27567   0.00000  Uiso   1.00
C177   C     0.86071   0.02404   0.27555   0.00000  Uiso   1.00
C178   C     0.80617   0.30935   0.22420   0.00000  Uiso   1.00
C179   C     0.83355   0.16756   0.16420   0.00000  Uiso   1.00
C180   C     0.83376   0.16580   0.33580   0.00000  Uiso   1.00
C181   C     0.83345   0.20665   0.40585   0.00000  Uiso   1.00
C182   C     0.83371   0.12685   0.09415   0.00000  Uiso   1.00
C183   C     0.83416   0.16387   0.38440   0.00000  Uiso   1.00
C184   C     0.91248   0.16662   0.25018   0.00000  Uiso   1.00
C185   C     0.83380   0.16962   0.11562   0.00000  Uiso   1.00
C186   C     0.83446   0.12087   0.40958   0.00000  Uiso   1.00
C187   C     0.83336   0.21268   0.09049   0.00000  Uiso   1.00
C188   C     0.83361   0.12202   0.45607   0.00000  Uiso   1.00
C189   C     0.83283   0.21152   0.04397   0.00000  Uiso   1.00
C190   C     0.83291   0.16586   0.47684   0.00000  Uiso   1.00
C191   C     0.83282   0.16767   0.02318   0.00000  Uiso   1.00
C192   C     0.83305   0.20798   0.45145   0.00000  Uiso   1.00
C193   C     0.83339   0.12555   0.04856   0.00000  Uiso   1.00
C194   C     0.83450   0.08047   0.48252   0.00000  Uiso   1.00
C195   C     0.83413   0.08232   0.02812   0.00000  Uiso   1.00
C196   C     0.83341   0.25307   0.01751   0.00000  Uiso   1.00
C197   C     0.83699   0.07501   0.38790   0.00000  Uiso   1.00
C198   C     0.83419   0.25866   0.11225   0.00000  Uiso   1.00
C199   C     0.71243   0.16416   0.16597   0.00000  Uiso   1.00
C200   C     0.72441   0.21302   0.14839   0.00000  Uiso   1.00
C201   C     0.95425   0.15918   0.33409   0.00000  Uiso   1.00
C202   C     0.94231   0.20698   0.35156   0.00000  Uiso   1.00
C203   C     0.95334   0.17055   0.16607   0.00000  Uiso   1.00
C204   C     0.94144   0.12186   0.15044   0.00000  Uiso   1.00
C205   C     0.71333   0.16583   0.33394   0.00000  Uiso   1.00
C206   C     0.83324   0.25121   0.47189   0.00000  Uiso   1.00
C207   C     0.72546   0.11631   0.34981   0.00000  Uiso   1.00
C208   C     0.68826   0.16634   0.20911   0.00000  Uiso   1.00
C209   C     0.97841   0.16396   0.29092   0.00000  Uiso   1.00
C210   C     0.97799   0.16770   0.20919   0.00000  Uiso   1.00
C211   C     0.68868   0.16536   0.29083   0.00000  Uiso   1.00
C212   C     0.95714   0.16637   0.25011   0.00000  Uiso   1.00
Cu213  Cu    0.83333   0.21355   0.25000   0.00000  Uiso   1.00
Cu214  Cu    0.83333   0.11978   0.25000   0.00000  Uiso   1.00
H215   H     0.83339   0.23956   0.38695   0.00000  Uiso   1.00
H216   H     0.78446   0.29134   0.20351   0.00000  Uiso   1.00
H217   H     0.86411   0.06659   0.36876   0.00000  Uiso   1.00
H218   H     0.86027   0.26780   0.13292   0.00000  Uiso   1.00
H219   H     0.69674   0.23580   0.14428   0.00000  Uiso   1.00
H220   H     0.74630   0.22975   0.17121   0.00000  Uiso   1.00
H221   H     0.73974   0.21013   0.11590   0.00000  Uiso   1.00
H222   H     0.74084   0.14260   0.17025   0.00000  Uiso   1.00
H223   H     0.69483   0.14583   0.14030   0.00000  Uiso   1.00
H224   H     0.92702   0.20215   0.38408   0.00000  Uiso   1.00
H225   H     0.96998   0.22953   0.35555   0.00000  Uiso   1.00
H226   H     0.83409   0.09394   0.11302   0.00000  Uiso   1.00
H227   H     0.92039   0.22509   0.32872   0.00000  Uiso   1.00
H228   H     0.92582   0.13789   0.32987   0.00000  Uiso   1.00
H229   H     0.97186   0.13926   0.35978   0.00000  Uiso   1.00
H230   H     0.96924   0.09948   0.14679   0.00000  Uiso   1.00
H231   H     0.92009   0.10415   0.17409   0.00000  Uiso   1.00
H232   H     0.92558   0.12529   0.11801   0.00000  Uiso   1.00
H233   H     0.92487   0.19185   0.16965   0.00000  Uiso   1.00
H234   H     0.97061   0.18951   0.13961   0.00000  Uiso   1.00
H235   H     0.74691   0.10011   0.32626   0.00000  Uiso   1.00
H236   H     0.74131   0.11801   0.38223   0.00000  Uiso   1.00
H237   H     0.83584   0.04608   0.46851   0.00000  Uiso   1.00
H238   H     0.69777   0.09355   0.35358   0.00000  Uiso   1.00
H239   H     0.74169   0.18751   0.33023   0.00000  Uiso   1.00
H240   H     0.69600   0.18314   0.36033   0.00000  Uiso   1.00
H241   H     0.83443   0.28749   0.03150   0.00000  Uiso   1.00
H242   H     0.83482   0.04973   0.04748   0.00000  Uiso   1.00
H243   H     0.83365   0.28380   0.45253   0.00000  Uiso   1.00
H244   H     0.78435   0.04505   0.20357   0.00000  Uiso   1.00
H245   H     0.88241   0.28847   0.29627   0.00000  Uiso   1.00
H246   H     0.88280   0.04214   0.29576   0.00000  Uiso   1.00
N247   N     0.83333   0.28402   0.25000   0.00000  Uiso   1.00
N248   N     0.83333   0.04931   0.25000   0.00000  Uiso   1.00
O249   O     0.77321   0.20625   0.25000   0.00000  Uiso   1.00
O250   O     0.80538   0.28611   0.10775   0.00000  Uiso   1.00
O251   O     0.89345   0.12709   0.25001   0.00000  Uiso   1.00
O252   O     0.89345   0.20625   0.25001   0.00000  Uiso   1.00
O253   O     0.77321   0.12709   0.25000   0.00000  Uiso   1.00
O254   O     0.83332   0.20627   0.18513   0.00000  Uiso   1.00
O255   O     0.83334   0.12707   0.31487   0.00000  Uiso   1.00
O256   O     0.83334   0.20627   0.31487   0.00000  Uiso   1.00
O257   O     0.83332   0.12707   0.18513   0.00000  Uiso   1.00
O258   O     0.80854   0.04691   0.39084   0.00000  Uiso   1.00
C259   C     0.08752   0.49997   0.24984   0.00000  Uiso   1.00
C260   C     0.04286   0.49972   0.24992   0.00000  Uiso   1.00
C261   C     0.13945   0.35899   0.22424   0.00000  Uiso   1.00
C262   C     0.19393   0.64108   0.27567   0.00000  Uiso   1.00
C263   C     0.19404   0.35737   0.27555   0.00000  Uiso   1.00
C264   C     0.13950   0.64268   0.22420   0.00000  Uiso   1.00
C265   C     0.16688   0.50090   0.16420   0.00000  Uiso   1.00
C266   C     0.16710   0.49913   0.33580   0.00000  Uiso   1.00
C267   C     0.16678   0.53999   0.40585   0.00000  Uiso   1.00
C268   C     0.16705   0.46019   0.09415   0.00000  Uiso   1.00
C269   C     0.16749   0.49720   0.38440   0.00000  Uiso   1.00
C270   C     0.24581   0.49996   0.25018   0.00000  Uiso   1.00
C271   C     0.16714   0.50295   0.11562   0.00000  Uiso   1.00
C272   C     0.16779   0.45421   0.40958   0.00000  Uiso   1.00
C273   C     0.16669   0.54602   0.09049   0.00000  Uiso   1.00
C274   C     0.16694   0.45535   0.45607   0.00000  Uiso   1.00
C275   C     0.16617   0.54486   0.04397   0.00000  Uiso   1.00
C276   C     0.16625   0.49919   0.47684   0.00000  Uiso   1.00
C277   C     0.16615   0.50101   0.02318   0.00000  Uiso   1.00
C278   C     0.16638   0.54131   0.45145   0.00000  Uiso   1.00
C279   C     0.16672   0.45888   0.04856   0.00000  Uiso   1.00
C280   C     0.16783   0.41380   0.48252   0.00000  Uiso   1.00
C281   C     0.16746   0.41565   0.02812   0.00000  Uiso   1.00
C282   C     0.16675   0.58641   0.01751   0.00000  Uiso   1.00
C283   C     0.17033   0.40835   0.38790   0.00000  Uiso   1.00
C284   C     0.16753   0.59199   0.11225   0.00000  Uiso   1.00
C285   C     0.04576   0.49749   0.16597   0.00000  Uiso   1.00
C286   C     0.05774   0.54635   0.14839   0.00000  Uiso   1.00
C287   C     0.28758   0.49251   0.33409   0.00000  Uiso   1.00
C288   C     0.27564   0.54032   0.35156   0.00000  Uiso   1.00
C289   C     0.28668   0.50388   0.16607   0.00000  Uiso   1.00
C290   C     0.27478   0.45519   0.15044   0.00000  Uiso   1.00
C291   C     0.04666   0.49917   0.33394   0.00000  Uiso   1.00
C292   C     0.16657   0.58455   0.47189   0.00000  Uiso   1.00
C293   C     0.05879   0.44965   0.34981   0.00000  Uiso   1.00
C294   C     0.02159   0.49967   0.20911   0.00000  Uiso   1.00
C295   C     0.31174   0.49729   0.29092   0.00000  Uiso   1.00
C296   C     0.31132   0.50103   0.20919   0.00000  Uiso   1.00
C297   C     0.02201   0.49869   0.29083   0.00000  Uiso   1.00
C298   C     0.29048   0.49971   0.25011   0.00000  Uiso   1.00
Cu299  Cu    0.16667   0.54689   0.25000   0.00000  Uiso   1.00
Cu300  Cu    0.16667   0.45311   0.25000   0.00000  Uiso   1.00
H301   H     0.16672   0.57289   0.38695   0.00000  Uiso   1.00
H302   H     0.11780   0.62468   0.20351   0.00000  Uiso   1.00
H303   H     0.19744   0.39992   0.36876   0.00000  Uiso   1.00
H304   H     0.19360   0.60113   0.13292   0.00000  Uiso   1.00
H305   H     0.03007   0.56914   0.14428   0.00000  Uiso   1.00
H306   H     0.07963   0.56308   0.17121   0.00000  Uiso   1.00
H307   H     0.07307   0.54346   0.11590   0.00000  Uiso   1.00
H308   H     0.07417   0.47594   0.17025   0.00000  Uiso   1.00
H309   H     0.02816   0.47916   0.14030   0.00000  Uiso   1.00
H310   H     0.26036   0.53549   0.38408   0.00000  Uiso   1.00
H311   H     0.30331   0.56286   0.35555   0.00000  Uiso   1.00
H312   H     0.16742   0.42727   0.11302   0.00000  Uiso   1.00
H313   H     0.25373   0.55842   0.32872   0.00000  Uiso   1.00
H314   H     0.25916   0.47122   0.32987   0.00000  Uiso   1.00
H315   H     0.30520   0.47260   0.35978   0.00000  Uiso   1.00
H316   H     0.30258   0.43281   0.14679   0.00000  Uiso   1.00
H317   H     0.25343   0.43748   0.17409   0.00000  Uiso   1.00
H318   H     0.25891   0.45863   0.11801   0.00000  Uiso   1.00
H319   H     0.25821   0.52518   0.16965   0.00000  Uiso   1.00
H320   H     0.30394   0.52284   0.13961   0.00000  Uiso   1.00
H321   H     0.08024   0.43344   0.32626   0.00000  Uiso   1.00
H322   H     0.07464   0.45134   0.38223   0.00000  Uiso   1.00
H323   H     0.16918   0.37941   0.46851   0.00000  Uiso   1.00
H324   H     0.03110   0.42689   0.35358   0.00000  Uiso   1.00
H325   H     0.07503   0.52085   0.33023   0.00000  Uiso   1.00
H326   H     0.02933   0.51647   0.36033   0.00000  Uiso   1.00
H327   H     0.16776   0.62082   0.03150   0.00000  Uiso   1.00
H328   H     0.16816   0.38307   0.04748   0.00000  Uiso   1.00
H329   H     0.16699   0.61714   0.45253   0.00000  Uiso   1.00
H330   H     0.11768   0.37839   0.20357   0.00000  Uiso   1.00
H331   H     0.21574   0.62180   0.29627   0.00000  Uiso   1.00
H332   H     0.21614   0.37547   0.29576   0.00000  Uiso   1.00
N333   N     0.16667   0.61736   0.25000   0.00000  Uiso   1.00
N334   N     0.16667   0.38264   0.25000   0.00000  Uiso   1.00
O335   O     0.10655   0.53958   0.25000   0.00000  Uiso   1.00
O336   O     0.13871   0.61945   0.10775   0.00000  Uiso   1.00
O337   O     0.22679   0.46042   0.25001   0.00000  Uiso   1.00
O338   O     0.22679   0.53958   0.25001   0.00000  Uiso   1.00
O339   O     0.10655   0.46042   0.25000   0.00000  Uiso   1.00
O340   O     0.16666   0.53960   0.18513   0.00000  Uiso   1.00
O341   O     0.16668   0.46040   0.31487   0.00000  Uiso   1.00
O342   O     0.16668   0.53960   0.31487   0.00000  Uiso   1.00
O343   O     0.16666   0.46040   0.18513   0.00000  Uiso   1.00
O344   O     0.14188   0.38025   0.39084   0.00000  Uiso   1.00
C345   C     0.42085   0.49997   0.24984   0.00000  Uiso   1.00
C346   C     0.37619   0.49972   0.24992   0.00000  Uiso   1.00
C347   C     0.47278   0.35899   0.22424   0.00000  Uiso   1.00
C348   C     0.52727   0.64108   0.27567   0.00000  Uiso   1.00
C349   C     0.52738   0.35737   0.27555   0.00000  Uiso   1.00
C350   C     0.47283   0.64268   0.22420   0.00000  Uiso   1.00
C351   C     0.50021   0.50090   0.16420   0.00000  Uiso   1.00
C352   C     0.50043   0.49913   0.33580   0.00000  Uiso   1.00
C353   C     0.50012   0.53999   0.40585   0.00000  Uiso   1.00
C354   C     0.50038   0.46019   0.09415   0.00000  Uiso   1.00
C355   C     0.50082   0.49720   0.38440   0.00000  Uiso   1.00
C356   C     0.57915   0.49996   0.25018   0.00000  Uiso   1.00
C357   C     0.50047   0.50295   0.11562   0.00000  Uiso   1.00
C358   C     0.50113   0.45421   0.40958   0.00000  Uiso   1.00
C359   C     0.50003   0.54602   0.09049   0.00000  Uiso   1.00
C360   C     0.50028   0.45535   0.45607   0.00000  Uiso   1.00
C361   C     0.49950   0.54486   0.04397   0.00000  Uiso   1.00
C362   C     0.49958   0.49919   0.47684   0.00000  Uiso   1.00
C363   C     0.49948   0.50101   0.02318   0.00000  Uiso   1.00
C364   C     0.49971   0.54131   0.45145   0.00000  Uiso   1.00
C365   C     0.50006   0.45888   0.04856   0.00000  Uiso   1.00
C366   C     0.50116   0.41380   0.48252   0.00000  Uiso   1.00
C367   C     0.50080   0.41565   0.02812   0.00000  Uiso   1.00
C368   C     0.50008   0.58641   0.01751   0.00000  Uiso   1.00
C369   C     0.50366   0.40835   0.38790   0.00000  Uiso   1.00
C370   C     0.50086   0.59199   0.11225   0.00000  Uiso   1.00
C371   C     0.37910   0.49749   0.16597   0.00000  Uiso   1.00
C372   C     0.39108   0.54635   0.14839   0.00000  Uiso   1.00
C373   C     0.62091   0.49251   0.33409   0.00000  Uiso   1.00
C374   C     0.60897   0.54032   0.35156   0.00000  Uiso   1.00
C375   C     0.62001   0.50388   0.16607   0.00000  Uiso   1.00
C376   C     0.60811   0.45519   0.15044   0.00000  Uiso   1.00
C377   C     0.37999   0.49917   0.33394   0.00000  Uiso   1.00
C378   C     0.49990   0.58455   0.47189   0.00000  Uiso   1.00
C379   C     0.39213   0.44965   0.34981   0.00000  Uiso   1.00
C380   C     0.35493   0.49967   0.20911   0.00000  Uiso   1.00
C381   C     0.64507   0.49729   0.29092   0.00000  Uiso   1.00
C382   C     0.64465   0.50103   0.20919   0.00000  Uiso   1.00
C383   C     0.35535   0.49869   0.29083   0.00000  Uiso   1.00
C384   C     0.62381   0.49971   0.25011   0.00000  Uiso   1.00
Cu385  Cu    0.50000   0.54689   0.25000   0.00000  Uiso   1.00
Cu386  Cu    0.50000   0.45311   0.25000   0.00000  Uiso   1.00
H387   H     0.50005   0.57289   0.38695   0.00000  Uiso   1.00
H388   H     0.45113   0.62468   0.20351   0.00000  Uiso   1.00
H389   H     0.53078   0.39992   0.36876   0.00000  Uiso   1.00
H390   H     0.52693   0.60113   0.13292   0.00000  Uiso   1.00
H391   H     0.36341   0.56914   0.14428   0.00000  Uiso   1.00
H392   H     0.41297   0.56308   0.17121   0.00000  Uiso   1.00
H393   H     0.40640   0.54346   0.11590   0.00000  Uiso   1.00
H394   H     0.40751   0.47594   0.17025   0.00000  Uiso   1.00
H395   H     0.36150   0.47916   0.14030   0.00000  Uiso   1.00
H396   H     0.59369   0.53549   0.38408   0.00000  Uiso   1.00
H397   H     0.63664   0.56286   0.35555   0.00000  Uiso   1.00
H398   H     0.50075   0.42727   0.11302   0.00000  Uiso   1.00
H399   H     0.58706   0.55842   0.32872   0.00000  Uiso   1.00
H400   H     0.59249   0.47122   0.32987   0.00000  Uiso   1.00
H401   H     0.63853   0.47260   0.35978   0.00000  Uiso   1.00
H402   H     0.63591   0.43281   0.14679   0.00000  Uiso   1.00
H403   H     0.58676   0.43748   0.17409   0.00000  Uiso   1.00
H404   H     0.59225   0.45863   0.11801   0.00000  Uiso   1.00
H405   H     0.59154   0.52518   0.16965   0.00000  Uiso   1.00
H406   H     0.63727   0.52284   0.13961   0.00000  Uiso   1.00
H407   H     0.41358   0.43344   0.32626   0.00000  Uiso   1.00
H408   H     0.40797   0.45134   0.38223   0.00000  Uiso   1.00
H409   H     0.50251   0.37941   0.46851   0.00000  Uiso   1.00
H410   H     0.36444   0.42689   0.35358   0.00000  Uiso   1.00
H411   H     0.40836   0.52085   0.33023   0.00000  Uiso   1.00
H412   H     0.36266   0.51647   0.36033   0.00000  Uiso   1.00
H413   H     0.50110   0.62082   0.03150   0.00000  Uiso   1.00
H414   H     0.50149   0.38307   0.04748   0.00000  Uiso   1.00
H415   H     0.50032   0.61714   0.45253   0.00000  Uiso   1.00
H416   H     0.45102   0.37839   0.20357   0.00000  Uiso   1.00
H417   H     0.54907   0.62180   0.29627   0.00000  Uiso   1.00
H418   H     0.54947   0.37547   0.29576   0.00000  Uiso   1.00
N419   N     0.50000   0.61736   0.25000   0.00000  Uiso   1.00
N420   N     0.50000   0.38264   0.25000   0.00000  Uiso   1.00
O421   O     0.43988   0.53958   0.25000   0.00000  Uiso   1.00
O422   O     0.47204   0.61945   0.10775   0.00000  Uiso   1.00
O423   O     0.56012   0.46042   0.25001   0.00000  Uiso   1.00
O424   O     0.56012   0.53958   0.25001   0.00000  Uiso   1.00
O425   O     0.43988   0.46042   0.25000   0.00000  Uiso   1.00
O426   O     0.49999   0.53960   0.18513   0.00000  Uiso   1.00
O427   O     0.50001   0.46040   0.31487   0.00000  Uiso   1.00
O428   O     0.50001   0.53960   0.31487   0.00000  Uiso   1.00
O429   O     0.49999   0.46040   0.18513   0.00000  Uiso   1.00
O430   O     0.47521   0.38025   0.39084   0.00000  Uiso   1.00
C431   C     0.75419   0.49997   0.24984   0.00000  Uiso   1.00
C432   C     0.70952   0.49972   0.24992   0.00000  Uiso   1.00
C433   C     0.80612   0.35899   0.22424   0.00000  Uiso   1.00
C434   C     0.86060   0.64108   0.27567   0.00000  Uiso   1.00
C435   C     0.86071   0.35737   0.27555   0.00000  Uiso   1.00
C436   C     0.80617   0.64268   0.22420   0.00000  Uiso   1.00
C437   C     0.83355   0.50090   0.16420   0.00000  Uiso   1.00
C438   C     0.83376   0.49913   0.33580   0.00000  Uiso   1.00
C439   C     0.83345   0.53999   0.40585   0.00000  Uiso   1.00
C440   C     0.83371   0.46019   0.09415   0.00000  Uiso   1.00
C441   C     0.83416   0.49720   0.38440   0.00000  Uiso   1.00
C442   C     0.91248   0.49996   0.25018   0.00000  Uiso   1.00
C443   C     0.83380   0.50295   0.11562   0.00000  Uiso   1.00
C444   C     0.83446   0.45421   0.40958   0.00000  Uiso   1.00
C445   C     0.83336   0.54602   0.09049   0.00000  Uiso   1.00
C446   C     0.83361   0.45535   0.45607   0.00000  Uiso   1.00
C447   C     0.83283   0.54486   0.04397   0.00000  Uiso   1.00
C448   C     0.83291   0.49919   0.47684   0.00000  Uiso   1.00
C449   C     0.83282   0.50101   0.02318   0.00000  Uiso   1.00
C450   C     0.83305   0.54131   0.45145   0.00000  Uiso   1.00
C451   C     0.83339   0.45888   0.04856   0.00000  Uiso   1.00
C452   C     0.83450   0.41380   0.48252   0.00000  Uiso   1.00
C453   C     0.83413   0.41565   0.02812   0.00000  Uiso   1.00
C454   C     0.83341   0.58641   0.01751   0.00000  Uiso   1.00
C455   C     0.83699   0.40835   0.38790   0.00000  Uiso   1.00
C456   C     0.83419   0.59199   0.11225   0.00000  Uiso   1.00
C457   C     0.71243   0.49749   0.16597   0.00000  Uiso   1.00
C458   C     0.72441   0.54635   0.14839   0.00000  Uiso   1.00
C459   C     0.95425   0.49251   0.33409   0.00000  Uiso   1.00
C460   C     0.94231   0.54032   0.35156   0.00000  Uiso   1.00
C461   C     0.95334   0.50388   0.16607   0.00000  Uiso   1.00
C462   C     0.94144   0.45519   0.15044   0.00000  Uiso   1.00
C463   C     0.71333   0.49917   0.33394   0.00000  Uiso   1.00
C464   C     0.83324   0.58455   0.47189   0.00000  Uiso   1.00
C465   C     0.72546   0.44965   0.34981   0.00000  Uiso   1.00
C466   C     0.68826   0.49967   0.20911   0.00000  Uiso   1.00
C467   C     0.97841   0.49729   0.29092   0.00000  Uiso   1.00
C468   C     0.97799   0.50103   0.20919   0.00000  Uiso   1.00
C469   C     0.68868   0.49869   0.29083   0.00000  Uiso   1.00
C470   C     0.95714   0.49971   0.25011   0.00000  Uiso   1.00
Cu471  Cu    0.83333   0.54689   0.25000   0.00000  Uiso   1.00
Cu472  Cu    0.83333   0.45311   0.25000   0.00000  Uiso   1.00
H473   H     0.83339   0.57289   0.38695   0.00000  Uiso   1.00
H474   H     0.78446   0.62468   0.20351   0.00000  Uiso   1.00
H475   H     0.86411   0.39992   0.36876   0.00000  Uiso   1.00
H476   H     0.86027   0.60113   0.13292   0.00000  Uiso   1.00
H477   H     0.69674   0.56914   0.14428   0.00000  Uiso   1.00
H478   H     0.74630   0.56308   0.17121   0.00000  Uiso   1.00
H479   H     0.73974   0.54346   0.11590   0.00000  Uiso   1.00
H480   H     0.74084   0.47594   0.17025   0.00000  Uiso   1.00
H481   H     0.69483   0.47916   0.14030   0.00000  Uiso   1.00
H482   H     0.92702   0.53549   0.38408   0.00000  Uiso   1.00
H483   H     0.96998   0.56286   0.35555   0.00000  Uiso   1.00
H484   H     0.83409   0.42727   0.11302   0.00000  Uiso   1.00
H485   H     0.92039   0.55842   0.32872   0.00000  Uiso   1.00
H486   H     0.92582   0.47122   0.32987   0.00000  Uiso   1.00
H487   H     0.97186   0.47260   0.35978   0.00000  Uiso   1.00
H488   H     0.96924   0.43281   0.14679   0.00000  Uiso   1.00
H489   H     0.92009   0.43748   0.17409   0.00000  Uiso   1.00
H490   H     0.92558   0.45863   0.11801   0.00000  Uiso   1.00
H491   H     0.92487   0.52518   0.16965   0.00000  Uiso   1.00
H492   H     0.97061   0.52284   0.13961   0.00000  Uiso   1.00
H493   H     0.74691   0.43344   0.32626   0.00000  Uiso   1.00
H494   H     0.74131   0.45134   0.38223   0.00000  Uiso   1.00
H495   H     0.83584   0.37941   0.46851   0.00000  Uiso   1.00
H496   H     0.69777   0.42689   0.35358   0.00000  Uiso   1.00
H497   H     0.74169   0.52085   0.33023   0.00000  Uiso   1.00
H498   H     0.69600   0.51647   0.36033   0.00000  Uiso   1.00
H499   H     0.83443   0.62082   0.03150   0.00000  Uiso   1.00
H500   H     0.83482   0.38307   0.04748   0.00000  Uiso   1.00
H501   H     0.83365   0.61714   0.45253   0.00000  Uiso   1.00
H502   H     0.78435   0.37839   0.20357   0.00000  Uiso   1.00
H503   H     0.88241   0.62180   0.29627   0.00000  Uiso   1.00
H504   H     0.88280   0.37547   0.29576   0.00000  Uiso   1.00
N505   N     0.83333   0.61736   0.25000   0.00000  Uiso   1.00
N506   N     0.83333   0.38264   0.25000   0.00000  Uiso   1.00
O507   O     0.77321   0.53958   0.25000   0.00000  Uiso   1.00
O508   O     0.80538   0.61945   0.10775   0.00000  Uiso   1.00
O509   O     0.89345   0.46042   0.25001   0.00000  Uiso   1.00
O510   O     0.89345   0.53958   0.25001   0.00000  Uiso   1.00
O511   O     0.77321   0.46042   0.25000   0.00000  Uiso   1.00
O512   O     0.83332   0.53960   0.18513   0.00000  Uiso   1.00
O513   O     0.83334   0.46040   0.31487   0.00000  Uiso   1.00
O514   O     0.83334   0.53960   0.31487   0.00000  Uiso   1.00
O515   O     0.83332   0.46040   0.18513   0.00000  Uiso   1.00
O516   O     0.80854   0.38025   0.39084   0.00000  Uiso   1.00
C517   C     0.08752   0.83330   0.24984   0.00000  Uiso   1.00
C518   C     0.04286   0.83305   0.24992   0.00000  Uiso   1.00
C519   C     0.13945   0.69232   0.22424   0.00000  Uiso   1.00
C520   C     0.19393   0.97441   0.27567   0.00000  Uiso   1.00
C521   C     0.19404   0.69070   0.27555   0.00000  Uiso   1.00
C522   C     0.13950   0.97602   0.22420   0.00000  Uiso   1.00
C523   C     0.16688   0.83423   0.16420   0.00000  Uiso   1.00
C524   C     0.16710   0.83247   0.33580   0.00000  Uiso   1.00
C525   C     0.16678   0.87332   0.40585   0.00000  Uiso   1.00
C526   C     0.16705   0.79352   0.09415   0.00000  Uiso   1.00
C527   C     0.16749   0.83053   0.38440   0.00000  Uiso   1.00
C528   C     0.24581   0.83329   0.25018   0.00000  Uiso   1.00
C529   C     0.16714   0.83629   0.11562   0.00000  Uiso   1.00
C530   C     0.16779   0.78754   0.40958   0.00000  Uiso   1.00
C531   C     0.16669   0.87935   0.09049   0.00000  Uiso   1.00
C532   C     0.16694   0.78869   0.45607   0.00000  Uiso   1.00
C533   C     0.16617   0.87819   0.04397   0.00000  Uiso   1.00
C534   C     0.16625   0.83253   0.47684   0.00000  Uiso   1.00
C535   C     0.16615   0.83434   0.02318   0.00000  Uiso   1.00
C536   C     0.16638   0.87464   0.45145   0.00000  Uiso   1.00
C537   C     0.16672   0.79222   0.04856   0.00000  Uiso   1.00
C538   C     0.16783   0.74713   0.48252   0.00000  Uiso   1.00
C539   C     0.16746   0.74899   0.02812   0.00000  Uiso   1.00
C540   C     0.16675   0.91974   0.01751   0.00000  Uiso   1.00
C541   C     0.17033   0.74168   0.38790   0.00000  Uiso   1.00
C542   C     0.16753   0.92532   0.11225   0.00000  Uiso   1.00
C543   C     0.04576   0.83083   0.16597   0.00000  Uiso   1.00
C544   C     0.05774   0.87968   0.14839   0.00000  Uiso   1.00
C545   C     0.28758   0.82584   0.33409   0.00000  Uiso   1.00
C546   C     0.27564   0.87365   0.35156   0.00000  Uiso   1.00
C547   C     0.28668   0.83721   0.16607   0.00000  Uiso   1.00
C548   C     0.27478   0.78852   0.15044   0.00000  Uiso   1.00
C549   C     0.04666   0.83250   0.33394   0.00000  Uiso   1.00
C550   C     0.16657   0.91788   0.47189   0.00000  Uiso   1.00
C551   C     0.05879   0.78298   0.34981   0.00000  Uiso   1.00
C552   C     0.02159   0.83301   0.20911   0.00000  Uiso   1.00
C553   C     0.31174   0.83063   0.29092   0.00000  Uiso   1.00
C554   C     0.31132   0.83436   0.20919   0.00000  Uiso   1.00
C555   C     0.02201   0.83202   0.29083   0.00000  Uiso   1.00
C556   C     0.29048   0.83304   0.25011   0.00000  Uiso   1.00
Cu557  Cu    0.16667   0.88022   0.25000   0.00000  Uiso   1.00
Cu558  Cu    0.16667   0.78645   0.25000   0.00000  Uiso   1.00
H559   H     0.16672   0.90623   0.38695   0.00000  Uiso   1.00
H560   H     0.11780   0.95801   0.20351   0.00000  Uiso   1.00
H561   H     0.19744   0.73326   0.36876   0.00000  Uiso   1.00
H562   H     0.19360   0.93447   0.13292   0.00000  Uiso   1.00
H563   H     0.03007   0.90247   0.14428   0.00000  Uiso   1.00
H564   H     0.07963   0.89641   0.17121   0.00000  Uiso   1.00
H565   H     0.07307   0.87679   0.11590   0.00000  Uiso   1.00
H566   H     0.07417   0.80927   0.17025   0.00000  Uiso   1.00
H567   H     0.02816   0.81250   0.14030   0.00000  Uiso   1.00
H568   H     0.26036   0.86882   0.38408   0.00000  Uiso   1.00
H569   H     0.30331   0.89620   0.35555   0.00000  Uiso   1.00
H570   H     0.16742   0.76060   0.11302   0.00000  Uiso   1.00
H571   H     0.25373   0.89175   0.32872   0.00000  Uiso   1.00
H572   H     0.25916   0.80456   0.32987   0.00000  Uiso   1.00
H573   H     0.30520   0.80593   0.35978   0.00000  Uiso   1.00
H574   H     0.30258   0.76615   0.14679   0.00000  Uiso   1.00
H575   H     0.25343   0.77081   0.17409   0.00000  Uiso   1.00
H576   H     0.25891   0.79196   0.11801   0.00000  Uiso   1.00
H577   H     0.25821   0.85852   0.16965   0.00000  Uiso   1.00
H578   H     0.30394   0.85618   0.13961   0.00000  Uiso   1.00
H579   H     0.08024   0.76677   0.32626   0.00000  Uiso   1.00
H580   H     0.07464   0.78468   0.38223   0.00000  Uiso   1.00
H581   H     0.16918   0.71274   0.46851   0.00000  Uiso   1.00
H582   H     0.03110   0.76022   0.35358   0.00000  Uiso   1.00
H583   H     0.07503   0.85418   0.33023   0.00000  Uiso   1.00
H584   H     0.02933   0.84981   0.36033   0.00000  Uiso   1.00
H585   H     0.16776   0.95415   0.03150   0.00000  Uiso   1.00
H586   H     0.16816   0.71640   0.04748   0.00000  Uiso   1.00
H587   H     0.16699   0.95047   0.45253   0.00000  Uiso   1.00
H588   H     0.11768   0.71172   0.20357   0.00000  Uiso   1.00
H589   H     0.21574   0.95513   0.29627   0.00000  Uiso   1.00
H590   H     0.21614   0.70880   0.29576   0.00000  Uiso   1.00
N591   N     0.16667   0.95069   0.25000   0.00000  Uiso   1.00
N592   N     0.16667   0.71598   0.25000   0.00000  Uiso   1.00
O593   O     0.10655   0.87291   0.25000   0.00000  Uiso   1.00
O594   O     0.13871   0.95278   0.10775   0.00000  Uiso   1.00
O595   O     0.22679   0.79375   0.25001   0.00000  Uiso   1.00
O596   O     0.22679   0.87291   0.25001   0.00000  Uiso   1.00
O597   O     0.10655   0.79375   0.25000   0.00000  Uiso   1.00
O598   O     0.16666   0.87293   0.18513   0.00000  Uiso   1.00
O599   O     0.16668   0.79373   0.31487   0.00000  Uiso   1.00
O600   O     0.16668   0.87293   0.31487   0.00000  Uiso   1.00
O601   O     0.16666   0.79373   0.18513   0.00000  Uiso   1.00
O602   O     0.14188   0.71358   0.39084   0.00000  Uiso   1.00
C603   C     0.42085   0.83330   0.24984   0.00000  Uiso   1.00
C604   C     0.37619   0.83305   0.24992   0.00000  Uiso   1.00
C605   C     0.47278   0.69232   0.22424   0.00000  Uiso   1.00
C606   C     0.52727   0.97441   0.27567   0.00000  Uiso   1.00
C607   C     0.52738   0.69070   0.27555   0.00000  Uiso   1.00
C608   C     0.47283   0.97602   0.22420   0.00000  Uiso   1.00
C609   C     0.50021   0.83423   0.16420   0.00000  Uiso   1.00
C610   C     0.50043   0.83247   0.33580   0.00000  Uiso   1.00
C611   C     0.50012   0.87332   0.40585   0.00000  Uiso   1.00
C612   C     0.50038   0.79352   0.09415   0.00000  Uiso   1.00
C613   C     0.50082   0.83053   0.38440   0.00000  Uiso   1.00
C614   C     0.57915   0.83329   0.25018   0.00000  Uiso   1.00
C615   C     0.50047   0.83629   0.11562   0.00000  Uiso   1.00
C616   C     0.50113   0.78754   0.40958   0.00000  Uiso   1.00
C617   C     0.50003   0.87935   0.09049   0.00000  Uiso   1.00
C618   C     0.50028   0.78869   0.45607   0.00000  Uiso   1.00
C619   C     0.49950   0.87819   0.04397   0.00000  Uiso   1.00
C620   C     0.49958   0.83253   0.47684   0.00000  Uiso   1.00
C621   C     0.49948   0.83434   0.02318   0.00000  Uiso   1.00
C622   C     0.49971   0.87464   0.45145   0.00000  Uiso   1.00
C623   C     0.50006   0.79222   0.04856   0.00000  Uiso   1.00
C624   C     0.50116   0.74713   0.48252   0.00000  Uiso   1.00
C625   C     0.50080   0.74899   0.02812   0.00000  Uiso   1.00
C626   C     0.50008   0.91974   0.01751   0.00000  Uiso   1.00
C627   C     0.50366   0.74168   0.38790   0.00000  Uiso   1.00
C628   C     0.50086   0.92532   0.11225   0.00000  Uiso   1.00
C629   C     0.37910   0.83083   0.16597   0.00000  Uiso   1.00
C630   C     0.39108   0.87968   0.14839   0.00000  Uiso   1.00
C631   C     0.62091   0.82584   0.33409   0.00000  Uiso   1.00
C632   C     0.60897   0.87365   0.35156   0.00000  Uiso   1.00
C633   C     0.62001   0.83721   0.16607   0.00000  Uiso   1.00
C634   C     0.60811   0.78852   0.15044   0.00000  Uiso   1.00
C635   C     0.37999   0.83250   0.33394   0.00000  Uiso   1.00
C636   C     0.49990   0.91788   0.47189   0.00000  Uiso   1.00
C637   C     0.39213   0.78298   0.34981   0.00000  Uiso   1.00
C638   C     0.35493   0.83301   0.20911   0.00000  Uiso   1.00
C639   C     0.64507   0.83063   0.29092   0.00000  Uiso   1.00
C640   C     0.64465   0.83436   0.20919   0.00000  Uiso   1.00
C641   C     0.35535   0.83202   0.29083   0.00000  Uiso   1.00
C642   C     0.62381   0.83304   0.25011   0.00000  Uiso   1.00
Cu643  Cu    0.50000   0.88022   0.25000   0.00000  Uiso   1.00
Cu644  Cu    0.50000   0.78645   0.25000   0.00000  Uiso   1.00
H645   H     0.50005   0.90623   0.38695   0.00000  Uiso   1.00
H646   H     0.45113   0.95801   0.20351   0.00000  Uiso   1.00
H647   H     0.53078   0.73326   0.36876   0.00000  Uiso   1.00
H648   H     0.52693   0.93447   0.13292   0.00000  Uiso   1.00
H649   H     0.36341   0.90247   0.14428   0.00000  Uiso   1.00
H650   H     0.41297   0.89641   0.17121   0.00000  Uiso   1.00
H651   H     0.40640   0.87679   0.11590   0.00000  Uiso   1.00
H652   H     0.40751   0.80927   0.17025   0.00000  Uiso   1.00
H653   H     0.36150   0.81250   0.14030   0.00000  Uiso   1.00
H654   H     0.59369   0.86882   0.38408   0.00000  Uiso   1.00
H655   H     0.63664   0.89620   0.35555   0.00000  Uiso   1.00
H656   H     0.50075   0.76060   0.11302   0.00000  Uiso   1.00
H657   H     0.58706   0.89175   0.32872   0.00000  Uiso   1.00
H658   H     0.59249   0.80456   0.32987   0.00000  Uiso   1.00
H659   H     0.63853   0.80593   0.35978   0.00000  Uiso   1.00
H660   H     0.63591   0.76615   0.14679   0.00000  Uiso   1.00
H661   H     0.58676   0.77081   0.17409   0.00000  Uiso   1.00
H662   H     0.59225   0.79196   0.11801   0.00000  Uiso   1.00
H663   H     0.59154   0.85852   0.16965   0.00000  Uiso   1.00
H664   H     0.63727   0.85618   0.13961   0.00000  Uiso   1.00
H665   H     0.41358   0.76677   0.32626   0.00000  Uiso   1.00
H666   H     0.40797   0.78468   0.38223   0.00000  Uiso   1.00
H667   H     0.50251   0.71274   0.46851   0.00000  Uiso   1.00
H668   H     0.36444   0.76022   0.35358   0.00000  Uiso   1.00
H669   H     0.40836   0.85418   0.33023   0.00000  Uiso   1.00
H670   H     0.36266   0.84981   0.36033   0.00000  Uiso   1.00
H671   H     0.50110   0.95415   0.03150   0.00000  Uiso   1.00
H672   H     0.50149   0.71640   0.04748   0.00000  Uiso   1.00
H673   H     0.50032   0.95047   0.45253   0.00000  Uiso   1.00
H674   H     0.45102   0.71172   0.20357   0.00000  Uiso   1.00
H675   H     0.54907   0.95513   0.29627   0.00000  Uiso   1.00
H676   H     0.54947   0.70880   0.29576   0.00000  Uiso   1.00
N677   N     0.50000   0.95069   0.25000   0.00000  Uiso   1.00
N678   N     0.50000   0.71598   0.25000   0.00000  Uiso   1.00
O679   O     0.43988   0.87291   0.25000   0.00000  Uiso   1.00
O680   O     0.47204   0.95278   0.10775   0.00000  Uiso   1.00
O681   O     0.56012   0.79375   0.25001   0.00000  Uiso   1.00
O682   O     0.56012   0.87291   0.25001   0.00000  Uiso   1.00
O683   O     0.43988   0.79375   0.25000   0.00000  Uiso   1.00
O684   O     0.49999   0.87293   0.18513   0.00000  Uiso   1.00
O685   O     0.50001   0.79373   0.31487   0.00000  Uiso   1.00
O686   O     0.50001   0.87293   0.31487   0.00000  Uiso   1.00
O687   O     0.49999   0.79373   0.18513   0.00000  Uiso   1.00
O688   O     0.47521   0.71358   0.39084   0.00000  Uiso   1.00
C689   C     0.75419   0.83330   0.24984   0.00000  Uiso   1.00
C690   C     0.70952   0.83305   0.24992   0.00000  Uiso   1.00
C691   C     0.80612   0.69232   0.22424   0.00000  Uiso   1.00
C692   C     0.86060   0.97441   0.27567   0.00000  Uiso   1.00
C693   C     0.86071   0.69070   0.27555   0.00000  Uiso   1.00
C694   C     0.80617   0.97602   0.22420   0.00000  Uiso   1.00
C695   C     0.83355   0.83423   0.16420   0.00000  Uiso   1.00
C696   C     0.83376   0.83247   0.33580   0.00000  Uiso   1.00
C697   C     0.83345   0.87332   0.40585   0.00000  Uiso   1.00
C698   C     0.83371   0.79352   0.09415   0.00000  Uiso   1.00
C699   C     0.83416   0.83053   0.38440   0.00000  Uiso   1.00
C700   C     0.91248   0.83329   0.25018   0.00000  Uiso   1.00
C701   C     0.83380   0.83629   0.11562   0.00000  Uiso   1.00
C702   C     0.83446   0.78754   0.40958   0.00000  Uiso   1.00
C703   C     0.83336   0.87935   0.09049   0.00000  Uiso   1.00
C704   C     0.83361   0.78869   0.45607   0.00000  Uiso   1.00
C705   C     0.83283   0.87819   0.04397   0.00000  Uiso   1.00
C706   C     0.83291   0.83253   0.47684   0.00000  Uiso   1.00
C707   C     0.83282   0.83434   0.02318   0.00000  Uiso   1.00
C708   C     0.83305   0.87464   0.45145   0.00000  Uiso   1.00
C709   C     0.83339   0.79222   0.04856   0.00000  Uiso   1.00
C710   C     0.83450   0.74713   0.48252   0.00000  Uiso   1.00
C711   C     0.83413   0.74899   0.02812   0.00000  Uiso   1.00
C712   C     0.83341   0.91974   0.01751   0.00000  Uiso   1.00
C713   C     0.83699   0.74168   0.38790   0.00000  Uiso   1.00
C714   C     0.83419   0.92532   0.11225   0.00000  Uiso   1.00
C715   C     0.71243   0.83083   0.16597   0.00000  Uiso   1.00
C716   C     0.72441   0.87968   0.14839   0.00000  Uiso   1.00
C717   C     0.95425   0.82584   0.33409   0.00000  Uiso   1.00
C718   C     0.94231   0.87365   0.35156   0.00000  Uiso   1.00
C719   C     0.95334   0.83721   0.16607   0.00000  Uiso   1.00
C720   C     0.94144   0.78852   0.15044   0.00000  Uiso   1.00
C721   C     0.71333   0.83250   0.33394   0.00000  Uiso   1.00
C722   C     0.83324   0.91788   0.47189   0.00000  Uiso   1.00
C723   C     0.72546   0.78298   0.34981   0.00000  Uiso   1.00
C724   C     0.68826   0.83301   0.20911   0.00000  Uiso   1.00
C725   C     0.97841   0.83063   0.29092   0.00000  Uiso   1.00
C726   C     0.97799   0.83436   0.20919   0.00000  Uiso   1.00
C727   C     0.68868   0.83202   0.29083   0.00000  Uiso   1.00
C728   C     0.95714   0.83304   0.25011   0.00000  Uiso   1.00
Cu729  Cu    0.83333   0.88022   0.25000   0.00000  Uiso   1.00
Cu730  Cu    0.83333   0.78645   0.25000   0.00000  Uiso   1.00
H731   H     0.83339   0.90623   0.38695   0.00000  Uiso   1.00
H732   H     0.78446   0.95801   0.20351   0.00000  Uiso   1.00
H733   H     0.86411   0.73326   0.36876   0.00000  Uiso   1.00
H734   H     0.86027   0.93447   0.13292   0.00000  Uiso   1.00
H735   H     0.69674   0.90247   0.14428   0.00000  Uiso   1.00
H736   H     0.74630   0.89641   0.17121   0.00000  Uiso   1.00
H737   H     0.73974   0.87679   0.11590   0.00000  Uiso   1.00
H738   H     0.74084   0.80927   0.17025   0.00000  Uiso   1.00
H739   H     0.69483   0.81250   0.14030   0.00000  Uiso   1.00
H740   H     0.92702   0.86882   0.38408   0.00000  Uiso   1.00
H741   H     0.96998   0.89620   0.35555   0.00000  Uiso   1.00
H742   H     0.83409   0.76060   0.11302   0.00000  Uiso   1.00
H743   H     0.92039   0.89175   0.32872   0.00000  Uiso   1.00
H744   H     0.92582   0.80456   0.32987   0.00000  Uiso   1.00
H745   H     0.97186   0.80593   0.35978   0.00000  Uiso   1.00
H746   H     0.96924   0.76615   0.14679   0.00000  Uiso   1.00
H747   H     0.92009   0.77081   0.17409   0.00000  Uiso   1.00
H748   H     0.92558   0.79196   0.11801   0.00000  Uiso   1.00
H749   H     0.92487   0.85852   0.16965   0.00000  Uiso   1.00
H750   H     0.97061   0.85618   0.13961   0.00000  Uiso   1.00
H751   H     0.74691   0.76677   0.32626   0.00000  Uiso   1.00
H752   H     0.74131   0.78468   0.38223   0.00000  Uiso   1.00
H753   H     0.83584   0.71274   0.46851   0.00000  Uiso   1.00
H754   H     0.69777   0.76022   0.35358   0.00000  Uiso   1.00
H755   H     0.74169   0.85418   0.33023   0.00000  Uiso   1.00
H756   H     0.69600   0.84981   0.36033   0.00000  Uiso   1.00
H757   H     0.83443   0.95415   0.03150   0.00000  Uiso   1.00
H758   H     0.83482   0.71640   0.04748   0.00000  Uiso   1.00
H759   H     0.83365   0.95047   0.45253   0.00000  Uiso   1.00
H760   H     0.78435   0.71172   0.20357   0.00000  Uiso   1.00
H761   H     0.88241   0.95513   0.29627   0.00000  Uiso   1.00
H762   H     0.88280   0.70880   0.29576   0.00000  Uiso   1.00
N763   N     0.83333   0.95069   0.25000   0.00000  Uiso   1.00
N764   N     0.83333   0.71598   0.25000   0.00000  Uiso   1.00
O765   O     0.77321   0.87291   0.25000   0.00000  Uiso   1.00
O766   O     0.80538   0.95278   0.10775   0.00000  Uiso   1.00
O767   O     0.89345   0.79375   0.25001   0.00000  Uiso   1.00
O768   O     0.89345   0.87291   0.25001   0.00000  Uiso   1.00
O769   O     0.77321   0.79375   0.25000   0.00000  Uiso   1.00
O770   O     0.83332   0.87293   0.18513   0.00000  Uiso   1.00
O771   O     0.83334   0.79373   0.31487   0.00000  Uiso   1.00
O772   O     0.83334   0.87293   0.31487   0.00000  Uiso   1.00
O773   O     0.83332   0.79373   0.18513   0.00000  Uiso   1.00
O774   O     0.80854   0.71358   0.39084   0.00000  Uiso   1.00
C775   C     0.08752   0.16663   0.74984   0.00000  Uiso   1.00
C776   C     0.04286   0.16639   0.74992   0.00000  Uiso   1.00
C777   C     0.13945   0.02565   0.72424   0.00000  Uiso   1.00
C778   C     0.19393   0.30774   0.77567   0.00000  Uiso   1.00
C779   C     0.19404   0.02404   0.77555   0.00000  Uiso   1.00
C780   C     0.13950   0.30935   0.72420   0.00000  Uiso   1.00
C781   C     0.16688   0.16756   0.66420   0.00000  Uiso   1.00
C782   C     0.16710   0.16580   0.83580   0.00000  Uiso   1.00
C783   C     0.16678   0.20665   0.90585   0.00000  Uiso   1.00
C784   C     0.16705   0.12685   0.59415   0.00000  Uiso   1.00
C785   C     0.16749   0.16387   0.88440   0.00000  Uiso   1.00
C786   C     0.24581   0.16662   0.75018   0.00000  Uiso   1.00
C787   C     0.16714   0.16962   0.61562   0.00000  Uiso   1.00
C788   C     0.16779   0.12087   0.90958   0.00000  Uiso   1.00
C789   C     0.16669   0.21268   0.59049   0.00000  Uiso   1.00
C790   C     0.16694   0.12202   0.95607   0.00000  Uiso   1.00
C791   C     0.16617   0.21152   0.54397   0.00000  Uiso   1.00
C792   C     0.16625   0.16586   0.97684   0.00000  Uiso   1.00
C793   C     0.16615   0.16767   0.52318   0.00000  Uiso   1.00
C794   C     0.16638   0.20798   0.95145   0.00000  Uiso   1.00
C795   C     0.16672   0.12555   0.54856   0.00000  Uiso   1.00
C796   C     0.16783   0.08047   0.98252   0.00000  Uiso   1.00
C797   C     0.16746   0.08232   0.52812   0.00000  Uiso   1.00
C798   C     0.16675   0.25307   0.51751   0.00000  Uiso   1.00
C799   C     0.17033   0.07501   0.88790   0.00000  Uiso   1.00
C800   C     0.16753   0.25866   0.61225   0.00000  Uiso   1.00
C801   C     0.04576   0.16416   0.66597   0.00000  Uiso   1.00
C802   C     0.05774   0.21302   0.64839   0.00000  Uiso   1.00
C803   C     0.28758   0.15918   0.83409   0.00000  Uiso   1.00
C804   C     0.27564   0.20698   0.85156   0.00000  Uiso   1.00
C805   C     0.28668   0.17055   0.66607   0.00000  Uiso   1.00
C806   C     0.27478   0.12186   0.65044   0.00000  Uiso   1.00
C807   C     0.04666   0.16583   0.83394   0.00000  Uiso   1.00
C808   C     0.16657   0.25121   0.97189   0.00000  Uiso   1.00
C809   C     0.05879   0.11631   0.84981   0.00000  Uiso   1.00
C810   C     0.02159   0.16634   0.70911   0.00000  Uiso   1.00
C811   C     0.31174   0.16396   0.79092   0.00000  Uiso   1.00
C812   C     0.31132   0.16770   0.70919   0.00000  Uiso   1.00
C813   C     0.02201   0.16536   0.79083   0.00000  Uiso   1.00
C814   C     0.29048   0.16637   0.75011   0.00000  Uiso   1.00
Cu815  Cu    0.16667   0.21355   0.75000   0.00000  Uiso   1.00
Cu816  Cu    0.16667   0.11978   0.75000   0.00000  Uiso   1.00
H817   H     0.16672   0.23956   0.88695   0.00000  Uiso   1.00
H818   H     0.11780   0.29134   0.70351   0.00000  Uiso   1.00
H819   H     0.19744   0.06659   0.86876   0.00000  Uiso   1.00
H820   H     0.19360   0.26780   0.63292   0.00000  Uiso   1.00
H821   H     0.03007   0.23580   0.64428   0.00000  Uiso   1.00
H822   H     0.07963   0.22975   0.67121   0.00000  Uiso   1.00
H823   H     0.07307   0.21013   0.61590   0.00000  Uiso   1.00
H824   H     0.07417   0.14260   0.67025   0.00000  Uiso   1.00
H825   H     0.02816   0.14583   0.64030   0.00000  Uiso   1.00
H826   H     0.26036   0.20215   0.88408   0.00000  Uiso   1.00
H827   H     0.30331   0.22953   0.85555   0.00000  Uiso   1.00
H828   H     0.16742   0.09394   0.61302   0.00000  Uiso   1.00
H829   H     0.25373   0.22509   0.82872   0.00000  Uiso   1.00
H830   H     0.25916   0.13789   0.82987   0.00000  Uiso   1.00
H831   H     0.30520   0.13926   0.85978   0.00000  Uiso   1.00
H832   H     0.30258   0.09948   0.64679   0.00000  Uiso   1.00
H833   H     0.25343   0.10415   0.67409   0.00000  Uiso   1.00
H834   H     0.25891   0.12529   0.61801   0.00000  Uiso   1.00
H835   H     0.25821   0.19185   0.66965   0.00000  Uiso   1.00
H836   H     0.30394   0.18951   0.63961   0.00000  Uiso   1.00
H837   H     0.08024   0.10011   0.82626   0.00000  Uiso   1.00
H838   H     0.07464   0.11801   0.88223   0.00000  Uiso   1.00
H839   H     0.16918   0.04608   0.96851   0.00000  Uiso   1.00
H840   H     0.03110   0.09355   0.85358   0.00000  Uiso   1.00
H841   H     0.07503   0.18751   0.83023   0.00000  Uiso   1.00
H842   H     0.02933   0.18314   0.86033   0.00000  Uiso   1.00
H843   H     0.16776   0.28749   0.53150   0.00000  Uiso   1.00
H844   H     0.16816   0.04973   0.54748   0.00000  Uiso   1.00
H845   H     0.16699   0.28380   0.95253   0.00000  Uiso   1.00
H846   H     0.11768   0.04505   0.70357   0.00000  Uiso   1.00
H847   H     0.21574   0.28847   0.79627   0.00000  Uiso   1.00
H848   H     0.21614   0.04214   0.79576   0.00000  Uiso   1.00
N849   N     0.16667   0.28402   0.75000   0.00000  Uiso   1.00
N850   N     0.16667   0.04931   0.75000   0.00000  Uiso   1.00
O851   O     0.10655   0.20625   0.75000   0.00000  Uiso   1.00
O852   O     0.13871   0.28611   0.60775   0.00000  Uiso   1.00
O853   O     0.22679   0.12709   0.75001   0.00000  Uiso   1.00
O854   O     0.22679   0.20625   0.75001   0.00000  Uiso   1.00
O855   O     0.10655   0.12709   0.75000   0.00000  Uiso   1.00
O856   O     0.16666   0.20627   0.68513   0.00000  Uiso   1.00
O857   O     0.16668   0.12707   0.81487   0.00000  Uiso   1.00
O858   O     0.16668   0.20627   0.81487   0.00000  Uiso   1.00
O859   O     0.16666   0.12707   0.68513   0.00000  Uiso   1.00
O860   O     0.14188   0.04691   0.89084   0.00000  Uiso   1.00
C861   C     0.42085   0.16663   0.74984   0.00000  Uiso   1.00
C862   C     0.37619   0.16639   0.74992   0.00000  Uiso   1.00
C863   C     0.47278   0.02565   0.72424   0.00000  Uiso   1.00
C864   C     0.52727   0.30774   0.77567   0.00000  Uiso   1.00
C865   C     0.52738   0.02404   0.77555   0.00000  Uiso   1.00
C866   C     0.47283   0.30935   0.72420   0.00000  Uiso   1.00
C867   C     0.50021   0.16756   0.66420   0.00000  Uiso   1.00
C868   C     0.50043   0.16580   0.83580   0.00000  Uiso   1.00
C869   C     0.50012   0.20665   0.90585   0.00000  Uiso   1.00
C870   C     0.50038   0.12685   0.59415   0.00000  Uiso   1.00
C871   C     0.50082   0.16387   0.88440   0.00000  Uiso   1.00
C872   C     0.57915   0.16662   0.75018   0.00000  Uiso   1.00
C873   C     0.50047   0.16962   0.61562   0.00000  Uiso   1.00
C874   C     0.50113   0.12087   0.90958   0.00000  Uiso   1.00
C875   C     0.50003   0.21268   0.59049   0.00000  Uiso   1.00
C876   C     0.50028   0.12202   0.95607   0.00000  Uiso   1.00
C877   C     0.49950   0.21152   0.54397   0.00000  Uiso   1.00
C878   C     0.49958   0.16586   0.97684   0.00000  Uiso   1.00
C879   C     0.49948   0.16767   0.52318   0.00000  Uiso   1.00
C880   C     0.49971   0.20798   0.95145   0.00000  Uiso   1.00
C881   C     0.50006   0.12555   0.54856   0.00000  Uiso   1.00
C882   C     0.50116   0.08047   0.98252   0.00000  Uiso   1.00
C883   C     0.50080   0.08232   0.52812   0.00000  Uiso   1.00
C884   C     0.50008   0.25307   0.51751   0.00000  Uiso   1.00
C885   C     0.50366   0.07501   0.88790   0.00000  Uiso   1.00
C886   C     0.50086   0.25866   0.61225   0.00000  Uiso   1.00
C887   C     0.37910   0.16416   0.66597   0.00000  Uiso   1.00
C888   C     0.39108   0.21302   0.64839   0.00000  Uiso   1.00
C889   C     0.62091   0.15918   0.83409   0.00000  Uiso   1.00
C890   C     0.60897   0.20698   0.85156   0.00000  Uiso   1.00
C891   C     0.62001   0.17055   0.66607   0.00000  Uiso   1.00
C892   C     0.60811   0.12186   0.65044   0.00000  Uiso   1.00
C893   C     0.37999   0.16583   0.83394   0.00000  Uiso   1.00
C894   C     0.49990   0.25121   0.97189   0.00000  Uiso   1.00
C895   C     0.39213   0.11631   0.84981   0.00000  Uiso   1.00
C896   C     0.35493   0.16634   0.70911   0.00000  Uiso   1.00
C897   C     0.64507   0.16396   0.79092   0.00000  Uiso   1.00
C898   C     0.64465   0.16770   0.70919   0.00000  Uiso   1.00
C899   C     0.35535   0.16536   0.79083   0.00000  Uiso   1.00
C900   C     0.62381   0.16637   0.75011   0.00000  Uiso   1.00
Cu901  Cu    0.50000   0.21355   0.75000   0.00000  Uiso   1.00
Cu902  Cu    0.50000   0.11978   0.75000   0.00000  Uiso   1.00
H903   H     0.50005   0.23956   0.88695   0.00000  Uiso   1.00
H904   H     0.45113   0.29134   0.70351   0.00000  Uiso   1.00
H905   H     0.53078   0.06659   0.86876   0.00000  Uiso   1.00
H906   H     0.52693   0.26780   0.63292   0.00000  Uiso   1.00
H907   H     0.36341   0.23580   0.64428   0.00000  Uiso   1.00
H908   H     0.41297   0.22975   0.67121   0.00000  Uiso   1.00
H909   H     0.40640   0.21013   0.61590   0.00000  Uiso   1.00
H910   H     0.40751   0.14260   0.67025   0.00000  Uiso   1.00
H911   H     0.36150   0.14583   0.64030   0.00000  Uiso   1.00
H912   H     0.59369   0.20215   0.88408   0.00000  Uiso   1.00
H913   H     0.63664   0.22953   0.85555   0.00000  Uiso   1.00
H914   H     0.50075   0.09394   0.61302   0.00000  Uiso   1.00
H915   H     0.58706   0.22509   0.82872   0.00000  Uiso   1.00
H916   H     0.59249   0.13789   0.82987   0.00000  Uiso   1.00
H917   H     0.63853   0.13926   0.85978   0.00000  Uiso   1.00
H918   H     0.63591   0.09948   0.64679   0.00000  Uiso   1.00
H919   H     0.58676   0.10415   0.67409   0.00000  Uiso   1.00
H920   H     0.59225   0.12529   0.61801   0.00000  Uiso   1.00
H921   H     0.59154   0.19185   0.66965   0.00000  Uiso   1.00
H922   H     0.63727   0.18951   0.63961   0.00000  Uiso   1.00
H923   H     0.41358   0.10011   0.82626   0.00000  Uiso   1.00
H924   H     0.40797   0.11801   0.88223   0.00000  Uiso   1.00
H925   H     0.50251   0.04608   0.96851   0.00000  Uiso   1.00
H926   H     0.36444   0.09355   0.85358   0.00000  Uiso   1.00
H927   H     0.40836   0.18751   0.83023   0.00000  Uiso   1.00
H928   H     0.36266   0.18314   0.86033   0.00000  Uiso   1.00
H929   H     0.50110   0.28749   0.53150   0.00000  Uiso   1.00
H930   H     0.50149   0.04973   0.54748   0.00000  Uiso   1.00
H931   H     0.50032   0.28380   0.95253   0.00000  Uiso   1.00
H932   H     0.45102   0.04505   0.70357   0.00000  Uiso   1.00
H933   H     0.54907   0.28847   0.79627   0.00000  Uiso   1.00
H934   H     0.54947   0.04214   0.79576   0.00000  Uiso   1.00
N935   N     0.50000   0.28402   0.75000   0.00000  Uiso   1.00
N936   N     0.50000   0.04931   0.75000   0.00000  Uiso   1.00
O937   O     0.43988   0.20625   0.75000   0.00000  Uiso   1.00
O938   O     0.47204   0.28611   0.60775   0.00000  Uiso   1.00
O939   O     0.56012   0.12709   0.75001   0.00000  Uiso   1.00
O940   O     0.56012   0.20625   0.75001   0.00000  Uiso   1.00
O941   O     0.43988   0.12709   0.75000   0.00000  Uiso   1.00
O942   O     0.49999   0.20627   0.68513   0.00000  Uiso   1.00
O943   O     0.50001   0.12707   0.81487   0.00000  Uiso   1.00
O944   O     0.50001   0.20627   0.81487   0.00000  Uiso   1.00
O945   O     0.49999   0.12707   0.68513   0.00000  Uiso   1.00
O946   O     0.47521   0.04691   0.89084   0.00000  Uiso   1.00
C947   C     0.75419   0.16663   0.74984   0.00000  Uiso   1.00
C948   C     0.70952   0.16639   0.74992   0.00000  Uiso   1.00
C949   C     0.80612   0.02565   0.72424   0.00000  Uiso   1.00
C950   C     0.86060   0.30774   0.77567   0.00000  Uiso   1.00
C951   C     0.86071   0.02404   0.77555   0.00000  Uiso   1.00
C952   C     0.80617   0.30935   0.72420   0.00000  Uiso   1.00
C953   C     0.83355   0.16756   0.66420   0.00000  Uiso   1.00
C954   C     0.83376   0.16580   0.83580   0.00000  Uiso   1.00
C955   C     0.83345   0.20665   0.90585   0.00000  Uiso   1.00
C956   C     0.83371   0.12685   0.59415   0.00000  Uiso   1.00
C957   C     0.83416   0.16387   0.88440   0.00000  Uiso   1.00
C958   C     0.91248   0.16662   0.75018   0.00000  Uiso   1.00
C959   C     0.83380   0.16962   0.61562   0.00000  Uiso   1.00
C960   C     0.83446   0.12087   0.90958   0.00000  Uiso   1.00
C961   C     0.83336   0.21268   0.59049   0.00000  Uiso   1.00
C962   C     0.83361   0.12202   0.95607   0.00000  Uiso   1.00
C963   C     0.83283   0.21152   0.54397   0.00000  Uiso   1.00
C964   C     0.83291   0.16586   0.97684   0.00000  Uiso   1.00
C965   C     0.83282   0.16767   0.52318   0.00000  Uiso   1.00
C966   C     0.83305   0.20798   0.95145   0.00000  Uiso   1.00
C967   C     0.83339   0.12555   0.54856   0.00000  Uiso   1.00
C968   C     0.83450   0.08047   0.98252   0.00000  Uiso   1.00
C969   C     0.83413   0.08232   0.52812   0.00000  Uiso   1.00
C970   C     0.83341   0.25307   0.51751   0.00000  Uiso   1.00
C971   C     0.83699   0.07501   0.88790   0.00000  Uiso   1.00
C972   C     0.83419   0.25866   0.61225   0.00000  Uiso   1.00
C973   C     0.71243   0.16416   0.66597   0.00000  Uiso   1.00
C974   C     0.72441   0.21302   0.64839   0.00000  Uiso   1.00
C975   C     0.95425   0.15918   0.83409   0.00000  Uiso   1.00
C976   C     0.94231   0.20698   0.85156   0.00000  Uiso   1.00
C977   C     0.95334   0.17055   0.66607   0.00000  Uiso   1.00
C978   C     0.94144   0.12186   0.65044   0.00000  Uiso   1.00
C979   C     0.71333   0.16583   0.83394   0.00000  Uiso   1.00
C980   C     0.83324   0.25121   0.97189   0.00000  Uiso   1.00
C981   C     0.72546   0.11631   0.84981   0.00000  Uiso   1.00
C982   C     0.68826   0.16634   0.70911   0.00000  Uiso   1.00
C983   C     0.97841   0.16396   0.79092   0.00000  Uiso   1.00
C984   C     0.97799   0.16770   0.70919   0.00000  Uiso   1.00
C985   C     0.68868   0.16536   0.79083   0.00000  Uiso   1.00
C986   C     0.95714   0.16637   0.75011   0.00000  Uiso   1.00
Cu987  Cu    0.83333   0.21355   0.75000   0.00000  Uiso   1.00
Cu988  Cu    0.83333   0.11978   0.75000   0.00000  Uiso   1.00
H989   H     0.83339   0.23956   0.88695   0.00000  Uiso   1.00
H990   H     0.78446   0.29134   0.70351   0.00000  Uiso   1.00
H991   H     0.86411   0.06659   0.86876   0.00000  Uiso   1.00
H992   H     0.86027   0.26780   0.63292   0.00000  Uiso   1.00
H993   H     0.69674   0.23580   0.64428   0.00000  Uiso   1.00
H994   H     0.74630   0.22975   0.67121   0.00000  Uiso   1.00
H995   H     0.73974   0.21013   0.61590   0.00000  Uiso   1.00
H996   H     0.74084   0.14260   0.67025   0.00000  Uiso   1.00
H997   H     0.69483   0.14583   0.64030   0.00000  Uiso   1.00
H998   H     0.92702   0.20215   0.88408   0.00000  Uiso   1.00
H999   H     0.96998   0.22953   0.85555   0.00000  Uiso   1.00
H1000  H     0.83409   0.09394   0.61302   0.00000  Uiso   1.00
H1001  H     0.92039   0.22509   0.82872   0.00000  Uiso   1.00
H1002  H     0.92582   0.13789   0.82987   0.00000  Uiso   1.00
H1003  H     0.97186   0.13926   0.85978   0.00000  Uiso   1.00
H1004  H     0.96924   0.09948   0.64679   0.00000  Uiso   1.00
H1005  H     0.92009   0.10415   0.67409   0.00000  Uiso   1.00
H1006  H     0.92558   0.12529   0.61801   0.00000  Uiso   1.00
H1007  H     0.92487   0.19185   0.66965   0.00000  Uiso   1.00
H1008  H     0.97061   0.18951   0.63961   0.00000  Uiso   1.00
H1009  H     0.74691   0.10011   0.82626   0.00000  Uiso   1.00
H1010  H     0.74131   0.11801   0.88223   0.00000  Uiso   1.00
H1011  H     0.83584   0.04608   0.96851   0.00000  Uiso   1.00
H1012  H     0.69777   0.09355   0.85358   0.00000  Uiso   1.00
H1013  H     0.74169   0.18751   0.83023   0.00000  Uiso   1.00
H1014  H     0.69600   0.18314   0.86033   0.00000  Uiso   1.00
H1015  H     0.83443   0.28749   0.53150   0.00000  Uiso   1.00
H1016  H     0.83482   0.04973   0.54748   0.00000  Uiso   1.00
H1017  H     0.83365   0.28380   0.95253   0.00000  Uiso   1.00
H1018  H     0.78435   0.04505   0.70357   0.00000  Uiso   1.00
H1019  H     0.88241   0.28847   0.79627   0.00000  Uiso   1.00
H1020  H     0.88280   0.04214   0.79576   0.00000  Uiso   1.00
N1021  N     0.83333   0.28402   0.75000   0.00000  Uiso   1.00
N1022  N     0.83333   0.04931   0.75000   0.00000  Uiso   1.00
O1023  O     0.77321   0.20625   0.75000   0.00000  Uiso   1.00
O1024  O     0.80538   0.28611   0.60775   0.00000  Uiso   1.00
O1025  O     0.89345   0.12709   0.75001   0.00000  Uiso   1.00
O1026  O     0.89345   0.20625   0.75001   0.00000  Uiso   1.00
O1027  O     0.77321   0.12709   0.75000   0.00000  Uiso   1.00
O1028  O     0.83332   0.20627   0.68513   0.00000  Uiso   1.00
O1029  O     0.83334   0.12707   0.81487   0.00000  Uiso   1.00
O1030  O     0.83334   0.20627   0.81487   0.00000  Uiso   1.00
O1031  O     0.83332   0.12707   0.68513   0.00000  Uiso   1.00
O1032  O     0.80854   0.04691   0.89084   0.00000  Uiso   1.00
C1033  C     0.08752   0.49997   0.74984   0.00000  Uiso   1.00
C1034  C     0.04286   0.49972   0.74992   0.00000  Uiso   1.00
C1035  C     0.13945   0.35899   0.72424   0.00000  Uiso   1.00
C1036  C     0.19393   0.64108   0.77567   0.00000  Uiso   1.00
C1037  C     0.19404   0.35737   0.77555   0.00000  Uiso   1.00
C1038  C     0.13950   0.64268   0.72420   0.00000  Uiso   1.00
C1039  C     0.16688   0.50090   0.66420   0.00000  Uiso   1.00
C1040  C     0.16710   0.49913   0.83580   0.00000  Uiso   1.00
C1041  C     0.16678   0.53999   0.90585   0.00000  Uiso   1.00
C1042  C     0.16705   0.46019   0.59415   0.00000  Uiso   1.00
C1043  C     0.16749   0.49720   0.88440   0.00000  Uiso   1.00
C1044  C     0.24581   0.49996   0.75018   0.00000  Uiso   1.00
C1045  C     0.16714   0.50295   0.61562   0.00000  Uiso   1.00
C1046  C     0.16779   0.45421   0.90958   0.00000  Uiso   1.00
C1047  C     0.16669   0.54602   0.59049   0.00000  Uiso   1.00
C1048  C     0.16694   0.45535   0.95607   0.00000  Uiso   1.00
C1049  C     0.16617   0.54486   0.54397   0.00000  Uiso   1.00
C1050  C     0.16625   0.49919   0.97684   0.00000  Uiso   1.00
C1051  C     0.16615   0.50101   0.52318   0.00000  Uiso   1.00
C1052  C     0.16638   0.54131   0.95145   0.00000  Uiso   1.00
C1053  C     0.16672   0.45888   0.54856   0.00000  Uiso   1.00
C1054  C     0.16783   0.41380   0.98252   0.00000  Uiso   1.00
C1055  C     0.16746   0.41565   0.52812   0.00000  Uiso   1.00
C1056  C     0.16675   0.58641   0.51751   0.00000  Uiso   1.00
C1057  C     0.17033   0.40835   0.88790   0.00000  Uiso   1.00
C1058  C     0.16753   0.59199   0.61225   0.00000  Uiso   1.00
C1059  C     0.04576   0.49749   0.66597   0.00000  Uiso   1.00
C1060  C     0.05774   0.54635   0.64839   0.00000  Uiso   1.00
C1061  C     0.28758   0.49251   0.83409   0.00000  Uiso   1.00
C1062  C     0.27564   0.54032   0.85156   0.00000  Uiso   1.00
C1063  C     0.28668   0.50388   0.66607   0.00000  Uiso   1.00
C1064  C     0.27478   0.45519   0.65044   0.00000  Uiso   1.00
C1065  C     0.04666   0.49917   0.83394   0.00000  Uiso   1.00
C1066  C     0.16657   0.58455   0.97189   0.00000  Uiso   1.00
C1067  C     0.05879   0.44965   0.84981   0.00000  Uiso   1.00
C1068  C     0.02159   0.49967   0.70911   0.00000  Uiso   1.00
C1069  C     0.31174   0.49729   0.79092   0.00000  Uiso   1.00
C1070  C     0.31132   0.50103   0.70919   0.00000  Uiso   1.00
C1071  C     0.02201   0.49869   0.79083   0.00000  Uiso   1.00
C1072  C     0.29048   0.49971   0.75011   0.00000  Uiso   1.00
Cu1073 Cu    0.16667   0.54689   0.75000   0.00000  Uiso   1.00
Cu1074 Cu    0.16667   0.45311   0.75000   0.00000  Uiso   1.00
H1075  H     0.16672   0.57289   0.88695   0.00000  Uiso   1.00
H1076  H     0.11780   0.62468   0.70351   0.00000  Uiso   1.00
H1077  H     0.19744   0.39992   0.86876   0.00000  Uiso   1.00
H1078  H     0.19360   0.60113   0.63292   0.00000  Uiso   1.00
H1079  H     0.03007   0.56914   0.64428   0.00000  Uiso   1.00
H1080  H     0.07963   0.56308   0.67121   0.00000  Uiso   1.00
H1081  H     0.07307   0.54346   0.61590   0.00000  Uiso   1.00
H1082  H     0.07417   0.47594   0.67025   0.00000  Uiso   1.00
H1083  H     0.02816   0.47916   0.64030   0.00000  Uiso   1.00
H1084  H     0.26036   0.53549   0.88408   0.00000  Uiso   1.00
H1085  H     0.30331   0.56286   0.85555   0.00000  Uiso   1.00
H1086  H     0.16742   0.42727   0.61302   0.00000  Uiso   1.00
H1087  H     0.25373   0.55842   0.82872   0.00000  Uiso   1.00
H1088  H     0.25916   0.47122   0.82987   0.00000  Uiso   1.00
H1089  H     0.30520   0.47260   0.85978   0.00000  Uiso   1.00
H1090  H     0.30258   0.43281   0.64679   0.00000  Uiso   1.00
H1091  H     0.25343   0.43748   0.67409   0.00000  Uiso   1.00
H1092  H     0.25891   0.45863   0.61801   0.00000  Uiso   1.00
H1093  H     0.25821   0.52518   0.66965   0.00000  Uiso   1.00
H1094  H     0.30394   0.52284   0.63961   0.00000  Uiso   1.00
H1095  H     0.08024   0.43344   0.82626   0.00000  Uiso   1.00
H1096  H     0.07464   0.45134   0.88223   0.00000  Uiso   1.00
H1097  H     0.16918   0.37941   0.96851   0.00000  Uiso   1.00
H1098  H     0.03110   0.42689   0.85358   0.00000  Uiso   1.00
H1099  H     0.07503   0.52085   0.83023   0.00000  Uiso   1.00
H1100  H     0.02933   0.51647   0.86033   0.00000  Uiso   1.00
H1101  H     0.16776   0.62082   0.53150   0.00000  Uiso   1.00
H1102  H     0.16816   0.38307   0.54748   0.00000  Uiso   1.00
H1103  H     0.16699   0.61714   0.95253   0.00000  Uiso   1.00
H1104  H     0.11768   0.37839   0.70357   0.00000  Uiso   1.00
H1105  H     0.21574   0.62180   0.79627   0.00000  Uiso   1.00
H1106  H     0.21614   0.37547   0.79576   0.00000  Uiso   1.00
N1107  N     0.16667   0.61736   0.75000   0.00000  Uiso   1.00
N1108  N     0.16667   0.38264   0.75000   0.00000  Uiso   1.00
O1109  O     0.10655   0.53958   0.75000   0.00000  Uiso   1.00
O1110  O     0.13871   0.61945   0.60775   0.00000  Uiso   1.00
O1111  O     0.22679   0.46042   0.75001   0.00000  Uiso   1.00
O1112  O     0.22679   0.53958   0.75001   0.00000  Uiso   1.00
O1113  O     0.10655   0.46042   0.75000   0.00000  Uiso   1.00
O1114  O     0.16666   0.53960   0.68513   0.00000  Uiso   1.00
O1115  O     0.16668   0.46040   0.81487   0.00000  Uiso   1.00
O1116  O     0.16668   0.53960   0.81487   0.00000  Uiso   1.00
O1117  O     0.16666   0.46040   0.68513   0.00000  Uiso   1.00
O1118  O     0.14188   0.38025   0.89084   0.00000  Uiso   1.00
C1119  C     0.42085   0.49997   0.74984   0.00000  Uiso   1.00
C1120  C     0.37619   0.49972   0.74992   0.00000  Uiso   1.00
C1121  C     0.47278   0.35899   0.72424   0.00000  Uiso   1.00
C1122  C     0.52727   0.64108   0.77567   0.00000  Uiso   1.00
C1123  C     0.52738   0.35737   0.77555   0.00000  Uiso   1.00
C1124  C     0.47283   0.64268   0.72420   0.00000  Uiso   1.00
C1125  C     0.50021   0.50090   0.66420   0.00000  Uiso   1.00
C1126  C     0.50043   0.49913   0.83580   0.00000  Uiso   1.00
C1127  C     0.50012   0.53999   0.90585   0.00000  Uiso   1.00
C1128  C     0.50038   0.46019   0.59415   0.00000  Uiso   1.00
C1129  C     0.50082   0.49720   0.88440   0.00000  Uiso   1.00
C1130  C     0.57915   0.49996   0.75018   0.00000  Uiso   1.00
C1131  C     0.50047   0.50295   0.61562   0.00000  Uiso   1.00
C1132  C     0.50113   0.45421   0.90958   0.00000  Uiso   1.00
C1133  C     0.50003   0.54602   0.59049   0.00000  Uiso   1.00
C1134  C     0.50028   0.45535   0.95607   0.00000  Uiso   1.00
C1135  C     0.49950   0.54486   0.54397   0.00000  Uiso   1.00
C1136  C     0.49958   0.49919   0.97684   0.00000  Uiso   1.00
C1137  C     0.49948   0.50101   0.52318   0.00000  Uiso   1.00
C1138  C     0.49971   0.54131   0.95145   0.00000  Uiso   1.00
C1139  C     0.50006   0.45888   0.54856   0.00000  Uiso   1.00
C1140  C     0.50116   0.41380   0.98252   0.00000  Uiso   1.00
C1141  C     0.50080   0.41565   0.52812   0.00000  Uiso   1.00
C1142  C     0.50008   0.58641   0.51751   0.00000  Uiso   1.00
C1143  C     0.50366   0.40835   0.88790   0.00000  Uiso   1.00
C1144  C     0.50086   0.59199   0.61225   0.00000  Uiso   1.00
C1145  C     0.37910   0.49749   0.66597   0.00000  Uiso   1.00
C1146  C     0.39108   0.54635   0.64839   0.00000  Uiso   1.00
C1147  C     0.62091   0.49251   0.83409   0.00000  Uiso   1.00
C1148  C     0.60897   0.54032   0.85156   0.00000  Uiso   1.00
C1149  C     0.62001   0.50388   0.66607   0.00000  Uiso   1.00
C1150  C     0.60811   0.45519   0.65044   0.00000  Uiso   1.00
C1151  C     0.37999   0.49917   0.83394   0.00000  Uiso   1.00
C1152  C     0.49990   0.58455   0.97189   0.00000  Uiso   1.00
C1153  C     0.39213   0.44965   0.84981   0.00000  Uiso   1.00
C1154  C     0.35493   0.49967   0.70911   0.00000  Uiso   1.00
C1155  C     0.64507   0.49729   0.79092   0.00000  Uiso   1.00
C1156  C     0.64465   0.50103   0.70919   0.00000  Uiso   1.00
C1157  C     0.35535   0.49869   0.79083   0.00000  Uiso   1.00
C1158  C     0.62381   0.49971   0.75011   0.00000  Uiso   1.00
Cu1159 Cu    0.50000   0.54689   0.75000   0.00000  Uiso   1.00
Cu1160 Cu    0.50000   0.45311   0.75000   0.00000  Uiso   1.00
H1161  H     0.50005   0.57289   0.88695   0.00000  Uiso   1.00
H1162  H     0.45113   0.62468   0.70351   0.00000  Uiso   1.00
H1163  H     0.53078   0.39992   0.86876   0.00000  Uiso   1.00
H1164  H     0.52693   0.60113   0.63292   0.00000  Uiso   1.00
H1165  H     0.36341   0.56914   0.64428   0.00000  Uiso   1.00
H1166  H     0.41297   0.56308   0.67121   0.00000  Uiso   1.00
H1167  H     0.40640   0.54346   0.61590   0.00000  Uiso   1.00
H1168  H     0.40751   0.47594   0.67025   0.00000  Uiso   1.00
H1169  H     0.36150   0.47916   0.64030   0.00000  Uiso   1.00
H1170  H     0.59369   0.53549   0.88408   0.00000  Uiso   1.00
H1171  H     0.63664   0.56286   0.85555   0.00000  Uiso   1.00
H1172  H     0.50075   0.42727   0.61302   0.00000  Uiso   1.00
H1173  H     0.58706   0.55842   0.82872   0.00000  Uiso   1.00
H1174  H     0.59249   0.47122   0.82987   0.00000  Uiso   1.00
H1175  H     0.63853   0.47260   0.85978   0.00000  Uiso   1.00
H1176  H     0.63591   0.43281   0.64679   0.00000  Uiso   1.00
H1177  H     0.58676   0.43748   0.67409   0.00000  Uiso   1.00
H1178  H     0.59225   0.45863   0.61801   0.00000  Uiso   1.00
H1179  H     0.59154   0.52518   0.66965   0.00000  Uiso   1.00
H1180  H     0.63727   0.52284   0.63961   0.00000  Uiso   1.00
H1181  H     0.41358   0.43344   0.82626   0.00000  Uiso   1.00
H1182  H     0.40797   0.45134   0.88223   0.00000  Uiso   1.00
H1183  H     0.50251   0.37941   0.96851   0.00000  Uiso   1.00
H1184  H     0.36444   0.42689   0.85358   0.00000  Uiso   1.00
H1185  H     0.40836   0.52085   0.83023   0.00000  Uiso   1.00
H1186  H     0.36266   0.51647   0.86033   0.00000  Uiso   1.00
H1187  H     0.50110   0.62082   0.53150   0.00000  Uiso   1.00
H1188  H     0.50149   0.38307   0.54748   0.00000  Uiso   1.00
H1189  H     0.50032   0.61714   0.95253   0.00000  Uiso   1.00
H1190  H     0.45102   0.37839   0.70357   0.00000  Uiso   1.00
H1191  H     0.54907   0.62180   0.79627   0.00000  Uiso   1.00
H1192  H     0.54947   0.37547   0.79576   0.00000  Uiso   1.00
N1193  N     0.50000   0.61736   0.75000   0.00000  Uiso   1.00
N1194  N     0.50000   0.38264   0.75000   0.00000  Uiso   1.00
O1195  O     0.43988   0.53958   0.75000   0.00000  Uiso   1.00
O1196  O     0.47204   0.61945   0.60775   0.00000  Uiso   1.00
O1197  O     0.56012   0.46042   0.75001   0.00000  Uiso   1.00
O1198  O     0.56012   0.53958   0.75001   0.00000  Uiso   1.00
O1199  O     0.43988   0.46042   0.75000   0.00000  Uiso   1.00
O1200  O     0.49999   0.53960   0.68513   0.00000  Uiso   1.00
O1201  O     0.50001   0.46040   0.81487   0.00000  Uiso   1.00
O1202  O     0.50001   0.53960   0.81487   0.00000  Uiso   1.00
O1203  O     0.49999   0.46040   0.68513   0.00000  Uiso   1.00
O1204  O     0.47521   0.38025   0.89084   0.00000  Uiso   1.00
C1205  C     0.75419   0.49997   0.74984   0.00000  Uiso   1.00
C1206  C     0.70952   0.49972   0.74992   0.00000  Uiso   1.00
C1207  C     0.80612   0.35899   0.72424   0.00000  Uiso   1.00
C1208  C     0.86060   0.64108   0.77567   0.00000  Uiso   1.00
C1209  C     0.86071   0.35737   0.77555   0.00000  Uiso   1.00
C1210  C     0.80617   0.64268   0.72420   0.00000  Uiso   1.00
C1211  C     0.83355   0.50090   0.66420   0.00000  Uiso   1.00
C1212  C     0.83376   0.49913   0.83580   0.00000  Uiso   1.00
C1213  C     0.83345   0.53999   0.90585   0.00000  Uiso   1.00
C1214  C     0.83371   0.46019   0.59415   0.00000  Uiso   1.00
C1215  C     0.83416   0.49720   0.88440   0.00000  Uiso   1.00
C1216  C     0.91248   0.49996   0.75018   0.00000  Uiso   1.00
C1217  C     0.83380   0.50295   0.61562   0.00000  Uiso   1.00
C1218  C     0.83446   0.45421   0.90958   0.00000  Uiso   1.00
C1219  C     0.83336   0.54602   0.59049   0.00000  Uiso   1.00
C1220  C     0.83361   0.45535   0.95607   0.00000  Uiso   1.00
C1221  C     0.83283   0.54486   0.54397   0.00000  Uiso   1.00
C1222  C     0.83291   0.49919   0.97684   0.00000  Uiso   1.00
C1223  C     0.83282   0.50101   0.52318   0.00000  Uiso   1.00
C1224  C     0.83305   0.54131   0.95145   0.00000  Uiso   1.00
C1225  C     0.83339   0.45888   0.54856   0.00000  Uiso   1.00
C1226  C     0.83450   0.41380   0.98252   0.00000  Uiso   1.00
C1227  C     0.83413   0.41565   0.52812   0.00000  Uiso   1.00
C1228  C     0.83341   0.58641   0.51751   0.00000  Uiso   1.00
C1229  C     0.83699   0.40835   0.88790   0.00000  Uiso   1.00
C1230  C     0.83419   0.59199   0.61225   0.00000  Uiso   1.00
C1231  C     0.71243   0.49749   0.66597   0.00000  Uiso   1.00
C1232  C     0.72441   0.54635   0.64839   0.00000  Uiso   1.00
C1233  C     0.95425   0.49251   0.83409   0.00000  Uiso   1.00
C1234  C     0.94231   0.54032   0.85156   0.00000  Uiso   1.00
C1235  C     0.95334   0.50388   0.66607   0.00000  Uiso   1.00
C1236  C     0.94144   0.45519   0.65044   0.00000  Uiso   1.00
C1237  C     0.71333   0.49917   0.83394   0.00000  Uiso   1.00
C1238  C     0.83324   0.58455   0.97189   0.00000  Uiso   1.00
C1239  C     0.72546   0.44965   0.84981   0.00000  Uiso   1.00
C1240  C     0.68826   0.49967   0.70911   0.00000  Uiso   1.00
C1241  C     0.97841   0.49729   0.79092   0.00000  Uiso   1.00
C1242  C     0.97799   0.50103   0.70919   0.00000  Uiso   1.00
C1243  C     0.68868   0.49869   0.79083   0.00000  Uiso   1.00
C1244  C     0.95714   0.49971   0.75011   0.00000  Uiso   1.00
Cu1245 Cu    0.83333   0.54689   0.75000   0.00000  Uiso   1.00
Cu1246 Cu    0.83333   0.45311   0.75000   0.00000  Uiso   1.00
H1247  H     0.83339   0.57289   0.88695   0.00000  Uiso   1.00
H1248  H     0.78446   0.62468   0.70351   0.00000  Uiso   1.00
H1249  H     0.86411   0.39992   0.86876   0.00000  Uiso   1.00
H1250  H     0.86027   0.60113   0.63292   0.00000  Uiso   1.00
H1251  H     0.69674   0.56914   0.64428   0.00000  Uiso   1.00
H1252  H     0.74630   0.56308   0.67121   0.00000  Uiso   1.00
H1253  H     0.73974   0.54346   0.61590   0.00000  Uiso   1.00
H1254  H     0.74084   0.47594   0.67025   0.00000  Uiso   1.00
H1255  H     0.69483   0.47916   0.64030   0.00000  Uiso   1.00
H1256  H     0.92702   0.53549   0.88408   0.00000  Uiso   1.00
H1257  H     0.96998   0.56286   0.85555   0.00000  Uiso   1.00
H1258  H     0.83409   0.42727   0.61302   0.00000  Uiso   1.00
H1259  H     0.92039   0.55842   0.82872   0.00000  Uiso   1.00
H1260  H     0.92582   0.47122   0.82987   0.00000  Uiso   1.00
H1261  H     0.97186   0.47260   0.85978   0.00000  Uiso   1.00
H1262  H     0.96924   0.43281   0.64679   0.00000  Uiso   1.00
H1263  H     0.92009   0.43748   0.67409   0.00000  Uiso   1.00
H1264  H     0.92558   0.45863   0.61801   0.00000  Uiso   1.00
H1265  H     0.92487   0.52518   0.66965   0.00000  Uiso   1.00
H1266  H     0.97061   0.52284   0.63961   0.00000  Uiso   1.00
H1267  H     0.74691   0.43344   0.82626   0.00000  Uiso   1.00
H1268  H     0.74131   0.45134   0.88223   0.00000  Uiso   1.00
H1269  H     0.83584   0.37941   0.96851   0.00000  Uiso   1.00
H1270  H     0.69777   0.42689   0.85358   0.00000  Uiso   1.00
H1271  H     0.74169   0.52085   0.83023   0.00000  Uiso   1.00
H1272  H     0.69600   0.51647   0.86033   0.00000  Uiso   1.00
H1273  H     0.83443   0.62082   0.53150   0.00000  Uiso   1.00
H1274  H     0.83482   0.38307   0.54748   0.00000  Uiso   1.00
H1275  H     0.83365   0.61714   0.95253   0.00000  Uiso   1.00
H1276  H     0.78435   0.37839   0.70357   0.00000  Uiso   1.00
H1277  H     0.88241   0.62180   0.79627   0.00000  Uiso   1.00
H1278  H     0.88280   0.37547   0.79576   0.00000  Uiso   1.00
N1279  N     0.83333   0.61736   0.75000   0.00000  Uiso   1.00
N1280  N     0.83333   0.38264   0.75000   0.00000  Uiso   1.00
O1281  O     0.77321   0.53958   0.75000   0.00000  Uiso   1.00
O1282  O     0.80538   0.61945   0.60775   0.00000  Uiso   1.00
O1283  O     0.89345   0.46042   0.75001   0.00000  Uiso   1.00
O1284  O     0.89345   0.53958   0.75001   0.00000  Uiso   1.00
O1285  O     0.77321   0.46042   0.75000   0.00000  Uiso   1.00
O1286  O     0.83332   0.53960   0.68513   0.00000  Uiso   1.00
O1287  O     0.83334   0.46040   0.81487   0.00000  Uiso   1.00
O1288  O     0.83334   0.53960   0.81487   0.00000  Uiso   1.00
O1289  O     0.83332   0.46040   0.68513   0.00000  Uiso   1.00
O1290  O     0.80854   0.38025   0.89084   0.00000  Uiso   1.00
C1291  C     0.08752   0.83330   0.74984   0.00000  Uiso   1.00
C1292  C     0.04286   0.83305   0.74992   0.00000  Uiso   1.00
C1293  C     0.13945   0.69232   0.72424   0.00000  Uiso   1.00
C1294  C     0.19393   0.97441   0.77567   0.00000  Uiso   1.00
C1295  C     0.19404   0.69070   0.77555   0.00000  Uiso   1.00
C1296  C     0.13950   0.97602   0.72420   0.00000  Uiso   1.00
C1297  C     0.16688   0.83423   0.66420   0.00000  Uiso   1.00
C1298  C     0.16710   0.83247   0.83580   0.00000  Uiso   1.00
C1299  C     0.16678   0.87332   0.90585   0.00000  Uiso   1.00
C1300  C     0.16705   0.79352   0.59415   0.00000  Uiso   1.00
C1301  C     0.16749   0.83053   0.88440   0.00000  Uiso   1.00
C1302  C     0.24581   0.83329   0.75018   0.00000  Uiso   1.00
C1303  C     0.16714   0.83629   0.61562   0.00000  Uiso   1.00
C1304  C     0.16779   0.78754   0.90958   0.00000  Uiso   1.00
C1305  C     0.16669   0.87935   0.59049   0.00000  Uiso   1.00
C1306  C     0.16694   0.78869   0.95607   0.00000  Uiso   1.00
C1307  C     0.16617   0.87819   0.54397   0.00000  Uiso   1.00
C1308  C     0.16625   0.83253   0.97684   0.00000  Uiso   1.00
C1309  C     0.16615   0.83434   0.52318   0.00000  Uiso   1.00
C1310  C     0.16638   0.87464   0.95145   0.00000  Uiso   1.00
C1311  C     0.16672   0.79222   0.54856   0.00000  Uiso   1.00
C1312  C     0.16783   0.74713   0.98252   0.00000  Uiso   1.00
C1313  C     0.16746   0.74899   0.52812   0.00000  Uiso   1.00
C1314  C     0.16675   0.91974   0.51751   0.00000  Uiso   1.00
C1315  C     0.17033   0.74168   0.88790   0.00000  Uiso   1.00
C1316  C     0.16753   0.92532   0.61225   0.00000  Uiso   1.00
C1317  C     0.04576   0.83083   0.66597   0.00000  Uiso   1.00
C1318  C     0.05774   0.87968   0.64839   0.00000  Uiso   1.00
C1319  C     0.28758   0.82584   0.83409   0.00000  Uiso   1.00
C1320  C     0.27564   0.87365   0.85156   0.00000  Uiso   1.00
C1321  C     0.28668   0.83721   0.66607   0.00000  Uiso   1.00
C1322  C     0.27478   0.78852   0.65044   0.00000  Uiso   1.00
C1323  C     0.04666   0.83250   0.83394   0.00000  Uiso   1.00
C1324  C     0.16657   0.91788   0.97189   0.00000  Uiso   1.00
C1325  C     0.05879   0.78298   0.84981   0.00000  Uiso   1.00
C1326  C     0.02159   0.83301   0.70911   0.00000  Uiso   1.00
C1327  C     0.31174   0.83063   0.79092   0.00000  Uiso   1.00
C1328  C     0.31132   0.83436   0.70919   0.00000  Uiso   1.00
C1329  C     0.02201   0.83202   0.79083   0.00000  Uiso   1.00
C1330  C     0.29048   0.83304   0.75011   0.00000  Uiso   1.00
Cu1331 Cu    0.16667   0.88022   0.75000   0.00000  Uiso   1.00
Cu1332 Cu    0.16667   0.78645   0.75000   0.00000  Uiso   1.00
H1333  H     0.16672   0.90623   0.88695   0.00000  Uiso   1.00
H1334  H     0.11780   0.95801   0.70351   0.00000  Uiso   1.00
H1335  H     0.19744   0.73326   0.86876   0.00000  Uiso   1.00
H1336  H     0.19360   0.93447   0.63292   0.00000  Uiso   1.00
H1337  H     0.03007   0.90247   0.64428   0.00000  Uiso   1.00
H1338  H     0.07963   0.89641   0.67121   0.00000  Uiso   1.00
H1339  H     0.07307   0.87679   0.61590   0.00000  Uiso   1.00
H1340  H     0.07417   0.80927   0.67025   0.00000  Uiso   1.00
H1341  H     0.02816   0.81250   0.64030   0.00000  Uiso   1.00
H1342  H     0.26036   0.86882   0.88408   0.00000  Uiso   1.00
H1343  H     0.30331   0.89620   0.85555   0.00000  Uiso   1.00
H1344  H     0.16742   0.76060   0.61302   0.00000  Uiso   1.00
H1345  H     0.25373   0.89175   0.82872   0.00000  Uiso   1.00
H1346  H     0.25916   0.80456   0.82987   0.00000  Uiso   1.00
H1347  H     0.30520   0.80593   0.85978   0.00000  Uiso   1.00
H1348  H     0.30258   0.76615   0.64679   0.00000  Uiso   1.00
H1349  H     0.25343   0.77081   0.67409   0.00000  Uiso   1.00
H1350  H     0.25891   0.79196   0.61801   0.00000  Uiso   1.00
H1351  H     0.25821   0.85852   0.66965   0.00000  Uiso   1.00
H1352  H     0.30394   0.85618   0.63961   0.00000  Uiso   1.00
H1353  H     0.08024   0.76677   0.82626   0.00000  Uiso   1.00
H1354  H     0.07464   0.78468   0.88223   0.00000  Uiso   1.00
H1355  H     0.16918   0.71274   0.96851   0.00000  Uiso   1.00
H1356  H     0.03110   0.76022   0.85358   0.00000  Uiso   1.00
H1357  H     0.07503   0.85418   0.83023   0.00000  Uiso   1.00
H1358  H     0.02933   0.84981   0.86033   0.00000  Uiso   1.00
H1359  H     0.16776   0.95415   0.53150   0.00000  Uiso   1.00
H1360  H     0.16816   0.71640   0.54748   0.00000  Uiso   1.00
H1361  H     0.16699   0.95047   0.95253   0.00000  Uiso   1.00
H1362  H     0.11768   0.71172   0.70357   0.00000  Uiso   1.00
H1363  H     0.21574   0.95513   0.79627   0.00000  Uiso   1.00
H1364  H     0.21614   0.70880   0.79576   0.00000  Uiso   1.00
N1365  N     0.16667   0.95069   0.75000   0.00000  Uiso   1.00
N1366  N     0.16667   0.71598   0.75000   0.00000  Uiso   1.00
O1367  O     0.10655   0.87291   0.75000   0.00000  Uiso   1.00
O1368  O     0.13871   0.95278   0.60775   0.00000  Uiso   1.00
O1369  O     0.22679   0.79375   0.75001   0.00000  Uiso   1.00
O1370  O     0.22679   0.87291   0.75001   0.00000  Uiso   1.00
O1371  O     0.10655   0.79375   0.75000   0.00000  Uiso   1.00
O1372  O     0.16666   0.87293   0.68513   0.00000  Uiso   1.00
O1373  O     0.16668   0.79373   0.81487   0.00000  Uiso   1.00
O1374  O     0.16668   0.87293   0.81487   0.00000  Uiso   1.00
O1375  O     0.16666   0.79373   0.68513   0.00000  Uiso   1.00
O1376  O     0.14188   0.71358   0.89084   0.00000  Uiso   1.00
C1377  C     0.42085   0.83330   0.74984   0.00000  Uiso   1.00
C1378  C     0.37619   0.83305   0.74992   0.00000  Uiso   1.00
C1379  C     0.47278   0.69232   0.72424   0.00000  Uiso   1.00
C1380  C     0.52727   0.97441   0.77567   0.00000  Uiso   1.00
C1381  C     0.52738   0.69070   0.77555   0.00000  Uiso   1.00
C1382  C     0.47283   0.97602   0.72420   0.00000  Uiso   1.00
C1383  C     0.50021   0.83423   0.66420   0.00000  Uiso   1.00
C1384  C     0.50043   0.83247   0.83580   0.00000  Uiso   1.00
C1385  C     0.50012   0.87332   0.90585   0.00000  Uiso   1.00
C1386  C     0.50038   0.79352   0.59415   0.00000  Uiso   1.00
C1387  C     0.50082   0.83053   0.88440   0.00000  Uiso   1.00
C1388  C     0.57915   0.83329   0.75018   0.00000  Uiso   1.00
C1389  C     0.50047   0.83629   0.61562   0.00000  Uiso   1.00
C1390  C     0.50113   0.78754   0.90958   0.00000  Uiso   1.00
C1391  C     0.50003   0.87935   0.59049   0.00000  Uiso   1.00
C1392  C     0.50028   0.78869   0.95607   0.00000  Uiso   1.00
C1393  C     0.49950   0.87819   0.54397   0.00000  Uiso   1.00
C1394  C     0.49958   0.83253   0.97684   0.00000  Uiso   1.00
C1395  C     0.49948   0.83434   0.52318   0.00000  Uiso   1.00
C1396  C     0.49971   0.87464   0.95145   0.00000  Uiso   1.00
C1397  C     0.50006   0.79222   0.54856   0.00000  Uiso   1.00
C1398  C     0.50116   0.74713   0.98252   0.00000  Uiso   1.00
C1399  C     0.50080   0.74899   0.52812   0.00000  Uiso   1.00
C1400  C     0.50008   0.91974   0.51751   0.00000  Uiso   1.00
C1401  C     0.50366   0.74168   0.88790   0.00000  Uiso   1.00
C1402  C     0.50086   0.92532   0.61225   0.00000  Uiso   1.00
C1403  C     0.37910   0.83083   0.66597   0.00000  Uiso   1.00
C1404  C     0.39108   0.87968   0.64839   0.00000  Uiso   1.00
C1405  C     0.62091   0.82584   0.83409   0.00000  Uiso   1.00
C1406  C     0.60897   0.87365   0.85156   0.00000  Uiso   1.00
C1407  C     0.62001   0.83721   0.66607   0.00000  Uiso   1.00
C1408  C     0.60811   0.78852   0.65044   0.00000  Uiso   1.00
C1409  C     0.37999   0.83250   0.83394   0.00000  Uiso   1.00
C1410  C     0.49990   0.91788   0.97189   0.00000  Uiso   1.00
C1411  C     0.39213   0.78298   0.84981   0.00000  Uiso   1.00
C1412  C     0.35493   0.83301   0.70911   0.00000  Uiso   1.00
C1413  C     0.64507   0.83063   0.79092   0.00000  Uiso   1.00
C1414  C     0.64465   0.83436   0.70919   0.00000  Uiso   1.00
C1415  C     0.35535   0.83202   0.79083   0.00000  Uiso   1.00
C1416  C     0.62381   0.83304   0.75011   0.00000  Uiso   1.00
Cu1417 Cu    0.50000   0.88022   0.75000   0.00000  Uiso   1.00
Cu1418 Cu    0.50000   0.78645   0.75000   0.00000  Uiso   1.00
H1419  H     0.50005   0.90623   0.88695   0.00000  Uiso   1.00
H1420  H     0.45113   0.95801   0.70351   0.00000  Uiso   1.00
H1421  H     0.53078   0.73326   0.86876   0.00000  Uiso   1.00
H1422  H     0.52693   0.93447   0.63292   0.00000  Uiso   1.00
H1423  H     0.36341   0.90247   0.64428   0.00000  Uiso   1.00
H1424  H     0.41297   0.89641   0.67121   0.00000  Uiso   1.00
H1425  H     0.40640   0.87679   0.61590   0.00000  Uiso   1.00
H1426  H     0.40751   0.80927   0.67025   0.00000  Uiso   1.00
H1427  H     0.36150   0.81250   0.64030   0.00000  Uiso   1.00
H1428  H     0.59369   0.86882   0.88408   0.00000  Uiso   1.00
H1429  H     0.63664   0.89620   0.85555   0.00000  Uiso   1.00
H1430  H     0.50075   0.76060   0.61302   0.00000  Uiso   1.00
H1431  H     0.58706   0.89175   0.82872   0.00000  Uiso   1.00
H1432  H     0.59249   0.80456   0.82987   0.00000  Uiso   1.00
H1433  H     0.63853   0.80593   0.85978   0.00000  Uiso   1.00
H1434  H     0.63591   0.76615   0.64679   0.00000  Uiso   1.00
H1435  H     0.58676   0.77081   0.67409   0.00000  Uiso   1.00
H1436  H     0.59225   0.79196   0.61801   0.00000  Uiso   1.00
H1437  H     0.59154   0.85852   0.66965   0.00000  Uiso   1.00
H1438  H     0.63727   0.85618   0.63961   0.00000  Uiso   1.00
H1439  H     0.41358   0.76677   0.82626   0.00000  Uiso   1.00
H1440  H     0.40797   0.78468   0.88223   0.00000  Uiso   1.00
H1441  H     0.50251   0.71274   0.96851   0.00000  Uiso   1.00
H1442  H     0.36444   0.76022   0.85358   0.00000  Uiso   1.00
H1443  H     0.40836   0.85418   0.83023   0.00000  Uiso   1.00
H1444  H     0.36266   0.84981   0.86033   0.00000  Uiso   1.00
H1445  H     0.50110   0.95415   0.53150   0.00000  Uiso   1.00
H1446  H     0.50149   0.71640   0.54748   0.00000  Uiso   1.00
H1447  H     0.50032   0.95047   0.95253   0.00000  Uiso   1.00
H1448  H     0.45102   0.71172   0.70357   0.00000  Uiso   1.00
H1449  H     0.54907   0.95513   0.79627   0.00000  Uiso   1.00
H1450  H     0.54947   0.70880   0.79576   0.00000  Uiso   1.00
N1451  N     0.50000   0.95069   0.75000   0.00000  Uiso   1.00
N1452  N     0.50000   0.71598   0.75000   0.00000  Uiso   1.00
O1453  O     0.43988   0.87291   0.75000   0.00000  Uiso   1.00
O1454  O     0.47204   0.95278   0.60775   0.00000  Uiso   1.00
O1455  O     0.56012   0.79375   0.75001   0.00000  Uiso   1.00
O1456  O     0.56012   0.87291   0.75001   0.00000  Uiso   1.00
O1457  O     0.43988   0.79375   0.75000   0.00000  Uiso   1.00
O1458  O     0.49999   0.87293   0.68513   0.00000  Uiso   1.00
O1459  O     0.50001   0.79373   0.81487   0.00000  Uiso   1.00
O1460  O     0.50001   0.87293   0.81487   0.00000  Uiso   1.00
O1461  O     0.49999   0.79373   0.68513   0.00000  Uiso   1.00
O1462  O     0.47521   0.71358   0.89084   0.00000  Uiso   1.00
C1463  C     0.75419   0.83330   0.74984   0.00000  Uiso   1.00
C1464  C     0.70952   0.83305   0.74992   0.00000  Uiso   1.00
C1465  C     0.80612   0.69232   0.72424   0.00000  Uiso   1.00
C1466  C     0.86060   0.97441   0.77567   0.00000  Uiso   1.00
C1467  C     0.86071   0.69070   0.77555   0.00000  Uiso   1.00
C1468  C     0.80617   0.97602   0.72420   0.00000  Uiso   1.00
C1469  C     0.83355   0.83423   0.66420   0.00000  Uiso   1.00
C1470  C     0.83376   0.83247   0.83580   0.00000  Uiso   1.00
C1471  C     0.83345   0.87332   0.90585   0.00000  Uiso   1.00
C1472  C     0.83371   0.79352   0.59415   0.00000  Uiso   1.00
C1473  C     0.83416   0.83053   0.88440   0.00000  Uiso   1.00
C1474  C     0.91248   0.83329   0.75018   0.00000  Uiso   1.00
C1475  C     0.83380   0.83629   0.61562   0.00000  Uiso   1.00
C1476  C     0.83446   0.78754   0.90958   0.00000  Uiso   1.00
C1477  C     0.83336   0.87935   0.59049   0.00000  Uiso   1.00
C1478  C     0.83361   0.78869   0.95607   0.00000  Uiso   1.00
C1479  C     0.83283   0.87819   0.54397   0.00000  Uiso   1.00
C1480  C     0.83291   0.83253   0.97684   0.00000  Uiso   1.00
C1481  C     0.83282   0.83434   0.52318   0.00000  Uiso   1.00
C1482  C     0.83305   0.87464   0.95145   0.00000  Uiso   1.00
C1483  C     0.83339   0.79222   0.54856   0.00000  Uiso   1.00
C1484  C     0.83450   0.74713   0.98252   0.00000  Uiso   1.00
C1485  C     0.83413   0.74899   0.52812   0.00000  Uiso   1.00
C1486  C     0.83341   0.91974   0.51751   0.00000  Uiso   1.00
C1487  C     0.83699   0.74168   0.88790   0.00000  Uiso   1.00
C1488  C     0.83419   0.92532   0.61225   0.00000  Uiso   1.00
C1489  C     0.71243   0.83083   0.66597   0.00000  Uiso   1.00
C1490  C     0.72441   0.87968   0.64839   0.00000  Uiso   1.00
C1491  C     0.95425   0.82584   0.83409   0.00000  Uiso   1.00
C1492  C     0.94231   0.87365   0.85156   0.00000  Uiso   1.00
C1493  C     0.95334   0.83721   0.66607   0.00000  Uiso   1.00
C1494  C     0.94144   0.78852   0.65044   0.00000  Uiso   1.00
C1495  C     0.71333   0.83250   0.83394   0.00000  Uiso   1.00
C1496  C     0.83324   0.91788   0.97189   0.00000  Uiso   1.00
C1497  C     0.72546   0.78298   0.84981   0.00000  Uiso   1.00
C1498  C     0.68826   0.83301   0.70911   0.00000  Uiso   1.00
C1499  C     0.97841   0.83063   0.79092   0.00000  Uiso   1.00
C1500  C     0.97799   0.83436   0.70919   0.00000  Uiso   1.00
C1501  C     0.68868   0.83202   0.79083   0.00000  Uiso   1.00
C1502  C     0.95714   0.83304   0.75011   0.00000  Uiso   1.00
Cu1503 Cu    0.83333   0.88022   0.75000   0.00000  Uiso   1.00
Cu1504 Cu    0.83333   0.78645   0.75000   0.00000  Uiso   1.00
H1505  H     0.83339   0.90623   0.88695   0.00000  Uiso   1.00
H1506  H     0.78446   0.95801   0.70351   0.00000  Uiso   1.00
H1507  H     0.86411   0.73326   0.86876   0.00000  Uiso   1.00
H1508  H     0.86027   0.93447   0.63292   0.00000  Uiso   1.00
H1509  H     0.69674   0.90247   0.64428   0.00000  Uiso   1.00
H1510  H     0.74630   0.89641   0.67121   0.00000  Uiso   1.00
H1511  H     0.73974   0.87679   0.61590   0.00000  Uiso   1.00
H1512  H     0.74084   0.80927   0.67025   0.00000  Uiso   1.00
H1513  H     0.69483   0.81250   0.64030   0.00000  Uiso   1.00
H1514  H     0.92702   0.86882   0.88408   0.00000  Uiso   1.00
H1515  H     0.96998   0.89620   0.85555   0.00000  Uiso   1.00
H1516  H     0.83409   0.76060   0.61302   0.00000  Uiso   1.00
H1517  H     0.92039   0.89175   0.82872   0.00000  Uiso   1.00
H1518  H     0.92582   0.80456   0.82987   0.00000  Uiso   1.00
H1519  H     0.97186   0.80593   0.85978   0.00000  Uiso   1.00
H1520  H     0.96924   0.76615   0.64679   0.00000  Uiso   1.00
H1521  H     0.92009   0.77081   0.67409   0.00000  Uiso   1.00
H1522  H     0.92558   0.79196   0.61801   0.00000  Uiso   1.00
H1523  H     0.92487   0.85852   0.66965   0.00000  Uiso   1.00
H1524  H     0.97061   0.85618   0.63961   0.00000  Uiso   1.00
H1525  H     0.74691   0.76677   0.82626   0.00000  Uiso   1.00
H1526  H     0.74131   0.78468   0.88223   0.00000  Uiso   1.00
H1527  H     0.83584   0.71274   0.96851   0.00000  Uiso   1.00
H1528  H     0.69777   0.76022   0.85358   0.00000  Uiso   1.00
H1529  H     0.74169   0.85418   0.83023   0.00000  Uiso   1.00
H1530  H     0.69600   0.84981   0.86033   0.00000  Uiso   1.00
H1531  H     0.83443   0.95415   0.53150   0.00000  Uiso   1.00
H1532  H     0.83482   0.71640   0.54748   0.00000  Uiso   1.00
H1533  H     0.83365   0.95047   0.95253   0.00000  Uiso   1.00
H1534  H     0.78435   0.71172   0.70357   0.00000  Uiso   1.00
H1535  H     0.88241   0.95513   0.79627   0.00000  Uiso   1.00
H1536  H     0.88280   0.70880   0.79576   0.00000  Uiso   1.00
N1537  N     0.83333   0.95069   0.75000   0.00000  Uiso   1.00
N1538  N     0.83333   0.71598   0.75000   0.00000  Uiso   1.00
O1539  O     0.77321   0.87291   0.75000   0.00000  Uiso   1.00
O1540  O     0.80538   0.95278   0.60775   0.00000  Uiso   1.00
O1541  O     0.89345   0.79375   0.75001   0.00000  Uiso   1.00
O1542  O     0.89345   0.87291   0.75001   0.00000  Uiso   1.00
O1543  O     0.77321   0.79375   0.75000   0.00000  Uiso   1.00
O1544  O     0.83332   0.87293   0.68513   0.00000  Uiso   1.00
O1545  O     0.83334   0.79373   0.81487   0.00000  Uiso   1.00
O1546  O     0.83334   0.87293   0.81487   0.00000  Uiso   1.00
O1547  O     0.83332   0.79373   0.68513   0.00000  Uiso   1.00
O1548  O     0.80854   0.71358   0.89084   0.00000  Uiso   1.00
loop_
_geom_bond_atom_site_label_1
_geom_bond_atom_site_label_2
_geom_bond_distance
_geom_bond_site_symmetry_2
_ccdc_geom_bond_type
C1     O77     1.286   .     A
C1     O81     1.284   .     A
C1     C2      1.443   .     S
C2     C39     1.414   .     A
C2     C36     1.415   .     A
C3     N76     1.366   .     A
C3     H72     1.082   .     S
C3     C522    1.415   1_545 S
C4     N75     1.367   .     A
C4     H73     1.080   .     S
C4     C263    1.414   .     S
C5     H74     1.081   .     S
C5     N76     1.366   .     A
C5     C520    1.414   1_545 S
C6     N75     1.366   .     A
C6     H44     1.080   .     S
C6     C261    1.415   .     S
C7     O85     1.301   .     A
C7     C13     1.474   .     S
C7     O82     1.289   .     A
C8     O83     1.290   .     A
C8     O84     1.300   .     A
C8     C11     1.475   .     S
C9     H43     1.085   .     S
C9     C20     1.386   .     A
C9     C11     1.400   .     A
C10    C21     1.386   .     A
C10    C13     1.399   .     A
C10    H54     1.085   .     S
C11    C14     1.425   .     A
C12    O79     1.284   .     A
C12    C40     1.443   .     S
C12    O80     1.286   .     A
C13    C15     1.426   .     A
C14    C16     1.413   .     A
C14    C25     1.483   .     S
C15    C26     1.485   .     S
C15    C17     1.414   .     A
C16    C22     1.411   .     A
C16    C18     1.416   .     A
C17    C24     1.411   .     A
C17    C19     1.417   .     A
C18    C20     1.407   .     A
C18    C793    1.409   .     S
C19    C21     1.407   .     A
C19    C792    1.409   1_554 S
C20    C34     1.396   .     A
C21    C23     1.396   .     A
C22    H65     1.081   .     S
C22    C797    1.387   .     S
C23    H70     1.084   .     S
C23    C796    1.387   1_554 S
C24    H69     1.081   .     S
C24    C808    1.387   1_554 S
C25    H45     1.084   .     S
C25    O86     1.221   .     D
C26    O78     1.221   .     D
C26    H46     1.085   .     S
C27    H50     1.110   .     S
C27    H51     1.107   .     S
C27    C36     1.530   .     S
C27    C28     1.527   .     S
C28    H47     1.109   .     S
C28    H49     1.110   .     S
C28    H48     1.106   .     S
C29    C30     1.527   .     S
C29    H57     1.107   .     S
C29    H56     1.110   .     S
C29    C37     1.530   .     S
C30    H53     1.109   .     S
C30    H52     1.110   .     S
C30    H55     1.106   .     S
C31    H61     1.110   .     S
C31    H62     1.107   .     S
C31    C32     1.529   .     S
C31    C38     1.530   .     S
C32    H58     1.109   .     S
C32    H60     1.110   .     S
C32    H59     1.108   .     S
C33    C35     1.528   .     S
C33    C39     1.530   .     S
C33    H67     1.110   .     S
C33    H68     1.107   .     S
C34    H71     1.084   .     S
C34    C798    1.387   .     S
C35    H64     1.110   .     S
C35    H66     1.109   .     S
C35    H63     1.108   .     S
C36    C210    1.410   1_455 S
C37    C40     1.415   .     A
C37    C125    1.410   .     S
C38    C40     1.415   .     A
C38    C122    1.410   .     S
C39    C209    1.410   1_455 S
Cu41   Cu42    2.673   .     S
Cu41   O80     1.954   .     S
Cu41   O77     1.954   .     S
Cu41   O84     1.974   .     S
Cu41   N75     2.008   .     S
Cu41   O82     1.987   .     S
Cu42   O79     1.954   .     S
Cu42   O81     1.954   .     S
Cu42   O85     1.974   .     S
Cu42   O83     1.987   .     S
Cu42   N76     2.008   .     S
C87    O163    1.286   .     A
C87    O167    1.284   .     A
C87    C88     1.443   .     S
C88    C125    1.414   .     A
C88    C122    1.415   .     A
C89    N162    1.366   .     A
C89    H158    1.082   .     S
C89    C608    1.415   1_545 S
C90    N161    1.367   .     A
C90    H159    1.080   .     S
C90    C349    1.414   .     S
C91    H160    1.081   .     S
C91    N162    1.366   .     A
C91    C606    1.414   1_545 S
C92    N161    1.366   .     A
C92    H130    1.080   .     S
C92    C347    1.415   .     S
C93    O171    1.301   .     A
C93    C99     1.474   .     S
C93    O168    1.289   .     A
C94    O169    1.290   .     A
C94    O170    1.300   .     A
C94    C97     1.475   .     S
C95    H129    1.085   .     S
C95    C106    1.386   .     A
C95    C97     1.400   .     A
C96    C107    1.386   .     A
C96    C99     1.399   .     A
C96    H140    1.085   .     S
C97    C100    1.425   .     A
C98    O165    1.284   .     A
C98    C126    1.443   .     S
C98    O166    1.286   .     A
C99    C101    1.426   .     A
C100   C102    1.413   .     A
C100   C111    1.483   .     S
C101   C112    1.485   .     S
C101   C103    1.414   .     A
C102   C108    1.411   .     A
C102   C104    1.416   .     A
C103   C110    1.411   .     A
C103   C105    1.417   .     A
C104   C106    1.407   .     A
C104   C879    1.409   .     S
C105   C107    1.407   .     A
C105   C878    1.409   1_554 S
C106   C120    1.396   .     A
C107   C109    1.396   .     A
C108   H151    1.081   .     S
C108   C883    1.387   .     S
C109   H156    1.084   .     S
C109   C882    1.387   1_554 S
C110   H155    1.081   .     S
C110   C894    1.387   1_554 S
C111   H131    1.084   .     S
C111   O172    1.221   .     D
C112   O164    1.221   .     D
C112   H132    1.085   .     S
C113   H136    1.110   .     S
C113   H137    1.107   .     S
C113   C122    1.530   .     S
C113   C114    1.527   .     S
C114   H133    1.109   .     S
C114   H135    1.110   .     S
C114   H134    1.106   .     S
C115   C116    1.527   .     S
C115   H143    1.107   .     S
C115   H142    1.110   .     S
C115   C123    1.530   .     S
C116   H139    1.109   .     S
C116   H138    1.110   .     S
C116   H141    1.106   .     S
C117   H147    1.110   .     S
C117   H148    1.107   .     S
C117   C118    1.529   .     S
C117   C124    1.530   .     S
C118   H144    1.109   .     S
C118   H146    1.110   .     S
C118   H145    1.108   .     S
C119   C121    1.528   .     S
C119   C125    1.530   .     S
C119   H153    1.110   .     S
C119   H154    1.107   .     S
C120   H157    1.084   .     S
C120   C884    1.387   .     S
C121   H150    1.110   .     S
C121   H152    1.109   .     S
C121   H149    1.108   .     S
C123   C126    1.415   .     A
C123   C211    1.410   .     S
C124   C126    1.415   .     A
C124   C208    1.410   .     S
Cu127  Cu128   2.673   .     S
Cu127  O166    1.954   .     S
Cu127  O163    1.954   .     S
Cu127  O170    1.974   .     S
Cu127  N161    2.008   .     S
Cu127  O168    1.987   .     S
Cu128  O165    1.954   .     S
Cu128  O167    1.954   .     S
Cu128  O171    1.974   .     S
Cu128  O169    1.987   .     S
Cu128  N162    2.008   .     S
C173   O249    1.286   .     A
C173   O253    1.284   .     A
C173   C174    1.443   .     S
C174   C211    1.414   .     A
C174   C208    1.415   .     A
C175   N248    1.366   .     A
C175   H244    1.082   .     S
C175   C694    1.415   1_545 S
C176   N247    1.367   .     A
C176   H245    1.080   .     S
C176   C435    1.414   .     S
C177   H246    1.081   .     S
C177   N248    1.366   .     A
C177   C692    1.414   1_545 S
C178   N247    1.366   .     A
C178   H216    1.080   .     S
C178   C433    1.415   .     S
C179   O257    1.301   .     A
C179   C185    1.474   .     S
C179   O254    1.289   .     A
C180   O255    1.290   .     A
C180   O256    1.300   .     A
C180   C183    1.475   .     S
C181   H215    1.085   .     S
C181   C192    1.386   .     A
C181   C183    1.400   .     A
C182   C193    1.386   .     A
C182   C185    1.399   .     A
C182   H226    1.085   .     S
C183   C186    1.425   .     A
C184   O251    1.284   .     A
C184   C212    1.443   .     S
C184   O252    1.286   .     A
C185   C187    1.426   .     A
C186   C188    1.413   .     A
C186   C197    1.483   .     S
C187   C198    1.485   .     S
C187   C189    1.414   .     A
C188   C194    1.411   .     A
C188   C190    1.416   .     A
C189   C196    1.411   .     A
C189   C191    1.417   .     A
C190   C192    1.407   .     A
C190   C965    1.409   .     S
C191   C193    1.407   .     A
C191   C964    1.409   1_554 S
C192   C206    1.396   .     A
C193   C195    1.396   .     A
C194   H237    1.081   .     S
C194   C969    1.387   .     S
C195   H242    1.084   .     S
C195   C968    1.387   1_554 S
C196   H241    1.081   .     S
C196   C980    1.387   1_554 S
C197   H217    1.084   .     S
C197   O258    1.221   .     D
C198   O250    1.221   .     D
C198   H218    1.085   .     S
C199   H222    1.110   .     S
C199   H223    1.107   .     S
C199   C208    1.530   .     S
C199   C200    1.527   .     S
C200   H219    1.109   .     S
C200   H221    1.110   .     S
C200   H220    1.106   .     S
C201   C202    1.527   .     S
C201   H229    1.107   .     S
C201   H228    1.110   .     S
C201   C209    1.530   .     S
C202   H225    1.109   .     S
C202   H224    1.110   .     S
C202   H227    1.106   .     S
C203   H233    1.110   .     S
C203   H234    1.107   .     S
C203   C204    1.529   .     S
C203   C210    1.530   .     S
C204   H230    1.109   .     S
C204   H232    1.110   .     S
C204   H231    1.108   .     S
C205   C207    1.528   .     S
C205   C211    1.530   .     S
C205   H239    1.110   .     S
C205   H240    1.107   .     S
C206   H243    1.084   .     S
C206   C970    1.387   .     S
C207   H236    1.110   .     S
C207   H238    1.109   .     S
C207   H235    1.108   .     S
C209   C212    1.415   .     A
C209   C39     1.410   1_655 S
C210   C212    1.415   .     A
C210   C36     1.410   1_655 S
Cu213  Cu214   2.673   .     S
Cu213  O252    1.954   .     S
Cu213  O249    1.954   .     S
Cu213  O256    1.974   .     S
Cu213  N247    2.008   .     S
Cu213  O254    1.987   .     S
Cu214  O251    1.954   .     S
Cu214  O253    1.954   .     S
Cu214  O257    1.974   .     S
Cu214  O255    1.987   .     S
Cu214  N248    2.008   .     S
C259   O335    1.286   .     A
C259   O339    1.284   .     A
C259   C260    1.443   .     S
C260   C297    1.414   .     A
C260   C294    1.415   .     A
C261   N334    1.366   .     A
C261   H330    1.082   .     S
C262   N333    1.367   .     A
C262   H331    1.080   .     S
C262   C521    1.414   .     S
C263   H332    1.081   .     S
C263   N334    1.366   .     A
C264   N333    1.366   .     A
C264   H302    1.080   .     S
C264   C519    1.415   .     S
C265   O343    1.301   .     A
C265   C271    1.474   .     S
C265   O340    1.289   .     A
C266   O341    1.290   .     A
C266   O342    1.300   .     A
C266   C269    1.475   .     S
C267   H301    1.085   .     S
C267   C278    1.386   .     A
C267   C269    1.400   .     A
C268   C279    1.386   .     A
C268   C271    1.399   .     A
C268   H312    1.085   .     S
C269   C272    1.425   .     A
C270   O337    1.284   .     A
C270   C298    1.443   .     S
C270   O338    1.286   .     A
C271   C273    1.426   .     A
C272   C274    1.413   .     A
C272   C283    1.483   .     S
C273   C284    1.485   .     S
C273   C275    1.414   .     A
C274   C280    1.411   .     A
C274   C276    1.416   .     A
C275   C282    1.411   .     A
C275   C277    1.417   .     A
C276   C278    1.407   .     A
C276   C1051   1.409   .     S
C277   C279    1.407   .     A
C277   C1050   1.409   1_554 S
C278   C292    1.396   .     A
C279   C281    1.396   .     A
C280   H323    1.081   .     S
C280   C1055   1.387   .     S
C281   H328    1.084   .     S
C281   C1054   1.387   1_554 S
C282   H327    1.081   .     S
C282   C1066   1.387   1_554 S
C283   H303    1.084   .     S
C283   O344    1.221   .     D
C284   O336    1.221   .     D
C284   H304    1.085   .     S
C285   H308    1.110   .     S
C285   H309    1.107   .     S
C285   C294    1.530   .     S
C285   C286    1.527   .     S
C286   H305    1.109   .     S
C286   H307    1.110   .     S
C286   H306    1.106   .     S
C287   C288    1.527   .     S
C287   H315    1.107   .     S
C287   H314    1.110   .     S
C287   C295    1.530   .     S
C288   H311    1.109   .     S
C288   H310    1.110   .     S
C288   H313    1.106   .     S
C289   H319    1.110   .     S
C289   H320    1.107   .     S
C289   C290    1.529   .     S
C289   C296    1.530   .     S
C290   H316    1.109   .     S
C290   H318    1.110   .     S
C290   H317    1.108   .     S
C291   C293    1.528   .     S
C291   C297    1.530   .     S
C291   H325    1.110   .     S
C291   H326    1.107   .     S
C292   H329    1.084   .     S
C292   C1056   1.387   .     S
C293   H322    1.110   .     S
C293   H324    1.109   .     S
C293   H321    1.108   .     S
C294   C468    1.410   1_455 S
C295   C298    1.415   .     A
C295   C383    1.410   .     S
C296   C298    1.415   .     A
C296   C380    1.410   .     S
C297   C467    1.410   1_455 S
Cu299  Cu300   2.673   .     S
Cu299  O338    1.954   .     S
Cu299  O335    1.954   .     S
Cu299  O342    1.974   .     S
Cu299  N333    2.008   .     S
Cu299  O340    1.987   .     S
Cu300  O337    1.954   .     S
Cu300  O339    1.954   .     S
Cu300  O343    1.974   .     S
Cu300  O341    1.987   .     S
Cu300  N334    2.008   .     S
C345   O421    1.286   .     A
C345   O425    1.284   .     A
C345   C346    1.443   .     S
C346   C383    1.414   .     A
C346   C380    1.415   .     A
C347   N420    1.366   .     A
C347   H416    1.082   .     S
C348   N419    1.367   .     A
C348   H417    1.080   .     S
C348   C607    1.414   .     S
C349   H418    1.081   .     S
C349   N420    1.366   .     A
C350   N419    1.366   .     A
C350   H388    1.080   .     S
C350   C605    1.415   .     S
C351   O429    1.301   .     A
C351   C357    1.474   .     S
C351   O426    1.289   .     A
C352   O427    1.290   .     A
C352   O428    1.300   .     A
C352   C355    1.475   .     S
C353   H387    1.085   .     S
C353   C364    1.386   .     A
C353   C355    1.400   .     A
C354   C365    1.386   .     A
C354   C357    1.399   .     A
C354   H398    1.085   .     S
C355   C358    1.425   .     A
C356   O423    1.284   .     A
C356   C384    1.443   .     S
C356   O424    1.286   .     A
C357   C359    1.426   .     A
C358   C360    1.413   .     A
C358   C369    1.483   .     S
C359   C370    1.485   .     S
C359   C361    1.414   .     A
C360   C366    1.411   .     A
C360   C362    1.416   .     A
C361   C368    1.411   .     A
C361   C363    1.417   .     A
C362   C364    1.407   .     A
C362   C1137   1.409   .     S
C363   C365    1.407   .     A
C363   C1136   1.409   1_554 S
C364   C378    1.396   .     A
C365   C367    1.396   .     A
C366   H409    1.081   .     S
C366   C1141   1.387   .     S
C367   H414    1.084   .     S
C367   C1140   1.387   1_554 S
C368   H413    1.081   .     S
C368   C1152   1.387   1_554 S
C369   H389    1.084   .     S
C369   O430    1.221   .     D
C370   O422    1.221   .     D
C370   H390    1.085   .     S
C371   H394    1.110   .     S
C371   H395    1.107   .     S
C371   C380    1.530   .     S
C371   C372    1.527   .     S
C372   H391    1.109   .     S
C372   H393    1.110   .     S
C372   H392    1.106   .     S
C373   C374    1.527   .     S
C373   H401    1.107   .     S
C373   H400    1.110   .     S
C373   C381    1.530   .     S
C374   H397    1.109   .     S
C374   H396    1.110   .     S
C374   H399    1.106   .     S
C375   H405    1.110   .     S
C375   H406    1.107   .     S
C375   C376    1.529   .     S
C375   C382    1.530   .     S
C376   H402    1.109   .     S
C376   H404    1.110   .     S
C376   H403    1.108   .     S
C377   C379    1.528   .     S
C377   C383    1.530   .     S
C377   H411    1.110   .     S
C377   H412    1.107   .     S
C378   H415    1.084   .     S
C378   C1142   1.387   .     S
C379   H408    1.110   .     S
C379   H410    1.109   .     S
C379   H407    1.108   .     S
C381   C384    1.415   .     A
C381   C469    1.410   .     S
C382   C384    1.415   .     A
C382   C466    1.410   .     S
Cu385  Cu386   2.673   .     S
Cu385  O424    1.954   .     S
Cu385  O421    1.954   .     S
Cu385  O428    1.974   .     S
Cu385  N419    2.008   .     S
Cu385  O426    1.987   .     S
Cu386  O423    1.954   .     S
Cu386  O425    1.954   .     S
Cu386  O429    1.974   .     S
Cu386  O427    1.987   .     S
Cu386  N420    2.008   .     S
C431   O507    1.286   .     A
C431   O511    1.284   .     A
C431   C432    1.443   .     S
C432   C469    1.414   .     A
C432   C466    1.415   .     A
C433   N506    1.366   .     A
C433   H502    1.082   .     S
C434   N505    1.367   .     A
C434   H503    1.080   .     S
C434   C693    1.414   .     S
C435   H504    1.081   .     S
C435   N506    1.366   .     A
C436   N505    1.366   .     A
C436   H474    1.080   .     S
C436   C691    1.415   .     S
C437   O515    1.301   .     A
C437   C443    1.474   .     S
C437   O512    1.289   .     A
C438   O513    1.290   .     A
C438   O514    1.300   .     A
C438   C441    1.475   .     S
C439   H473    1.085   .     S
C439   C450    1.386   .     A
C439   C441    1.400   .     A
C440   C451    1.386   .     A
C440   C443    1.399   .     A
C440   H484    1.085   .     S
C441   C444    1.425   .     A
C442   O509    1.284   .     A
C442   C470    1.443   .     S
C442   O510    1.286   .     A
C443   C445    1.426   .     A
C444   C446    1.413   .     A
C444   C455    1.483   .     S
C445   C456    1.485   .     S
C445   C447    1.414   .     A
C446   C452    1.411   .     A
C446   C448    1.416   .     A
C447   C454    1.411   .     A
C447   C449    1.417   .     A
C448   C450    1.407   .     A
C448   C1223   1.409   .     S
C449   C451    1.407   .     A
C449   C1222   1.409   1_554 S
C450   C464    1.396   .     A
C451   C453    1.396   .     A
C452   H495    1.081   .     S
C452   C1227   1.387   .     S
C453   H500    1.084   .     S
C453   C1226   1.387   1_554 S
C454   H499    1.081   .     S
C454   C1238   1.387   1_554 S
C455   H475    1.084   .     S
C455   O516    1.221   .     D
C456   O508    1.221   .     D
C456   H476    1.085   .     S
C457   H480    1.110   .     S
C457   H481    1.107   .     S
C457   C466    1.530   .     S
C457   C458    1.527   .     S
C458   H477    1.109   .     S
C458   H479    1.110   .     S
C458   H478    1.106   .     S
C459   C460    1.527   .     S
C459   H487    1.107   .     S
C459   H486    1.110   .     S
C459   C467    1.530   .     S
C460   H483    1.109   .     S
C460   H482    1.110   .     S
C460   H485    1.106   .     S
C461   H491    1.110   .     S
C461   H492    1.107   .     S
C461   C462    1.529   .     S
C461   C468    1.530   .     S
C462   H488    1.109   .     S
C462   H490    1.110   .     S
C462   H489    1.108   .     S
C463   C465    1.528   .     S
C463   C469    1.530   .     S
C463   H497    1.110   .     S
C463   H498    1.107   .     S
C464   H501    1.084   .     S
C464   C1228   1.387   .     S
C465   H494    1.110   .     S
C465   H496    1.109   .     S
C465   H493    1.108   .     S
C467   C470    1.415   .     A
C467   C297    1.410   1_655 S
C468   C470    1.415   .     A
C468   C294    1.410   1_655 S
Cu471  Cu472   2.673   .     S
Cu471  O510    1.954   .     S
Cu471  O507    1.954   .     S
Cu471  O514    1.974   .     S
Cu471  N505    2.008   .     S
Cu471  O512    1.987   .     S
Cu472  O509    1.954   .     S
Cu472  O511    1.954   .     S
Cu472  O515    1.974   .     S
Cu472  O513    1.987   .     S
Cu472  N506    2.008   .     S
C517   O593    1.286   .     A
C517   O597    1.284   .     A
C517   C518    1.443   .     S
C518   C555    1.414   .     A
C518   C552    1.415   .     A
C519   N592    1.366   .     A
C519   H588    1.082   .     S
C520   N591    1.367   .     A
C520   H589    1.080   .     S
C520   C5      1.414   1_565 S
C521   H590    1.081   .     S
C521   N592    1.366   .     A
C522   N591    1.366   .     A
C522   H560    1.080   .     S
C522   C3      1.415   1_565 S
C523   O601    1.301   .     A
C523   C529    1.474   .     S
C523   O598    1.289   .     A
C524   O599    1.290   .     A
C524   O600    1.300   .     A
C524   C527    1.475   .     S
C525   H559    1.085   .     S
C525   C536    1.386   .     A
C525   C527    1.400   .     A
C526   C537    1.386   .     A
C526   C529    1.399   .     A
C526   H570    1.085   .     S
C527   C530    1.425   .     A
C528   O595    1.284   .     A
C528   C556    1.443   .     S
C528   O596    1.286   .     A
C529   C531    1.426   .     A
C530   C532    1.413   .     A
C530   C541    1.483   .     S
C531   C542    1.485   .     S
C531   C533    1.414   .     A
C532   C538    1.411   .     A
C532   C534    1.416   .     A
C533   C540    1.411   .     A
C533   C535    1.417   .     A
C534   C536    1.407   .     A
C534   C1309   1.409   .     S
C535   C537    1.407   .     A
C535   C1308   1.409   1_554 S
C536   C550    1.396   .     A
C537   C539    1.396   .     A
C538   H581    1.081   .     S
C538   C1313   1.387   .     S
C539   H586    1.084   .     S
C539   C1312   1.387   1_554 S
C540   H585    1.081   .     S
C540   C1324   1.387   1_554 S
C541   H561    1.084   .     S
C541   O602    1.221   .     D
C542   O594    1.221   .     D
C542   H562    1.085   .     S
C543   H566    1.110   .     S
C543   H567    1.107   .     S
C543   C552    1.530   .     S
C543   C544    1.527   .     S
C544   H563    1.109   .     S
C544   H565    1.110   .     S
C544   H564    1.106   .     S
C545   C546    1.527   .     S
C545   H573    1.107   .     S
C545   H572    1.110   .     S
C545   C553    1.530   .     S
C546   H569    1.109   .     S
C546   H568    1.110   .     S
C546   H571    1.106   .     S
C547   H577    1.110   .     S
C547   H578    1.107   .     S
C547   C548    1.529   .     S
C547   C554    1.530   .     S
C548   H574    1.109   .     S
C548   H576    1.110   .     S
C548   H575    1.108   .     S
C549   C551    1.528   .     S
C549   C555    1.530   .     S
C549   H583    1.110   .     S
C549   H584    1.107   .     S
C550   H587    1.084   .     S
C550   C1314   1.387   .     S
C551   H580    1.110   .     S
C551   H582    1.109   .     S
C551   H579    1.108   .     S
C552   C726    1.410   1_455 S
C553   C556    1.415   .     A
C553   C641    1.410   .     S
C554   C556    1.415   .     A
C554   C638    1.410   .     S
C555   C725    1.410   1_455 S
Cu557  Cu558   2.673   .     S
Cu557  O596    1.954   .     S
Cu557  O593    1.954   .     S
Cu557  O600    1.974   .     S
Cu557  N591    2.008   .     S
Cu557  O598    1.987   .     S
Cu558  O595    1.954   .     S
Cu558  O597    1.954   .     S
Cu558  O601    1.974   .     S
Cu558  O599    1.987   .     S
Cu558  N592    2.008   .     S
C603   O679    1.286   .     A
C603   O683    1.284   .     A
C603   C604    1.443   .     S
C604   C641    1.414   .     A
C604   C638    1.415   .     A
C605   N678    1.366   .     A
C605   H674    1.082   .     S
C606   N677    1.367   .     A
C606   H675    1.080   .     S
C606   C91     1.414   1_565 S
C607   H676    1.081   .     S
C607   N678    1.366   .     A
C608   N677    1.366   .     A
C608   H646    1.080   .     S
C608   C89     1.415   1_565 S
C609   O687    1.301   .     A
C609   C615    1.474   .     S
C609   O684    1.289   .     A
C610   O685    1.290   .     A
C610   O686    1.300   .     A
C610   C613    1.475   .     S
C611   H645    1.085   .     S
C611   C622    1.386   .     A
C611   C613    1.400   .     A
C612   C623    1.386   .     A
C612   C615    1.399   .     A
C612   H656    1.085   .     S
C613   C616    1.425   .     A
C614   O681    1.284   .     A
C614   C642    1.443   .     S
C614   O682    1.286   .     A
C615   C617    1.426   .     A
C616   C618    1.413   .     A
C616   C627    1.483   .     S
C617   C628    1.485   .     S
C617   C619    1.414   .     A
C618   C624    1.411   .     A
C618   C620    1.416   .     A
C619   C626    1.411   .     A
C619   C621    1.417   .     A
C620   C622    1.407   .     A
C620   C1395   1.409   .     S
C621   C623    1.407   .     A
C621   C1394   1.409   1_554 S
C622   C636    1.396   .     A
C623   C625    1.396   .     A
C624   H667    1.081   .     S
C624   C1399   1.387   .     S
C625   H672    1.084   .     S
C625   C1398   1.387   1_554 S
C626   H671    1.081   .     S
C626   C1410   1.387   1_554 S
C627   H647    1.084   .     S
C627   O688    1.221   .     D
C628   O680    1.221   .     D
C628   H648    1.085   .     S
C629   H652    1.110   .     S
C629   H653    1.107   .     S
C629   C638    1.530   .     S
C629   C630    1.527   .     S
C630   H649    1.109   .     S
C630   H651    1.110   .     S
C630   H650    1.106   .     S
C631   C632    1.527   .     S
C631   H659    1.107   .     S
C631   H658    1.110   .     S
C631   C639    1.530   .     S
C632   H655    1.109   .     S
C632   H654    1.110   .     S
C632   H657    1.106   .     S
C633   H663    1.110   .     S
C633   H664    1.107   .     S
C633   C634    1.529   .     S
C633   C640    1.530   .     S
C634   H660    1.109   .     S
C634   H662    1.110   .     S
C634   H661    1.108   .     S
C635   C637    1.528   .     S
C635   C641    1.530   .     S
C635   H669    1.110   .     S
C635   H670    1.107   .     S
C636   H673    1.084   .     S
C636   C1400   1.387   .     S
C637   H666    1.110   .     S
C637   H668    1.109   .     S
C637   H665    1.108   .     S
C639   C642    1.415   .     A
C639   C727    1.410   .     S
C640   C642    1.415   .     A
C640   C724    1.410   .     S
Cu643  Cu644   2.673   .     S
Cu643  O682    1.954   .     S
Cu643  O679    1.954   .     S
Cu643  O686    1.974   .     S
Cu643  N677    2.008   .     S
Cu643  O684    1.987   .     S
Cu644  O681    1.954   .     S
Cu644  O683    1.954   .     S
Cu644  O687    1.974   .     S
Cu644  O685    1.987   .     S
Cu644  N678    2.008   .     S
C689   O765    1.286   .     A
C689   O769    1.284   .     A
C689   C690    1.443   .     S
C690   C727    1.414   .     A
C690   C724    1.415   .     A
C691   N764    1.366   .     A
C691   H760    1.082   .     S
C692   N763    1.367   .     A
C692   H761    1.080   .     S
C692   C177    1.414   1_565 S
C693   H762    1.081   .     S
C693   N764    1.366   .     A
C694   N763    1.366   .     A
C694   H732    1.080   .     S
C694   C175    1.415   1_565 S
C695   O773    1.301   .     A
C695   C701    1.474   .     S
C695   O770    1.289   .     A
C696   O771    1.290   .     A
C696   O772    1.300   .     A
C696   C699    1.475   .     S
C697   H731    1.085   .     S
C697   C708    1.386   .     A
C697   C699    1.400   .     A
C698   C709    1.386   .     A
C698   C701    1.399   .     A
C698   H742    1.085   .     S
C699   C702    1.425   .     A
C700   O767    1.284   .     A
C700   C728    1.443   .     S
C700   O768    1.286   .     A
C701   C703    1.426   .     A
C702   C704    1.413   .     A
C702   C713    1.483   .     S
C703   C714    1.485   .     S
C703   C705    1.414   .     A
C704   C710    1.411   .     A
C704   C706    1.416   .     A
C705   C712    1.411   .     A
C705   C707    1.417   .     A
C706   C708    1.407   .     A
C706   C1481   1.409   .     S
C707   C709    1.407   .     A
C707   C1480   1.409   1_554 S
C708   C722    1.396   .     A
C709   C711    1.396   .     A
C710   H753    1.081   .     S
C710   C1485   1.387   .     S
C711   H758    1.084   .     S
C711   C1484   1.387   1_554 S
C712   H757    1.081   .     S
C712   C1496   1.387   1_554 S
C713   H733    1.084   .     S
C713   O774    1.221   .     D
C714   O766    1.221   .     D
C714   H734    1.085   .     S
C715   H738    1.110   .     S
C715   H739    1.107   .     S
C715   C724    1.530   .     S
C715   C716    1.527   .     S
C716   H735    1.109   .     S
C716   H737    1.110   .     S
C716   H736    1.106   .     S
C717   C718    1.527   .     S
C717   H745    1.107   .     S
C717   H744    1.110   .     S
C717   C725    1.530   .     S
C718   H741    1.109   .     S
C718   H740    1.110   .     S
C718   H743    1.106   .     S
C719   H749    1.110   .     S
C719   H750    1.107   .     S
C719   C720    1.529   .     S
C719   C726    1.530   .     S
C720   H746    1.109   .     S
C720   H748    1.110   .     S
C720   H747    1.108   .     S
C721   C723    1.528   .     S
C721   C727    1.530   .     S
C721   H755    1.110   .     S
C721   H756    1.107   .     S
C722   H759    1.084   .     S
C722   C1486   1.387   .     S
C723   H752    1.110   .     S
C723   H754    1.109   .     S
C723   H751    1.108   .     S
C725   C728    1.415   .     A
C725   C555    1.410   1_655 S
C726   C728    1.415   .     A
C726   C552    1.410   1_655 S
Cu729  Cu730   2.673   .     S
Cu729  O768    1.954   .     S
Cu729  O765    1.954   .     S
Cu729  O772    1.974   .     S
Cu729  N763    2.008   .     S
Cu729  O770    1.987   .     S
Cu730  O767    1.954   .     S
Cu730  O769    1.954   .     S
Cu730  O773    1.974   .     S
Cu730  O771    1.987   .     S
Cu730  N764    2.008   .     S
C775   O851    1.286   .     A
C775   O855    1.284   .     A
C775   C776    1.443   .     S
C776   C813    1.414   .     A
C776   C810    1.415   .     A
C777   N850    1.366   .     A
C777   H846    1.082   .     S
C777   C1296   1.415   1_545 S
C778   N849    1.367   .     A
C778   H847    1.080   .     S
C778   C1037   1.414   .     S
C779   H848    1.081   .     S
C779   N850    1.366   .     A
C779   C1294   1.414   1_545 S
C780   N849    1.366   .     A
C780   H818    1.080   .     S
C780   C1035   1.415   .     S
C781   O859    1.301   .     A
C781   C787    1.474   .     S
C781   O856    1.289   .     A
C782   O857    1.290   .     A
C782   O858    1.300   .     A
C782   C785    1.475   .     S
C783   H817    1.085   .     S
C783   C794    1.386   .     A
C783   C785    1.400   .     A
C784   C795    1.386   .     A
C784   C787    1.399   .     A
C784   H828    1.085   .     S
C785   C788    1.425   .     A
C786   O853    1.284   .     A
C786   C814    1.443   .     S
C786   O854    1.286   .     A
C787   C789    1.426   .     A
C788   C790    1.413   .     A
C788   C799    1.483   .     S
C789   C800    1.485   .     S
C789   C791    1.414   .     A
C790   C796    1.411   .     A
C790   C792    1.416   .     A
C791   C798    1.411   .     A
C791   C793    1.417   .     A
C792   C794    1.407   .     A
C792   C19     1.409   1_556 S
C793   C795    1.407   .     A
C794   C808    1.396   .     A
C795   C797    1.396   .     A
C796   H839    1.081   .     S
C796   C23     1.387   1_556 S
C797   H844    1.084   .     S
C798   H843    1.081   .     S
C799   H819    1.084   .     S
C799   O860    1.221   .     D
C800   O852    1.221   .     D
C800   H820    1.085   .     S
C801   H824    1.110   .     S
C801   H825    1.107   .     S
C801   C810    1.530   .     S
C801   C802    1.527   .     S
C802   H821    1.109   .     S
C802   H823    1.110   .     S
C802   H822    1.106   .     S
C803   C804    1.527   .     S
C803   H831    1.107   .     S
C803   H830    1.110   .     S
C803   C811    1.530   .     S
C804   H827    1.109   .     S
C804   H826    1.110   .     S
C804   H829    1.106   .     S
C805   H835    1.110   .     S
C805   H836    1.107   .     S
C805   C806    1.529   .     S
C805   C812    1.530   .     S
C806   H832    1.109   .     S
C806   H834    1.110   .     S
C806   H833    1.108   .     S
C807   C809    1.528   .     S
C807   C813    1.530   .     S
C807   H841    1.110   .     S
C807   H842    1.107   .     S
C808   H845    1.084   .     S
C808   C24     1.387   1_556 S
C809   H838    1.110   .     S
C809   H840    1.109   .     S
C809   H837    1.108   .     S
C810   C984    1.410   1_455 S
C811   C814    1.415   .     A
C811   C899    1.410   .     S
C812   C814    1.415   .     A
C812   C896    1.410   .     S
C813   C983    1.410   1_455 S
Cu815  Cu816   2.673   .     S
Cu815  O854    1.954   .     S
Cu815  O851    1.954   .     S
Cu815  O858    1.974   .     S
Cu815  N849    2.008   .     S
Cu815  O856    1.987   .     S
Cu816  O853    1.954   .     S
Cu816  O855    1.954   .     S
Cu816  O859    1.974   .     S
Cu816  O857    1.987   .     S
Cu816  N850    2.008   .     S
C861   O937    1.286   .     A
C861   O941    1.284   .     A
C861   C862    1.443   .     S
C862   C899    1.414   .     A
C862   C896    1.415   .     A
C863   N936    1.366   .     A
C863   H932    1.082   .     S
C863   C1382   1.415   1_545 S
C864   N935    1.367   .     A
C864   H933    1.080   .     S
C864   C1123   1.414   .     S
C865   H934    1.081   .     S
C865   N936    1.366   .     A
C865   C1380   1.414   1_545 S
C866   N935    1.366   .     A
C866   H904    1.080   .     S
C866   C1121   1.415   .     S
C867   O945    1.301   .     A
C867   C873    1.474   .     S
C867   O942    1.289   .     A
C868   O943    1.290   .     A
C868   O944    1.300   .     A
C868   C871    1.475   .     S
C869   H903    1.085   .     S
C869   C880    1.386   .     A
C869   C871    1.400   .     A
C870   C881    1.386   .     A
C870   C873    1.399   .     A
C870   H914    1.085   .     S
C871   C874    1.425   .     A
C872   O939    1.284   .     A
C872   C900    1.443   .     S
C872   O940    1.286   .     A
C873   C875    1.426   .     A
C874   C876    1.413   .     A
C874   C885    1.483   .     S
C875   C886    1.485   .     S
C875   C877    1.414   .     A
C876   C882    1.411   .     A
C876   C878    1.416   .     A
C877   C884    1.411   .     A
C877   C879    1.417   .     A
C878   C880    1.407   .     A
C878   C105    1.409   1_556 S
C879   C881    1.407   .     A
C880   C894    1.396   .     A
C881   C883    1.396   .     A
C882   H925    1.081   .     S
C882   C109    1.387   1_556 S
C883   H930    1.084   .     S
C884   H929    1.081   .     S
C885   H905    1.084   .     S
C885   O946    1.221   .     D
C886   O938    1.221   .     D
C886   H906    1.085   .     S
C887   H910    1.110   .     S
C887   H911    1.107   .     S
C887   C896    1.530   .     S
C887   C888    1.527   .     S
C888   H907    1.109   .     S
C888   H909    1.110   .     S
C888   H908    1.106   .     S
C889   C890    1.527   .     S
C889   H917    1.107   .     S
C889   H916    1.110   .     S
C889   C897    1.530   .     S
C890   H913    1.109   .     S
C890   H912    1.110   .     S
C890   H915    1.106   .     S
C891   H921    1.110   .     S
C891   H922    1.107   .     S
C891   C892    1.529   .     S
C891   C898    1.530   .     S
C892   H918    1.109   .     S
C892   H920    1.110   .     S
C892   H919    1.108   .     S
C893   C895    1.528   .     S
C893   C899    1.530   .     S
C893   H927    1.110   .     S
C893   H928    1.107   .     S
C894   H931    1.084   .     S
C894   C110    1.387   1_556 S
C895   H924    1.110   .     S
C895   H926    1.109   .     S
C895   H923    1.108   .     S
C897   C900    1.415   .     A
C897   C985    1.410   .     S
C898   C900    1.415   .     A
C898   C982    1.410   .     S
Cu901  Cu902   2.673   .     S
Cu901  O940    1.954   .     S
Cu901  O937    1.954   .     S
Cu901  O944    1.974   .     S
Cu901  N935    2.008   .     S
Cu901  O942    1.987   .     S
Cu902  O939    1.954   .     S
Cu902  O941    1.954   .     S
Cu902  O945    1.974   .     S
Cu902  O943    1.987   .     S
Cu902  N936    2.008   .     S
C947   O1023   1.286   .     A
C947   O1027   1.284   .     A
C947   C948    1.443   .     S
C948   C985    1.414   .     A
C948   C982    1.415   .     A
C949   N1022   1.366   .     A
C949   H1018   1.082   .     S
C949   C1468   1.415   1_545 S
C950   N1021   1.367   .     A
C950   H1019   1.080   .     S
C950   C1209   1.414   .     S
C951   H1020   1.081   .     S
C951   N1022   1.366   .     A
C951   C1466   1.414   1_545 S
C952   N1021   1.366   .     A
C952   H990    1.080   .     S
C952   C1207   1.415   .     S
C953   O1031   1.301   .     A
C953   C959    1.474   .     S
C953   O1028   1.289   .     A
C954   O1029   1.290   .     A
C954   O1030   1.300   .     A
C954   C957    1.475   .     S
C955   H989    1.085   .     S
C955   C966    1.386   .     A
C955   C957    1.400   .     A
C956   C967    1.386   .     A
C956   C959    1.399   .     A
C956   H1000   1.085   .     S
C957   C960    1.425   .     A
C958   O1025   1.284   .     A
C958   C986    1.443   .     S
C958   O1026   1.286   .     A
C959   C961    1.426   .     A
C960   C962    1.413   .     A
C960   C971    1.483   .     S
C961   C972    1.485   .     S
C961   C963    1.414   .     A
C962   C968    1.411   .     A
C962   C964    1.416   .     A
C963   C970    1.411   .     A
C963   C965    1.417   .     A
C964   C966    1.407   .     A
C964   C191    1.409   1_556 S
C965   C967    1.407   .     A
C966   C980    1.396   .     A
C967   C969    1.396   .     A
C968   H1011   1.081   .     S
C968   C195    1.387   1_556 S
C969   H1016   1.084   .     S
C970   H1015   1.081   .     S
C971   H991    1.084   .     S
C971   O1032   1.221   .     D
C972   O1024   1.221   .     D
C972   H992    1.085   .     S
C973   H996    1.110   .     S
C973   H997    1.107   .     S
C973   C982    1.530   .     S
C973   C974    1.527   .     S
C974   H993    1.109   .     S
C974   H995    1.110   .     S
C974   H994    1.106   .     S
C975   C976    1.527   .     S
C975   H1003   1.107   .     S
C975   H1002   1.110   .     S
C975   C983    1.530   .     S
C976   H999    1.109   .     S
C976   H998    1.110   .     S
C976   H1001   1.106   .     S
C977   H1007   1.110   .     S
C977   H1008   1.107   .     S
C977   C978    1.529   .     S
C977   C984    1.530   .     S
C978   H1004   1.109   .     S
C978   H1006   1.110   .     S
C978   H1005   1.108   .     S
C979   C981    1.528   .     S
C979   C985    1.530   .     S
C979   H1013   1.110   .     S
C979   H1014   1.107   .     S
C980   H1017   1.084   .     S
C980   C196    1.387   1_556 S
C981   H1010   1.110   .     S
C981   H1012   1.109   .     S
C981   H1009   1.108   .     S
C983   C986    1.415   .     A
C983   C813    1.410   1_655 S
C984   C986    1.415   .     A
C984   C810    1.410   1_655 S
Cu987  Cu988   2.673   .     S
Cu987  O1026   1.954   .     S
Cu987  O1023   1.954   .     S
Cu987  O1030   1.974   .     S
Cu987  N1021   2.008   .     S
Cu987  O1028   1.987   .     S
Cu988  O1025   1.954   .     S
Cu988  O1027   1.954   .     S
Cu988  O1031   1.974   .     S
Cu988  O1029   1.987   .     S
Cu988  N1022   2.008   .     S
C1033  O1109   1.286   .     A
C1033  O1113   1.284   .     A
C1033  C1034   1.443   .     S
C1034  C1071   1.414   .     A
C1034  C1068   1.415   .     A
C1035  N1108   1.366   .     A
C1035  H1104   1.082   .     S
C1036  N1107   1.367   .     A
C1036  H1105   1.080   .     S
C1036  C1295   1.414   .     S
C1037  H1106   1.081   .     S
C1037  N1108   1.366   .     A
C1038  N1107   1.366   .     A
C1038  H1076   1.080   .     S
C1038  C1293   1.415   .     S
C1039  O1117   1.301   .     A
C1039  C1045   1.474   .     S
C1039  O1114   1.289   .     A
C1040  O1115   1.290   .     A
C1040  O1116   1.300   .     A
C1040  C1043   1.475   .     S
C1041  H1075   1.085   .     S
C1041  C1052   1.386   .     A
C1041  C1043   1.400   .     A
C1042  C1053   1.386   .     A
C1042  C1045   1.399   .     A
C1042  H1086   1.085   .     S
C1043  C1046   1.425   .     A
C1044  O1111   1.284   .     A
C1044  C1072   1.443   .     S
C1044  O1112   1.286   .     A
C1045  C1047   1.426   .     A
C1046  C1048   1.413   .     A
C1046  C1057   1.483   .     S
C1047  C1058   1.485   .     S
C1047  C1049   1.414   .     A
C1048  C1054   1.411   .     A
C1048  C1050   1.416   .     A
C1049  C1056   1.411   .     A
C1049  C1051   1.417   .     A
C1050  C1052   1.407   .     A
C1050  C277    1.409   1_556 S
C1051  C1053   1.407   .     A
C1052  C1066   1.396   .     A
C1053  C1055   1.396   .     A
C1054  H1097   1.081   .     S
C1054  C281    1.387   1_556 S
C1055  H1102   1.084   .     S
C1056  H1101   1.081   .     S
C1057  H1077   1.084   .     S
C1057  O1118   1.221   .     D
C1058  O1110   1.221   .     D
C1058  H1078   1.085   .     S
C1059  H1082   1.110   .     S
C1059  H1083   1.107   .     S
C1059  C1068   1.530   .     S
C1059  C1060   1.527   .     S
C1060  H1079   1.109   .     S
C1060  H1081   1.110   .     S
C1060  H1080   1.106   .     S
C1061  C1062   1.527   .     S
C1061  H1089   1.107   .     S
C1061  H1088   1.110   .     S
C1061  C1069   1.530   .     S
C1062  H1085   1.109   .     S
C1062  H1084   1.110   .     S
C1062  H1087   1.106   .     S
C1063  H1093   1.110   .     S
C1063  H1094   1.107   .     S
C1063  C1064   1.529   .     S
C1063  C1070   1.530   .     S
C1064  H1090   1.109   .     S
C1064  H1092   1.110   .     S
C1064  H1091   1.108   .     S
C1065  C1067   1.528   .     S
C1065  C1071   1.530   .     S
C1065  H1099   1.110   .     S
C1065  H1100   1.107   .     S
C1066  H1103   1.084   .     S
C1066  C282    1.387   1_556 S
C1067  H1096   1.110   .     S
C1067  H1098   1.109   .     S
C1067  H1095   1.108   .     S
C1068  C1242   1.410   1_455 S
C1069  C1072   1.415   .     A
C1069  C1157   1.410   .     S
C1070  C1072   1.415   .     A
C1070  C1154   1.410   .     S
C1071  C1241   1.410   1_455 S
Cu1073 Cu1074  2.673   .     S
Cu1073 O1112   1.954   .     S
Cu1073 O1109   1.954   .     S
Cu1073 O1116   1.974   .     S
Cu1073 N1107   2.008   .     S
Cu1073 O1114   1.987   .     S
Cu1074 O1111   1.954   .     S
Cu1074 O1113   1.954   .     S
Cu1074 O1117   1.974   .     S
Cu1074 O1115   1.987   .     S
Cu1074 N1108   2.008   .     S
C1119  O1195   1.286   .     A
C1119  O1199   1.284   .     A
C1119  C1120   1.443   .     S
C1120  C1157   1.414   .     A
C1120  C1154   1.415   .     A
C1121  N1194   1.366   .     A
C1121  H1190   1.082   .     S
C1122  N1193   1.367   .     A
C1122  H1191   1.080   .     S
C1122  C1381   1.414   .     S
C1123  H1192   1.081   .     S
C1123  N1194   1.366   .     A
C1124  N1193   1.366   .     A
C1124  H1162   1.080   .     S
C1124  C1379   1.415   .     S
C1125  O1203   1.301   .     A
C1125  C1131   1.474   .     S
C1125  O1200   1.289   .     A
C1126  O1201   1.290   .     A
C1126  O1202   1.300   .     A
C1126  C1129   1.475   .     S
C1127  H1161   1.085   .     S
C1127  C1138   1.386   .     A
C1127  C1129   1.400   .     A
C1128  C1139   1.386   .     A
C1128  C1131   1.399   .     A
C1128  H1172   1.085   .     S
C1129  C1132   1.425   .     A
C1130  O1197   1.284   .     A
C1130  C1158   1.443   .     S
C1130  O1198   1.286   .     A
C1131  C1133   1.426   .     A
C1132  C1134   1.413   .     A
C1132  C1143   1.483   .     S
C1133  C1144   1.485   .     S
C1133  C1135   1.414   .     A
C1134  C1140   1.411   .     A
C1134  C1136   1.416   .     A
C1135  C1142   1.411   .     A
C1135  C1137   1.417   .     A
C1136  C1138   1.407   .     A
C1136  C363    1.409   1_556 S
C1137  C1139   1.407   .     A
C1138  C1152   1.396   .     A
C1139  C1141   1.396   .     A
C1140  H1183   1.081   .     S
C1140  C367    1.387   1_556 S
C1141  H1188   1.084   .     S
C1142  H1187   1.081   .     S
C1143  H1163   1.084   .     S
C1143  O1204   1.221   .     D
C1144  O1196   1.221   .     D
C1144  H1164   1.085   .     S
C1145  H1168   1.110   .     S
C1145  H1169   1.107   .     S
C1145  C1154   1.530   .     S
C1145  C1146   1.527   .     S
C1146  H1165   1.109   .     S
C1146  H1167   1.110   .     S
C1146  H1166   1.106   .     S
C1147  C1148   1.527   .     S
C1147  H1175   1.107   .     S
C1147  H1174   1.110   .     S
C1147  C1155   1.530   .     S
C1148  H1171   1.109   .     S
C1148  H1170   1.110   .     S
C1148  H1173   1.106   .     S
C1149  H1179   1.110   .     S
C1149  H1180   1.107   .     S
C1149  C1150   1.529   .     S
C1149  C1156   1.530   .     S
C1150  H1176   1.109   .     S
C1150  H1178   1.110   .     S
C1150  H1177   1.108   .     S
C1151  C1153   1.528   .     S
C1151  C1157   1.530   .     S
C1151  H1185   1.110   .     S
C1151  H1186   1.107   .     S
C1152  H1189   1.084   .     S
C1152  C368    1.387   1_556 S
C1153  H1182   1.110   .     S
C1153  H1184   1.109   .     S
C1153  H1181   1.108   .     S
C1155  C1158   1.415   .     A
C1155  C1243   1.410   .     S
C1156  C1158   1.415   .     A
C1156  C1240   1.410   .     S
Cu1159 Cu1160  2.673   .     S
Cu1159 O1198   1.954   .     S
Cu1159 O1195   1.954   .     S
Cu1159 O1202   1.974   .     S
Cu1159 N1193   2.008   .     S
Cu1159 O1200   1.987   .     S
Cu1160 O1197   1.954   .     S
Cu1160 O1199   1.954   .     S
Cu1160 O1203   1.974   .     S
Cu1160 O1201   1.987   .     S
Cu1160 N1194   2.008   .     S
C1205  O1281   1.286   .     A
C1205  O1285   1.284   .     A
C1205  C1206   1.443   .     S
C1206  C1243   1.414   .     A
C1206  C1240   1.415   .     A
C1207  N1280   1.366   .     A
C1207  H1276   1.082   .     S
C1208  N1279   1.367   .     A
C1208  H1277   1.080   .     S
C1208  C1467   1.414   .     S
C1209  H1278   1.081   .     S
C1209  N1280   1.366   .     A
C1210  N1279   1.366   .     A
C1210  H1248   1.080   .     S
C1210  C1465   1.415   .     S
C1211  O1289   1.301   .     A
C1211  C1217   1.474   .     S
C1211  O1286   1.289   .     A
C1212  O1287   1.290   .     A
C1212  O1288   1.300   .     A
C1212  C1215   1.475   .     S
C1213  H1247   1.085   .     S
C1213  C1224   1.386   .     A
C1213  C1215   1.400   .     A
C1214  C1225   1.386   .     A
C1214  C1217   1.399   .     A
C1214  H1258   1.085   .     S
C1215  C1218   1.425   .     A
C1216  O1283   1.284   .     A
C1216  C1244   1.443   .     S
C1216  O1284   1.286   .     A
C1217  C1219   1.426   .     A
C1218  C1220   1.413   .     A
C1218  C1229   1.483   .     S
C1219  C1230   1.485   .     S
C1219  C1221   1.414   .     A
C1220  C1226   1.411   .     A
C1220  C1222   1.416   .     A
C1221  C1228   1.411   .     A
C1221  C1223   1.417   .     A
C1222  C1224   1.407   .     A
C1222  C449    1.409   1_556 S
C1223  C1225   1.407   .     A
C1224  C1238   1.396   .     A
C1225  C1227   1.396   .     A
C1226  H1269   1.081   .     S
C1226  C453    1.387   1_556 S
C1227  H1274   1.084   .     S
C1228  H1273   1.081   .     S
C1229  H1249   1.084   .     S
C1229  O1290   1.221   .     D
C1230  O1282   1.221   .     D
C1230  H1250   1.085   .     S
C1231  H1254   1.110   .     S
C1231  H1255   1.107   .     S
C1231  C1240   1.530   .     S
C1231  C1232   1.527   .     S
C1232  H1251   1.109   .     S
C1232  H1253   1.110   .     S
C1232  H1252   1.106   .     S
C1233  C1234   1.527   .     S
C1233  H1261   1.107   .     S
C1233  H1260   1.110   .     S
C1233  C1241   1.530   .     S
C1234  H1257   1.109   .     S
C1234  H1256   1.110   .     S
C1234  H1259   1.106   .     S
C1235  H1265   1.110   .     S
C1235  H1266   1.107   .     S
C1235  C1236   1.529   .     S
C1235  C1242   1.530   .     S
C1236  H1262   1.109   .     S
C1236  H1264   1.110   .     S
C1236  H1263   1.108   .     S
C1237  C1239   1.528   .     S
C1237  C1243   1.530   .     S
C1237  H1271   1.110   .     S
C1237  H1272   1.107   .     S
C1238  H1275   1.084   .     S
C1238  C454    1.387   1_556 S
C1239  H1268   1.110   .     S
C1239  H1270   1.109   .     S
C1239  H1267   1.108   .     S
C1241  C1244   1.415   .     A
C1241  C1071   1.410   1_655 S
C1242  C1244   1.415   .     A
C1242  C1068   1.410   1_655 S
Cu1245 Cu1246  2.673   .     S
Cu1245 O1284   1.954   .     S
Cu1245 O1281   1.954   .     S
Cu1245 O1288   1.974   .     S
Cu1245 N1279   2.008   .     S
Cu1245 O1286   1.987   .     S
Cu1246 O1283   1.954   .     S
Cu1246 O1285   1.954   .     S
Cu1246 O1289   1.974   .     S
Cu1246 O1287   1.987   .     S
Cu1246 N1280   2.008   .     S
C1291  O1367   1.286   .     A
C1291  O1371   1.284   .     A
C1291  C1292   1.443   .     S
C1292  C1329   1.414   .     A
C1292  C1326   1.415   .     A
C1293  N1366   1.366   .     A
C1293  H1362   1.082   .     S
C1294  N1365   1.367   .     A
C1294  H1363   1.080   .     S
C1294  C779    1.414   1_565 S
C1295  H1364   1.081   .     S
C1295  N1366   1.366   .     A
C1296  N1365   1.366   .     A
C1296  H1334   1.080   .     S
C1296  C777    1.415   1_565 S
C1297  O1375   1.301   .     A
C1297  C1303   1.474   .     S
C1297  O1372   1.289   .     A
C1298  O1373   1.290   .     A
C1298  O1374   1.300   .     A
C1298  C1301   1.475   .     S
C1299  H1333   1.085   .     S
C1299  C1310   1.386   .     A
C1299  C1301   1.400   .     A
C1300  C1311   1.386   .     A
C1300  C1303   1.399   .     A
C1300  H1344   1.085   .     S
C1301  C1304   1.425   .     A
C1302  O1369   1.284   .     A
C1302  C1330   1.443   .     S
C1302  O1370   1.286   .     A
C1303  C1305   1.426   .     A
C1304  C1306   1.413   .     A
C1304  C1315   1.483   .     S
C1305  C1316   1.485   .     S
C1305  C1307   1.414   .     A
C1306  C1312   1.411   .     A
C1306  C1308   1.416   .     A
C1307  C1314   1.411   .     A
C1307  C1309   1.417   .     A
C1308  C1310   1.407   .     A
C1308  C535    1.409   1_556 S
C1309  C1311   1.407   .     A
C1310  C1324   1.396   .     A
C1311  C1313   1.396   .     A
C1312  H1355   1.081   .     S
C1312  C539    1.387   1_556 S
C1313  H1360   1.084   .     S
C1314  H1359   1.081   .     S
C1315  H1335   1.084   .     S
C1315  O1376   1.221   .     D
C1316  O1368   1.221   .     D
C1316  H1336   1.085   .     S
C1317  H1340   1.110   .     S
C1317  H1341   1.107   .     S
C1317  C1326   1.530   .     S
C1317  C1318   1.527   .     S
C1318  H1337   1.109   .     S
C1318  H1339   1.110   .     S
C1318  H1338   1.106   .     S
C1319  C1320   1.527   .     S
C1319  H1347   1.107   .     S
C1319  H1346   1.110   .     S
C1319  C1327   1.530   .     S
C1320  H1343   1.109   .     S
C1320  H1342   1.110   .     S
C1320  H1345   1.106   .     S
C1321  H1351   1.110   .     S
C1321  H1352   1.107   .     S
C1321  C1322   1.529   .     S
C1321  C1328   1.530   .     S
C1322  H1348   1.109   .     S
C1322  H1350   1.110   .     S
C1322  H1349   1.108   .     S
C1323  C1325   1.528   .     S
C1323  C1329   1.530   .     S
C1323  H1357   1.110   .     S
C1323  H1358   1.107   .     S
C1324  H1361   1.084   .     S
C1324  C540    1.387   1_556 S
C1325  H1354   1.110   .     S
C1325  H1356   1.109   .     S
C1325  H1353   1.108   .     S
C1326  C1500   1.410   1_455 S
C1327  C1330   1.415   .     A
C1327  C1415   1.410   .     S
C1328  C1330   1.415   .     A
C1328  C1412   1.410   .     S
C1329  C1499   1.410   1_455 S
Cu1331 Cu1332  2.673   .     S
Cu1331 O1370   1.954   .     S
Cu1331 O1367   1.954   .     S
Cu1331 O1374   1.974   .     S
Cu1331 N1365   2.008   .     S
Cu1331 O1372   1.987   .     S
Cu1332 O1369   1.954   .     S
Cu1332 O1371   1.954   .     S
Cu1332 O1375   1.974   .     S
Cu1332 O1373   1.987   .     S
Cu1332 N1366   2.008   .     S
C1377  O1453   1.286   .     A
C1377  O1457   1.284   .     A
C1377  C1378   1.443   .     S
C1378  C1415   1.414   .     A
C1378  C1412   1.415   .     A
C1379  N1452   1.366   .     A
C1379  H1448   1.082   .     S
C1380  N1451   1.367   .     A
C1380  H1449   1.080   .     S
C1380  C865    1.414   1_565 S
C1381  H1450   1.081   .     S
C1381  N1452   1.366   .     A
C1382  N1451   1.366   .     A
C1382  H1420   1.080   .     S
C1382  C863    1.415   1_565 S
C1383  O1461   1.301   .     A
C1383  C1389   1.474   .     S
C1383  O1458   1.289   .     A
C1384  O1459   1.290   .     A
C1384  O1460   1.300   .     A
C1384  C1387   1.475   .     S
C1385  H1419   1.085   .     S
C1385  C1396   1.386   .     A
C1385  C1387   1.400   .     A
C1386  C1397   1.386   .     A
C1386  C1389   1.399   .     A
C1386  H1430   1.085   .     S
C1387  C1390   1.425   .     A
C1388  O1455   1.284   .     A
C1388  C1416   1.443   .     S
C1388  O1456   1.286   .     A
C1389  C1391   1.426   .     A
C1390  C1392   1.413   .     A
C1390  C1401   1.483   .     S
C1391  C1402   1.485   .     S
C1391  C1393   1.414   .     A
C1392  C1398   1.411   .     A
C1392  C1394   1.416   .     A
C1393  C1400   1.411   .     A
C1393  C1395   1.417   .     A
C1394  C1396   1.407   .     A
C1394  C621    1.409   1_556 S
C1395  C1397   1.407   .     A
C1396  C1410   1.396   .     A
C1397  C1399   1.396   .     A
C1398  H1441   1.081   .     S
C1398  C625    1.387   1_556 S
C1399  H1446   1.084   .     S
C1400  H1445   1.081   .     S
C1401  H1421   1.084   .     S
C1401  O1462   1.221   .     D
C1402  O1454   1.221   .     D
C1402  H1422   1.085   .     S
C1403  H1426   1.110   .     S
C1403  H1427   1.107   .     S
C1403  C1412   1.530   .     S
C1403  C1404   1.527   .     S
C1404  H1423   1.109   .     S
C1404  H1425   1.110   .     S
C1404  H1424   1.106   .     S
C1405  C1406   1.527   .     S
C1405  H1433   1.107   .     S
C1405  H1432   1.110   .     S
C1405  C1413   1.530   .     S
C1406  H1429   1.109   .     S
C1406  H1428   1.110   .     S
C1406  H1431   1.106   .     S
C1407  H1437   1.110   .     S
C1407  H1438   1.107   .     S
C1407  C1408   1.529   .     S
C1407  C1414   1.530   .     S
C1408  H1434   1.109   .     S
C1408  H1436   1.110   .     S
C1408  H1435   1.108   .     S
C1409  C1411   1.528   .     S
C1409  C1415   1.530   .     S
C1409  H1443   1.110   .     S
C1409  H1444   1.107   .     S
C1410  H1447   1.084   .     S
C1410  C626    1.387   1_556 S
C1411  H1440   1.110   .     S
C1411  H1442   1.109   .     S
C1411  H1439   1.108   .     S
C1413  C1416   1.415   .     A
C1413  C1501   1.410   .     S
C1414  C1416   1.415   .     A
C1414  C1498   1.410   .     S
Cu1417 Cu1418  2.673   .     S
Cu1417 O1456   1.954   .     S
Cu1417 O1453   1.954   .     S
Cu1417 O1460   1.974   .     S
Cu1417 N1451   2.008   .     S
Cu1417 O1458   1.987   .     S
Cu1418 O1455   1.954   .     S
Cu1418 O1457   1.954   .     S
Cu1418 O1461   1.974   .     S
Cu1418 O1459   1.987   .     S
Cu1418 N1452   2.008   .     S
C1463  O1539   1.286   .     A
C1463  O1543   1.284   .     A
C1463  C1464   1.443   .     S
C1464  C1501   1.414   .     A
C1464  C1498   1.415   .     A
C1465  N1538   1.366   .     A
C1465  H1534   1.082   .     S
C1466  N1537   1.367   .     A
C1466  H1535   1.080   .     S
C1466  C951    1.414   1_565 S
C1467  H1536   1.081   .     S
C1467  N1538   1.366   .     A
C1468  N1537   1.366   .     A
C1468  H1506   1.080   .     S
C1468  C949    1.415   1_565 S
C1469  O1547   1.301   .     A
C1469  C1475   1.474   .     S
C1469  O1544   1.289   .     A
C1470  O1545   1.290   .     A
C1470  O1546   1.300   .     A
C1470  C1473   1.475   .     S
C1471  H1505   1.085   .     S
C1471  C1482   1.386   .     A
C1471  C1473   1.400   .     A
C1472  C1483   1.386   .     A
C1472  C1475   1.399   .     A
C1472  H1516   1.085   .     S
C1473  C1476   1.425   .     A
C1474  O1541   1.284   .     A
C1474  C1502   1.443   .     S
C1474  O1542   1.286   .     A
C1475  C1477   1.426   .     A
C1476  C1478   1.413   .     A
C1476  C1487   1.483   .     S
C1477  C1488   1.485   .     S
C1477  C1479   1.414   .     A
C1478  C1484   1.411   .     A
C1478  C1480   1.416   .     A
C1479  C1486   1.411   .     A
C1479  C1481   1.417   .     A
C1480  C1482   1.407   .     A
C1480  C707    1.409   1_556 S
C1481  C1483   1.407   .     A
C1482  C1496   1.396   .     A
C1483  C1485   1.396   .     A
C1484  H1527   1.081   .     S
C1484  C711    1.387   1_556 S
C1485  H1532   1.084   .     S
C1486  H1531   1.081   .     S
C1487  H1507   1.084   .     S
C1487  O1548   1.221   .     D
C1488  O1540   1.221   .     D
C1488  H1508   1.085   .     S
C1489  H1512   1.110   .     S
C1489  H1513   1.107   .     S
C1489  C1498   1.530   .     S
C1489  C1490   1.527   .     S
C1490  H1509   1.109   .     S
C1490  H1511   1.110   .     S
C1490  H1510   1.106   .     S
C1491  C1492   1.527   .     S
C1491  H1519   1.107   .     S
C1491  H1518   1.110   .     S
C1491  C1499   1.530   .     S
C1492  H1515   1.109   .     S
C1492  H1514   1.110   .     S
C1492  H1517   1.106   .     S
C1493  H1523   1.110   .     S
C1493  H1524   1.107   .     S
C1493  C1494   1.529   .     S
C1493  C1500   1.530   .     S
C1494  H1520   1.109   .     S
C1494  H1522   1.110   .     S
C1494  H1521   1.108   .     S
C1495  C1497   1.528   .     S
C1495  C1501   1.530   .     S
C1495  H1529   1.110   .     S
C1495  H1530   1.107   .     S
C1496  H1533   1.084   .     S
C1496  C712    1.387   1_556 S
C1497  H1526   1.110   .     S
C1497  H1528   1.109   .     S
C1497  H1525   1.108   .     S
C1499  C1502   1.415   .     A
C1499  C1329   1.410   1_655 S
C1500  C1502   1.415   .     A
C1500  C1326   1.410   1_655 S
Cu1503 Cu1504  2.673   .     S
Cu1503 O1542   1.954   .     S
Cu1503 O1539   1.954   .     S
Cu1503 O1546   1.974   .     S
Cu1503 N1537   2.008   .     S
Cu1503 O1544   1.987   .     S
Cu1504 O1541   1.954   .     S
Cu1504 O1543   1.954   .     S
Cu1504 O1547   1.974   .     S
Cu1504 O1545   1.987   .     S
Cu1504 N1538   2.008   .     S
