data_str_m2_o1_o16_pcu_sym.133
_audit_creation_date              2020-01-03
_audit_creation_method            'Materials Studio'
_symmetry_space_group_name_H-M    'P1'
_symmetry_Int_Tables_number       1
_symmetry_cell_setting            triclinic
loop_
_symmetry_equiv_pos_as_xyz
  x,y,z
_cell_length_a                    28.5617
_cell_length_b                    32.4477
_cell_length_c                    26.8346
_cell_angle_alpha                 90.7970
_cell_angle_beta                  73.4497
_cell_angle_gamma                 89.2808
loop_
_atom_site_label
_atom_site_type_symbol
_atom_site_fract_x
_atom_site_fract_y
_atom_site_fract_z
_atom_site_U_iso_or_equiv
_atom_site_adp_type
_atom_site_occupancy
O1     O     0.12708   0.22678   0.25001   0.00000  Uiso   1.00
O2     O     0.20627   0.22679   0.25001   0.00000  Uiso   1.00
C3     C     0.16671   0.24590   0.24887   0.00000  Uiso   1.00
O4     O     0.10775   0.16665   0.32549   0.00000  Uiso   1.00
O5     O     0.18694   0.16666   0.32549   0.00000  Uiso   1.00
C6     C     0.14080   0.16670   0.34996   0.00000  Uiso   1.00
Cu7    Cu    0.11978   0.16666   0.25000   0.00000  Uiso   1.00
Cu8    Cu    0.21355   0.16667   0.25000   0.00000  Uiso   1.00
O9     O     0.12706   0.10654   0.25000   0.00000  Uiso   1.00
O10    O     0.20625   0.10655   0.25000   0.00000  Uiso   1.00
O11    O     0.14640   0.16667   0.17451   0.00000  Uiso   1.00
O12    O     0.22559   0.16668   0.17451   0.00000  Uiso   1.00
C13    C     0.16708   0.08740   0.24950   0.00000  Uiso   1.00
C14    C     0.19232   0.16893   0.15004   0.00000  Uiso   1.00
C15    C     0.26103   0.19975   0.01312   0.00000  Uiso   1.00
H16    H     0.25860   0.23442   0.42235   0.00000  Uiso   1.00
H17    H     0.29693   0.21021   0.49178   0.00000  Uiso   1.00
C18    C     0.20502   0.17620   0.09361   0.00000  Uiso   1.00
C19    C     0.09236   0.13084   0.42782   0.00000  Uiso   1.00
C20    C     0.08733   0.11737   0.47824   0.00000  Uiso   1.00
C21    C     0.11570   0.13389   0.00750   0.00000  Uiso   1.00
C22    C     0.14776   0.16626   0.48841   0.00000  Uiso   1.00
C23    C     0.15404   0.18004   0.43723   0.00000  Uiso   1.00
C24    C     0.17825   0.18185   0.01694   0.00000  Uiso   1.00
C25    C     0.22295   0.19916   0.48987   0.00000  Uiso   1.00
C26    C     0.22752   0.21574   0.44099   0.00000  Uiso   1.00
C27    C     0.18959   0.21076   0.41801   0.00000  Uiso   1.00
C28    C     0.16617   0.18123   0.07138   0.00000  Uiso   1.00
C29    C     0.25333   0.18380   0.06319   0.00000  Uiso   1.00
C30    C     0.12648   0.16166   0.40654   0.00000  Uiso   1.00
H31    H     0.06280   0.09258   0.49400   0.00000  Uiso   1.00
C32    C     0.19754   0.31132   0.27115   0.00000  Uiso   1.00
C33    C     0.19822   0.02107   0.27253   0.00000  Uiso   1.00
C34    C     0.16825   0.04269   0.24780   0.00000  Uiso   1.00
C35    C     0.13980   0.02172   0.22067   0.00000  Uiso   1.00
C36    C     0.13695   0.31215   0.22296   0.00000  Uiso   1.00
C37    C     0.16688   0.29050   0.24739   0.00000  Uiso   1.00
C38    C     0.30010   0.19409   0.28034   0.00000  Uiso   1.00
C39    C     0.01624   0.19391   0.28053   0.00000  Uiso   1.00
N40    N     0.04931   0.16666   0.24999   0.00000  Uiso   1.00
C41    C     0.03348   0.13908   0.21985   0.00000  Uiso   1.00
C42    C     0.31654   0.13841   0.21996   0.00000  Uiso   1.00
N43    N     0.28402   0.16669   0.25000   0.00000  Uiso   1.00
O44    O     0.29243   0.17908   0.08323   0.00000  Uiso   1.00
C45    C     0.31086   0.13857   0.07087   0.00000  Uiso   1.00
H46    H     0.28363   0.11542   0.09060   0.00000  Uiso   1.00
H47    H     0.01027   0.13441   0.08468   0.00000  Uiso   1.00
H48    H     0.32201   0.13264   0.02812   0.00000  Uiso   1.00
O49    O     0.22332   0.04335   0.30146   0.00000  Uiso   1.00
C50    C     0.26666   0.02342   0.30440   0.00000  Uiso   1.00
H51    H     0.29079   0.04688   0.31406   0.00000  Uiso   1.00
H52    H     0.28724   0.00847   0.26683   0.00000  Uiso   1.00
H53    H     0.25833   0.00073   0.33623   0.00000  Uiso   1.00
O54    O     0.11335   0.04313   0.19318   0.00000  Uiso   1.00
C55    C     0.14348   0.04871   0.14215   0.00000  Uiso   1.00
H56    H     0.17625   0.06703   0.14187   0.00000  Uiso   1.00
H57    H     0.12244   0.06620   0.12025   0.00000  Uiso   1.00
H58    H     0.15467   0.01860   0.12154   0.00000  Uiso   1.00
O59    O     0.10912   0.29110   0.19661   0.00000  Uiso   1.00
C60    C     0.05938   0.29472   0.22522   0.00000  Uiso   1.00
H61    H     0.05323   0.28697   0.26689   0.00000  Uiso   1.00
H62    H     0.03831   0.27262   0.20858   0.00000  Uiso   1.00
H63    H     0.04464   0.32608   0.22206   0.00000  Uiso   1.00
H64    H     0.27472   0.21621   0.30456   0.00000  Uiso   1.00
H65    H     0.02804   0.21574   0.30511   0.00000  Uiso   1.00
H66    H     0.06017   0.11806   0.19547   0.00000  Uiso   1.00
O67    O     0.29920   0.11173   0.18846   0.00000  Uiso   1.00
C68    C     0.32544   0.07394   0.17767   0.00000  Uiso   1.00
H69    H     0.00100   0.06158   0.21240   0.00000  Uiso   1.00
H70    H     0.02573   0.07731   0.14484   0.00000  Uiso   1.00
H71    H     0.30232   0.05094   0.16540   0.00000  Uiso   1.00
O72    O     0.12813   0.20709   0.09931   0.00000  Uiso   1.00
C73    C     0.08203   0.18989   0.10507   0.00000  Uiso   1.00
H74    H     0.05520   0.20646   0.13751   0.00000  Uiso   1.00
H75    H     0.08109   0.15696   0.11582   0.00000  Uiso   1.00
H76    H     0.06999   0.19490   0.06978   0.00000  Uiso   1.00
O77    O     0.06507   0.11288   0.39840   0.00000  Uiso   1.00
C78    C     0.08407   0.07297   0.38214   0.00000  Uiso   1.00
H79    H     0.07492   0.05132   0.41512   0.00000  Uiso   1.00
H80    H     0.12431   0.07308   0.36378   0.00000  Uiso   1.00
H81    H     0.06704   0.06132   0.35246   0.00000  Uiso   1.00
H82    H     0.11404   0.11984   0.04422   0.00000  Uiso   1.00
O83    O     0.18767   0.23622   0.37774   0.00000  Uiso   1.00
C84    C     0.14914   0.26511   0.39721   0.00000  Uiso   1.00
H85    H     0.15548   0.28428   0.42934   0.00000  Uiso   1.00
H86    H     0.11311   0.24987   0.41036   0.00000  Uiso   1.00
H87    H     0.14714   0.28618   0.36586   0.00000  Uiso   1.00
H88    H     0.21906   0.29359   0.29077   0.00000  Uiso   1.00
O89    O     0.46042   0.22678   0.25001   0.00000  Uiso   1.00
O90    O     0.53961   0.22679   0.25001   0.00000  Uiso   1.00
C91    C     0.50004   0.24590   0.24887   0.00000  Uiso   1.00
O92    O     0.44108   0.16665   0.32549   0.00000  Uiso   1.00
O93    O     0.52027   0.16666   0.32549   0.00000  Uiso   1.00
C94    C     0.47414   0.16670   0.34996   0.00000  Uiso   1.00
Cu95   Cu    0.45311   0.16666   0.25000   0.00000  Uiso   1.00
Cu96   Cu    0.54689   0.16667   0.25000   0.00000  Uiso   1.00
O97    O     0.46039   0.10654   0.25000   0.00000  Uiso   1.00
O98    O     0.53958   0.10655   0.25000   0.00000  Uiso   1.00
O99    O     0.47973   0.16667   0.17451   0.00000  Uiso   1.00
O100   O     0.55892   0.16668   0.17451   0.00000  Uiso   1.00
C101   C     0.50042   0.08740   0.24950   0.00000  Uiso   1.00
C102   C     0.52565   0.16893   0.15004   0.00000  Uiso   1.00
C103   C     0.59436   0.19975   0.01312   0.00000  Uiso   1.00
H104   H     0.59193   0.23442   0.42235   0.00000  Uiso   1.00
H105   H     0.63027   0.21021   0.49178   0.00000  Uiso   1.00
C106   C     0.53835   0.17620   0.09361   0.00000  Uiso   1.00
C107   C     0.42569   0.13084   0.42782   0.00000  Uiso   1.00
C108   C     0.42067   0.11737   0.47824   0.00000  Uiso   1.00
C109   C     0.44903   0.13389   0.00750   0.00000  Uiso   1.00
C110   C     0.48109   0.16626   0.48841   0.00000  Uiso   1.00
C111   C     0.48737   0.18004   0.43723   0.00000  Uiso   1.00
C112   C     0.51159   0.18185   0.01694   0.00000  Uiso   1.00
C113   C     0.55628   0.19916   0.48987   0.00000  Uiso   1.00
C114   C     0.56085   0.21574   0.44099   0.00000  Uiso   1.00
C115   C     0.52293   0.21076   0.41801   0.00000  Uiso   1.00
C116   C     0.49950   0.18123   0.07138   0.00000  Uiso   1.00
C117   C     0.58667   0.18380   0.06319   0.00000  Uiso   1.00
C118   C     0.45982   0.16166   0.40654   0.00000  Uiso   1.00
H119   H     0.39614   0.09258   0.49400   0.00000  Uiso   1.00
C120   C     0.53087   0.31132   0.27115   0.00000  Uiso   1.00
C121   C     0.53155   0.02107   0.27253   0.00000  Uiso   1.00
C122   C     0.50159   0.04269   0.24780   0.00000  Uiso   1.00
C123   C     0.47313   0.02172   0.22067   0.00000  Uiso   1.00
C124   C     0.47029   0.31215   0.22296   0.00000  Uiso   1.00
C125   C     0.50021   0.29050   0.24739   0.00000  Uiso   1.00
C126   C     0.63343   0.19409   0.28034   0.00000  Uiso   1.00
C127   C     0.34958   0.19391   0.28053   0.00000  Uiso   1.00
N128   N     0.38265   0.16666   0.24999   0.00000  Uiso   1.00
C129   C     0.36681   0.13908   0.21985   0.00000  Uiso   1.00
C130   C     0.64988   0.13841   0.21996   0.00000  Uiso   1.00
N131   N     0.61735   0.16669   0.25000   0.00000  Uiso   1.00
O132   O     0.62576   0.17908   0.08323   0.00000  Uiso   1.00
C133   C     0.64420   0.13857   0.07087   0.00000  Uiso   1.00
H134   H     0.61696   0.11542   0.09060   0.00000  Uiso   1.00
H135   H     0.34360   0.13441   0.08468   0.00000  Uiso   1.00
H136   H     0.65534   0.13264   0.02812   0.00000  Uiso   1.00
O137   O     0.55665   0.04335   0.30146   0.00000  Uiso   1.00
C138   C     0.59999   0.02342   0.30440   0.00000  Uiso   1.00
H139   H     0.62412   0.04688   0.31406   0.00000  Uiso   1.00
H140   H     0.62057   0.00847   0.26683   0.00000  Uiso   1.00
H141   H     0.59166   0.00073   0.33623   0.00000  Uiso   1.00
O142   O     0.44668   0.04313   0.19318   0.00000  Uiso   1.00
C143   C     0.47682   0.04871   0.14215   0.00000  Uiso   1.00
H144   H     0.50959   0.06703   0.14187   0.00000  Uiso   1.00
H145   H     0.45578   0.06620   0.12025   0.00000  Uiso   1.00
H146   H     0.48801   0.01860   0.12154   0.00000  Uiso   1.00
O147   O     0.44245   0.29110   0.19661   0.00000  Uiso   1.00
C148   C     0.39271   0.29472   0.22522   0.00000  Uiso   1.00
H149   H     0.38656   0.28697   0.26689   0.00000  Uiso   1.00
H150   H     0.37164   0.27262   0.20858   0.00000  Uiso   1.00
H151   H     0.37798   0.32608   0.22206   0.00000  Uiso   1.00
H152   H     0.60806   0.21621   0.30456   0.00000  Uiso   1.00
H153   H     0.36138   0.21574   0.30511   0.00000  Uiso   1.00
H154   H     0.39350   0.11806   0.19547   0.00000  Uiso   1.00
O155   O     0.63253   0.11173   0.18846   0.00000  Uiso   1.00
C156   C     0.65877   0.07394   0.17767   0.00000  Uiso   1.00
H157   H     0.33434   0.06158   0.21240   0.00000  Uiso   1.00
H158   H     0.35906   0.07731   0.14484   0.00000  Uiso   1.00
H159   H     0.63565   0.05094   0.16540   0.00000  Uiso   1.00
O160   O     0.46147   0.20709   0.09931   0.00000  Uiso   1.00
C161   C     0.41536   0.18989   0.10507   0.00000  Uiso   1.00
H162   H     0.38853   0.20646   0.13751   0.00000  Uiso   1.00
H163   H     0.41442   0.15696   0.11582   0.00000  Uiso   1.00
H164   H     0.40333   0.19490   0.06978   0.00000  Uiso   1.00
O165   O     0.39841   0.11288   0.39840   0.00000  Uiso   1.00
C166   C     0.41741   0.07297   0.38214   0.00000  Uiso   1.00
H167   H     0.40826   0.05132   0.41512   0.00000  Uiso   1.00
H168   H     0.45764   0.07308   0.36378   0.00000  Uiso   1.00
H169   H     0.40037   0.06132   0.35246   0.00000  Uiso   1.00
H170   H     0.44737   0.11984   0.04422   0.00000  Uiso   1.00
O171   O     0.52101   0.23622   0.37774   0.00000  Uiso   1.00
C172   C     0.48247   0.26511   0.39721   0.00000  Uiso   1.00
H173   H     0.48881   0.28428   0.42934   0.00000  Uiso   1.00
H174   H     0.44645   0.24987   0.41036   0.00000  Uiso   1.00
H175   H     0.48048   0.28618   0.36586   0.00000  Uiso   1.00
H176   H     0.55239   0.29359   0.29077   0.00000  Uiso   1.00
O177   O     0.79375   0.22678   0.25001   0.00000  Uiso   1.00
O178   O     0.87294   0.22679   0.25001   0.00000  Uiso   1.00
C179   C     0.83338   0.24590   0.24887   0.00000  Uiso   1.00
O180   O     0.77441   0.16665   0.32549   0.00000  Uiso   1.00
O181   O     0.85360   0.16666   0.32549   0.00000  Uiso   1.00
C182   C     0.80747   0.16670   0.34996   0.00000  Uiso   1.00
Cu183  Cu    0.78645   0.16666   0.25000   0.00000  Uiso   1.00
Cu184  Cu    0.88022   0.16667   0.25000   0.00000  Uiso   1.00
O185   O     0.79373   0.10654   0.25000   0.00000  Uiso   1.00
O186   O     0.87292   0.10655   0.25000   0.00000  Uiso   1.00
O187   O     0.81306   0.16667   0.17451   0.00000  Uiso   1.00
O188   O     0.89225   0.16668   0.17451   0.00000  Uiso   1.00
C189   C     0.83375   0.08740   0.24950   0.00000  Uiso   1.00
C190   C     0.85899   0.16893   0.15004   0.00000  Uiso   1.00
C191   C     0.92769   0.19975   0.01312   0.00000  Uiso   1.00
H192   H     0.92526   0.23442   0.42235   0.00000  Uiso   1.00
H193   H     0.96360   0.21021   0.49178   0.00000  Uiso   1.00
C194   C     0.87169   0.17620   0.09361   0.00000  Uiso   1.00
C195   C     0.75902   0.13084   0.42782   0.00000  Uiso   1.00
C196   C     0.75400   0.11737   0.47824   0.00000  Uiso   1.00
C197   C     0.78236   0.13389   0.00750   0.00000  Uiso   1.00
C198   C     0.81443   0.16626   0.48841   0.00000  Uiso   1.00
C199   C     0.82070   0.18004   0.43723   0.00000  Uiso   1.00
C200   C     0.84492   0.18185   0.01694   0.00000  Uiso   1.00
C201   C     0.88962   0.19916   0.48987   0.00000  Uiso   1.00
C202   C     0.89419   0.21574   0.44099   0.00000  Uiso   1.00
C203   C     0.85626   0.21076   0.41801   0.00000  Uiso   1.00
C204   C     0.83283   0.18123   0.07138   0.00000  Uiso   1.00
C205   C     0.92000   0.18380   0.06319   0.00000  Uiso   1.00
C206   C     0.79315   0.16166   0.40654   0.00000  Uiso   1.00
H207   H     0.72947   0.09258   0.49400   0.00000  Uiso   1.00
C208   C     0.86420   0.31132   0.27115   0.00000  Uiso   1.00
C209   C     0.86488   0.02107   0.27253   0.00000  Uiso   1.00
C210   C     0.83492   0.04269   0.24780   0.00000  Uiso   1.00
C211   C     0.80646   0.02172   0.22067   0.00000  Uiso   1.00
C212   C     0.80362   0.31215   0.22296   0.00000  Uiso   1.00
C213   C     0.83354   0.29050   0.24739   0.00000  Uiso   1.00
C214   C     0.96677   0.19409   0.28034   0.00000  Uiso   1.00
C215   C     0.68291   0.19391   0.28053   0.00000  Uiso   1.00
N216   N     0.71598   0.16666   0.24999   0.00000  Uiso   1.00
C217   C     0.70014   0.13908   0.21985   0.00000  Uiso   1.00
C218   C     0.98321   0.13841   0.21996   0.00000  Uiso   1.00
N219   N     0.95069   0.16669   0.25000   0.00000  Uiso   1.00
O220   O     0.95909   0.17908   0.08323   0.00000  Uiso   1.00
C221   C     0.97753   0.13857   0.07087   0.00000  Uiso   1.00
H222   H     0.95030   0.11542   0.09060   0.00000  Uiso   1.00
H223   H     0.67694   0.13441   0.08468   0.00000  Uiso   1.00
H224   H     0.98868   0.13264   0.02812   0.00000  Uiso   1.00
O225   O     0.88998   0.04335   0.30146   0.00000  Uiso   1.00
C226   C     0.93333   0.02342   0.30440   0.00000  Uiso   1.00
H227   H     0.95745   0.04688   0.31406   0.00000  Uiso   1.00
H228   H     0.95390   0.00847   0.26683   0.00000  Uiso   1.00
H229   H     0.92500   0.00073   0.33623   0.00000  Uiso   1.00
O230   O     0.78002   0.04313   0.19318   0.00000  Uiso   1.00
C231   C     0.81015   0.04871   0.14215   0.00000  Uiso   1.00
H232   H     0.84292   0.06703   0.14187   0.00000  Uiso   1.00
H233   H     0.78911   0.06620   0.12025   0.00000  Uiso   1.00
H234   H     0.82134   0.01860   0.12154   0.00000  Uiso   1.00
O235   O     0.77578   0.29110   0.19661   0.00000  Uiso   1.00
C236   C     0.72605   0.29472   0.22522   0.00000  Uiso   1.00
H237   H     0.71989   0.28697   0.26689   0.00000  Uiso   1.00
H238   H     0.70498   0.27262   0.20858   0.00000  Uiso   1.00
H239   H     0.71131   0.32608   0.22206   0.00000  Uiso   1.00
H240   H     0.94139   0.21621   0.30456   0.00000  Uiso   1.00
H241   H     0.69471   0.21574   0.30511   0.00000  Uiso   1.00
H242   H     0.72683   0.11806   0.19547   0.00000  Uiso   1.00
O243   O     0.96587   0.11173   0.18846   0.00000  Uiso   1.00
C244   C     0.99210   0.07394   0.17767   0.00000  Uiso   1.00
H245   H     0.66767   0.06158   0.21240   0.00000  Uiso   1.00
H246   H     0.69240   0.07731   0.14484   0.00000  Uiso   1.00
H247   H     0.96898   0.05094   0.16540   0.00000  Uiso   1.00
O248   O     0.79480   0.20709   0.09931   0.00000  Uiso   1.00
C249   C     0.74870   0.18989   0.10507   0.00000  Uiso   1.00
H250   H     0.72187   0.20646   0.13751   0.00000  Uiso   1.00
H251   H     0.74776   0.15696   0.11582   0.00000  Uiso   1.00
H252   H     0.73666   0.19490   0.06978   0.00000  Uiso   1.00
O253   O     0.73174   0.11288   0.39840   0.00000  Uiso   1.00
C254   C     0.75074   0.07297   0.38214   0.00000  Uiso   1.00
H255   H     0.74159   0.05132   0.41512   0.00000  Uiso   1.00
H256   H     0.79098   0.07308   0.36378   0.00000  Uiso   1.00
H257   H     0.73370   0.06132   0.35246   0.00000  Uiso   1.00
H258   H     0.78071   0.11984   0.04422   0.00000  Uiso   1.00
O259   O     0.85434   0.23622   0.37774   0.00000  Uiso   1.00
C260   C     0.81580   0.26511   0.39721   0.00000  Uiso   1.00
H261   H     0.82215   0.28428   0.42934   0.00000  Uiso   1.00
H262   H     0.77978   0.24987   0.41036   0.00000  Uiso   1.00
H263   H     0.81381   0.28618   0.36586   0.00000  Uiso   1.00
H264   H     0.88572   0.29359   0.29077   0.00000  Uiso   1.00
O265   O     0.12708   0.56011   0.25001   0.00000  Uiso   1.00
O266   O     0.20627   0.56012   0.25001   0.00000  Uiso   1.00
C267   C     0.16671   0.57924   0.24887   0.00000  Uiso   1.00
O268   O     0.10775   0.49998   0.32549   0.00000  Uiso   1.00
O269   O     0.18694   0.49999   0.32549   0.00000  Uiso   1.00
C270   C     0.14080   0.50003   0.34996   0.00000  Uiso   1.00
Cu271  Cu    0.11978   0.49999   0.25000   0.00000  Uiso   1.00
Cu272  Cu    0.21355   0.50001   0.25000   0.00000  Uiso   1.00
O273   O     0.12706   0.43988   0.25000   0.00000  Uiso   1.00
O274   O     0.20625   0.43989   0.25000   0.00000  Uiso   1.00
O275   O     0.14640   0.50001   0.17451   0.00000  Uiso   1.00
O276   O     0.22559   0.50002   0.17451   0.00000  Uiso   1.00
C277   C     0.16708   0.42073   0.24950   0.00000  Uiso   1.00
C278   C     0.19232   0.50226   0.15004   0.00000  Uiso   1.00
C279   C     0.26103   0.53308   0.01312   0.00000  Uiso   1.00
H280   H     0.25860   0.56776   0.42235   0.00000  Uiso   1.00
H281   H     0.29693   0.54354   0.49178   0.00000  Uiso   1.00
C282   C     0.20502   0.50953   0.09361   0.00000  Uiso   1.00
C283   C     0.09236   0.46417   0.42782   0.00000  Uiso   1.00
C284   C     0.08733   0.45070   0.47824   0.00000  Uiso   1.00
C285   C     0.11570   0.46722   0.00750   0.00000  Uiso   1.00
C286   C     0.14776   0.49959   0.48841   0.00000  Uiso   1.00
C287   C     0.15404   0.51337   0.43723   0.00000  Uiso   1.00
C288   C     0.17825   0.51518   0.01694   0.00000  Uiso   1.00
C289   C     0.22295   0.53249   0.48987   0.00000  Uiso   1.00
C290   C     0.22752   0.54908   0.44099   0.00000  Uiso   1.00
C291   C     0.18959   0.54409   0.41801   0.00000  Uiso   1.00
C292   C     0.16617   0.51456   0.07138   0.00000  Uiso   1.00
C293   C     0.25333   0.51713   0.06319   0.00000  Uiso   1.00
C294   C     0.12648   0.49499   0.40654   0.00000  Uiso   1.00
H295   H     0.06280   0.42591   0.49400   0.00000  Uiso   1.00
C296   C     0.19754   0.64465   0.27115   0.00000  Uiso   1.00
C297   C     0.19822   0.35441   0.27253   0.00000  Uiso   1.00
C298   C     0.16825   0.37602   0.24780   0.00000  Uiso   1.00
C299   C     0.13980   0.35505   0.22067   0.00000  Uiso   1.00
C300   C     0.13695   0.64549   0.22296   0.00000  Uiso   1.00
C301   C     0.16688   0.62383   0.24739   0.00000  Uiso   1.00
C302   C     0.30010   0.52742   0.28034   0.00000  Uiso   1.00
C303   C     0.01624   0.52724   0.28053   0.00000  Uiso   1.00
N304   N     0.04931   0.49999   0.24999   0.00000  Uiso   1.00
C305   C     0.03348   0.47241   0.21985   0.00000  Uiso   1.00
C306   C     0.31654   0.47174   0.21996   0.00000  Uiso   1.00
N307   N     0.28402   0.50002   0.25000   0.00000  Uiso   1.00
O308   O     0.29243   0.51242   0.08323   0.00000  Uiso   1.00
C309   C     0.31086   0.47190   0.07087   0.00000  Uiso   1.00
H310   H     0.28363   0.44876   0.09060   0.00000  Uiso   1.00
H311   H     0.01027   0.46774   0.08468   0.00000  Uiso   1.00
H312   H     0.32201   0.46597   0.02812   0.00000  Uiso   1.00
O313   O     0.22332   0.37669   0.30146   0.00000  Uiso   1.00
C314   C     0.26666   0.35675   0.30440   0.00000  Uiso   1.00
H315   H     0.29079   0.38021   0.31406   0.00000  Uiso   1.00
H316   H     0.28724   0.34180   0.26683   0.00000  Uiso   1.00
H317   H     0.25833   0.33406   0.33623   0.00000  Uiso   1.00
O318   O     0.11335   0.37646   0.19318   0.00000  Uiso   1.00
C319   C     0.14348   0.38204   0.14215   0.00000  Uiso   1.00
H320   H     0.17625   0.40036   0.14187   0.00000  Uiso   1.00
H321   H     0.12244   0.39954   0.12025   0.00000  Uiso   1.00
H322   H     0.15467   0.35193   0.12154   0.00000  Uiso   1.00
O323   O     0.10912   0.62443   0.19661   0.00000  Uiso   1.00
C324   C     0.05938   0.62805   0.22522   0.00000  Uiso   1.00
H325   H     0.05323   0.62030   0.26689   0.00000  Uiso   1.00
H326   H     0.03831   0.60596   0.20858   0.00000  Uiso   1.00
H327   H     0.04464   0.65941   0.22206   0.00000  Uiso   1.00
H328   H     0.27472   0.54954   0.30456   0.00000  Uiso   1.00
H329   H     0.02804   0.54907   0.30511   0.00000  Uiso   1.00
H330   H     0.06017   0.45139   0.19547   0.00000  Uiso   1.00
O331   O     0.29920   0.44506   0.18846   0.00000  Uiso   1.00
C332   C     0.32544   0.40727   0.17767   0.00000  Uiso   1.00
H333   H     0.00100   0.39491   0.21240   0.00000  Uiso   1.00
H334   H     0.02573   0.41064   0.14484   0.00000  Uiso   1.00
H335   H     0.30232   0.38428   0.16540   0.00000  Uiso   1.00
O336   O     0.12813   0.54042   0.09931   0.00000  Uiso   1.00
C337   C     0.08203   0.52323   0.10507   0.00000  Uiso   1.00
H338   H     0.05520   0.53979   0.13751   0.00000  Uiso   1.00
H339   H     0.08109   0.49029   0.11582   0.00000  Uiso   1.00
H340   H     0.06999   0.52824   0.06978   0.00000  Uiso   1.00
O341   O     0.06507   0.44621   0.39840   0.00000  Uiso   1.00
C342   C     0.08407   0.40630   0.38214   0.00000  Uiso   1.00
H343   H     0.07492   0.38465   0.41512   0.00000  Uiso   1.00
H344   H     0.12431   0.40641   0.36378   0.00000  Uiso   1.00
H345   H     0.06704   0.39466   0.35246   0.00000  Uiso   1.00
H346   H     0.11404   0.45317   0.04422   0.00000  Uiso   1.00
O347   O     0.18767   0.56955   0.37774   0.00000  Uiso   1.00
C348   C     0.14914   0.59844   0.39721   0.00000  Uiso   1.00
H349   H     0.15548   0.61761   0.42934   0.00000  Uiso   1.00
H350   H     0.11311   0.58321   0.41036   0.00000  Uiso   1.00
H351   H     0.14714   0.61952   0.36586   0.00000  Uiso   1.00
H352   H     0.21906   0.62692   0.29077   0.00000  Uiso   1.00
O353   O     0.46042   0.56011   0.25001   0.00000  Uiso   1.00
O354   O     0.53961   0.56012   0.25001   0.00000  Uiso   1.00
C355   C     0.50004   0.57924   0.24887   0.00000  Uiso   1.00
O356   O     0.44108   0.49998   0.32549   0.00000  Uiso   1.00
O357   O     0.52027   0.49999   0.32549   0.00000  Uiso   1.00
C358   C     0.47414   0.50003   0.34996   0.00000  Uiso   1.00
Cu359  Cu    0.45311   0.49999   0.25000   0.00000  Uiso   1.00
Cu360  Cu    0.54689   0.50001   0.25000   0.00000  Uiso   1.00
O361   O     0.46039   0.43988   0.25000   0.00000  Uiso   1.00
O362   O     0.53958   0.43989   0.25000   0.00000  Uiso   1.00
O363   O     0.47973   0.50001   0.17451   0.00000  Uiso   1.00
O364   O     0.55892   0.50002   0.17451   0.00000  Uiso   1.00
C365   C     0.50042   0.42073   0.24950   0.00000  Uiso   1.00
C366   C     0.52565   0.50226   0.15004   0.00000  Uiso   1.00
C367   C     0.59436   0.53308   0.01312   0.00000  Uiso   1.00
H368   H     0.59193   0.56776   0.42235   0.00000  Uiso   1.00
H369   H     0.63027   0.54354   0.49178   0.00000  Uiso   1.00
C370   C     0.53835   0.50953   0.09361   0.00000  Uiso   1.00
C371   C     0.42569   0.46417   0.42782   0.00000  Uiso   1.00
C372   C     0.42067   0.45070   0.47824   0.00000  Uiso   1.00
C373   C     0.44903   0.46722   0.00750   0.00000  Uiso   1.00
C374   C     0.48109   0.49959   0.48841   0.00000  Uiso   1.00
C375   C     0.48737   0.51337   0.43723   0.00000  Uiso   1.00
C376   C     0.51159   0.51518   0.01694   0.00000  Uiso   1.00
C377   C     0.55628   0.53249   0.48987   0.00000  Uiso   1.00
C378   C     0.56085   0.54908   0.44099   0.00000  Uiso   1.00
C379   C     0.52293   0.54409   0.41801   0.00000  Uiso   1.00
C380   C     0.49950   0.51456   0.07138   0.00000  Uiso   1.00
C381   C     0.58667   0.51713   0.06319   0.00000  Uiso   1.00
C382   C     0.45982   0.49499   0.40654   0.00000  Uiso   1.00
H383   H     0.39614   0.42591   0.49400   0.00000  Uiso   1.00
C384   C     0.53087   0.64465   0.27115   0.00000  Uiso   1.00
C385   C     0.53155   0.35441   0.27253   0.00000  Uiso   1.00
C386   C     0.50159   0.37602   0.24780   0.00000  Uiso   1.00
C387   C     0.47313   0.35505   0.22067   0.00000  Uiso   1.00
C388   C     0.47029   0.64549   0.22296   0.00000  Uiso   1.00
C389   C     0.50021   0.62383   0.24739   0.00000  Uiso   1.00
C390   C     0.63343   0.52742   0.28034   0.00000  Uiso   1.00
C391   C     0.34958   0.52724   0.28053   0.00000  Uiso   1.00
N392   N     0.38265   0.49999   0.24999   0.00000  Uiso   1.00
C393   C     0.36681   0.47241   0.21985   0.00000  Uiso   1.00
C394   C     0.64988   0.47174   0.21996   0.00000  Uiso   1.00
N395   N     0.61735   0.50002   0.25000   0.00000  Uiso   1.00
O396   O     0.62576   0.51242   0.08323   0.00000  Uiso   1.00
C397   C     0.64420   0.47190   0.07087   0.00000  Uiso   1.00
H398   H     0.61696   0.44876   0.09060   0.00000  Uiso   1.00
H399   H     0.34360   0.46774   0.08468   0.00000  Uiso   1.00
H400   H     0.65534   0.46597   0.02812   0.00000  Uiso   1.00
O401   O     0.55665   0.37669   0.30146   0.00000  Uiso   1.00
C402   C     0.59999   0.35675   0.30440   0.00000  Uiso   1.00
H403   H     0.62412   0.38021   0.31406   0.00000  Uiso   1.00
H404   H     0.62057   0.34180   0.26683   0.00000  Uiso   1.00
H405   H     0.59166   0.33406   0.33623   0.00000  Uiso   1.00
O406   O     0.44668   0.37646   0.19318   0.00000  Uiso   1.00
C407   C     0.47682   0.38204   0.14215   0.00000  Uiso   1.00
H408   H     0.50959   0.40036   0.14187   0.00000  Uiso   1.00
H409   H     0.45578   0.39954   0.12025   0.00000  Uiso   1.00
H410   H     0.48801   0.35193   0.12154   0.00000  Uiso   1.00
O411   O     0.44245   0.62443   0.19661   0.00000  Uiso   1.00
C412   C     0.39271   0.62805   0.22522   0.00000  Uiso   1.00
H413   H     0.38656   0.62030   0.26689   0.00000  Uiso   1.00
H414   H     0.37164   0.60596   0.20858   0.00000  Uiso   1.00
H415   H     0.37798   0.65941   0.22206   0.00000  Uiso   1.00
H416   H     0.60806   0.54954   0.30456   0.00000  Uiso   1.00
H417   H     0.36138   0.54907   0.30511   0.00000  Uiso   1.00
H418   H     0.39350   0.45139   0.19547   0.00000  Uiso   1.00
O419   O     0.63253   0.44506   0.18846   0.00000  Uiso   1.00
C420   C     0.65877   0.40727   0.17767   0.00000  Uiso   1.00
H421   H     0.33434   0.39491   0.21240   0.00000  Uiso   1.00
H422   H     0.35906   0.41064   0.14484   0.00000  Uiso   1.00
H423   H     0.63565   0.38428   0.16540   0.00000  Uiso   1.00
O424   O     0.46147   0.54042   0.09931   0.00000  Uiso   1.00
C425   C     0.41536   0.52323   0.10507   0.00000  Uiso   1.00
H426   H     0.38853   0.53979   0.13751   0.00000  Uiso   1.00
H427   H     0.41442   0.49029   0.11582   0.00000  Uiso   1.00
H428   H     0.40333   0.52824   0.06978   0.00000  Uiso   1.00
O429   O     0.39841   0.44621   0.39840   0.00000  Uiso   1.00
C430   C     0.41741   0.40630   0.38214   0.00000  Uiso   1.00
H431   H     0.40826   0.38465   0.41512   0.00000  Uiso   1.00
H432   H     0.45764   0.40641   0.36378   0.00000  Uiso   1.00
H433   H     0.40037   0.39466   0.35246   0.00000  Uiso   1.00
H434   H     0.44737   0.45317   0.04422   0.00000  Uiso   1.00
O435   O     0.52101   0.56955   0.37774   0.00000  Uiso   1.00
C436   C     0.48247   0.59844   0.39721   0.00000  Uiso   1.00
H437   H     0.48881   0.61761   0.42934   0.00000  Uiso   1.00
H438   H     0.44645   0.58321   0.41036   0.00000  Uiso   1.00
H439   H     0.48048   0.61952   0.36586   0.00000  Uiso   1.00
H440   H     0.55239   0.62692   0.29077   0.00000  Uiso   1.00
O441   O     0.79375   0.56011   0.25001   0.00000  Uiso   1.00
O442   O     0.87294   0.56012   0.25001   0.00000  Uiso   1.00
C443   C     0.83338   0.57924   0.24887   0.00000  Uiso   1.00
O444   O     0.77441   0.49998   0.32549   0.00000  Uiso   1.00
O445   O     0.85360   0.49999   0.32549   0.00000  Uiso   1.00
C446   C     0.80747   0.50003   0.34996   0.00000  Uiso   1.00
Cu447  Cu    0.78645   0.49999   0.25000   0.00000  Uiso   1.00
Cu448  Cu    0.88022   0.50001   0.25000   0.00000  Uiso   1.00
O449   O     0.79373   0.43988   0.25000   0.00000  Uiso   1.00
O450   O     0.87292   0.43989   0.25000   0.00000  Uiso   1.00
O451   O     0.81306   0.50001   0.17451   0.00000  Uiso   1.00
O452   O     0.89225   0.50002   0.17451   0.00000  Uiso   1.00
C453   C     0.83375   0.42073   0.24950   0.00000  Uiso   1.00
C454   C     0.85899   0.50226   0.15004   0.00000  Uiso   1.00
C455   C     0.92769   0.53308   0.01312   0.00000  Uiso   1.00
H456   H     0.92526   0.56776   0.42235   0.00000  Uiso   1.00
H457   H     0.96360   0.54354   0.49178   0.00000  Uiso   1.00
C458   C     0.87169   0.50953   0.09361   0.00000  Uiso   1.00
C459   C     0.75902   0.46417   0.42782   0.00000  Uiso   1.00
C460   C     0.75400   0.45070   0.47824   0.00000  Uiso   1.00
C461   C     0.78236   0.46722   0.00750   0.00000  Uiso   1.00
C462   C     0.81443   0.49959   0.48841   0.00000  Uiso   1.00
C463   C     0.82070   0.51337   0.43723   0.00000  Uiso   1.00
C464   C     0.84492   0.51518   0.01694   0.00000  Uiso   1.00
C465   C     0.88962   0.53249   0.48987   0.00000  Uiso   1.00
C466   C     0.89419   0.54908   0.44099   0.00000  Uiso   1.00
C467   C     0.85626   0.54409   0.41801   0.00000  Uiso   1.00
C468   C     0.83283   0.51456   0.07138   0.00000  Uiso   1.00
C469   C     0.92000   0.51713   0.06319   0.00000  Uiso   1.00
C470   C     0.79315   0.49499   0.40654   0.00000  Uiso   1.00
H471   H     0.72947   0.42591   0.49400   0.00000  Uiso   1.00
C472   C     0.86420   0.64465   0.27115   0.00000  Uiso   1.00
C473   C     0.86488   0.35441   0.27253   0.00000  Uiso   1.00
C474   C     0.83492   0.37602   0.24780   0.00000  Uiso   1.00
C475   C     0.80646   0.35505   0.22067   0.00000  Uiso   1.00
C476   C     0.80362   0.64549   0.22296   0.00000  Uiso   1.00
C477   C     0.83354   0.62383   0.24739   0.00000  Uiso   1.00
C478   C     0.96677   0.52742   0.28034   0.00000  Uiso   1.00
C479   C     0.68291   0.52724   0.28053   0.00000  Uiso   1.00
N480   N     0.71598   0.49999   0.24999   0.00000  Uiso   1.00
C481   C     0.70014   0.47241   0.21985   0.00000  Uiso   1.00
C482   C     0.98321   0.47174   0.21996   0.00000  Uiso   1.00
N483   N     0.95069   0.50002   0.25000   0.00000  Uiso   1.00
O484   O     0.95909   0.51242   0.08323   0.00000  Uiso   1.00
C485   C     0.97753   0.47190   0.07087   0.00000  Uiso   1.00
H486   H     0.95030   0.44876   0.09060   0.00000  Uiso   1.00
H487   H     0.67694   0.46774   0.08468   0.00000  Uiso   1.00
H488   H     0.98868   0.46597   0.02812   0.00000  Uiso   1.00
O489   O     0.88998   0.37669   0.30146   0.00000  Uiso   1.00
C490   C     0.93333   0.35675   0.30440   0.00000  Uiso   1.00
H491   H     0.95745   0.38021   0.31406   0.00000  Uiso   1.00
H492   H     0.95390   0.34180   0.26683   0.00000  Uiso   1.00
H493   H     0.92500   0.33406   0.33623   0.00000  Uiso   1.00
O494   O     0.78002   0.37646   0.19318   0.00000  Uiso   1.00
C495   C     0.81015   0.38204   0.14215   0.00000  Uiso   1.00
H496   H     0.84292   0.40036   0.14187   0.00000  Uiso   1.00
H497   H     0.78911   0.39954   0.12025   0.00000  Uiso   1.00
H498   H     0.82134   0.35193   0.12154   0.00000  Uiso   1.00
O499   O     0.77578   0.62443   0.19661   0.00000  Uiso   1.00
C500   C     0.72605   0.62805   0.22522   0.00000  Uiso   1.00
H501   H     0.71989   0.62030   0.26689   0.00000  Uiso   1.00
H502   H     0.70498   0.60596   0.20858   0.00000  Uiso   1.00
H503   H     0.71131   0.65941   0.22206   0.00000  Uiso   1.00
H504   H     0.94139   0.54954   0.30456   0.00000  Uiso   1.00
H505   H     0.69471   0.54907   0.30511   0.00000  Uiso   1.00
H506   H     0.72683   0.45139   0.19547   0.00000  Uiso   1.00
O507   O     0.96587   0.44506   0.18846   0.00000  Uiso   1.00
C508   C     0.99210   0.40727   0.17767   0.00000  Uiso   1.00
H509   H     0.66767   0.39491   0.21240   0.00000  Uiso   1.00
H510   H     0.69240   0.41064   0.14484   0.00000  Uiso   1.00
H511   H     0.96898   0.38428   0.16540   0.00000  Uiso   1.00
O512   O     0.79480   0.54042   0.09931   0.00000  Uiso   1.00
C513   C     0.74870   0.52323   0.10507   0.00000  Uiso   1.00
H514   H     0.72187   0.53979   0.13751   0.00000  Uiso   1.00
H515   H     0.74776   0.49029   0.11582   0.00000  Uiso   1.00
H516   H     0.73666   0.52824   0.06978   0.00000  Uiso   1.00
O517   O     0.73174   0.44621   0.39840   0.00000  Uiso   1.00
C518   C     0.75074   0.40630   0.38214   0.00000  Uiso   1.00
H519   H     0.74159   0.38465   0.41512   0.00000  Uiso   1.00
H520   H     0.79098   0.40641   0.36378   0.00000  Uiso   1.00
H521   H     0.73370   0.39466   0.35246   0.00000  Uiso   1.00
H522   H     0.78071   0.45317   0.04422   0.00000  Uiso   1.00
O523   O     0.85434   0.56955   0.37774   0.00000  Uiso   1.00
C524   C     0.81580   0.59844   0.39721   0.00000  Uiso   1.00
H525   H     0.82215   0.61761   0.42934   0.00000  Uiso   1.00
H526   H     0.77978   0.58321   0.41036   0.00000  Uiso   1.00
H527   H     0.81381   0.61952   0.36586   0.00000  Uiso   1.00
H528   H     0.88572   0.62692   0.29077   0.00000  Uiso   1.00
O529   O     0.12708   0.89345   0.25001   0.00000  Uiso   1.00
O530   O     0.20627   0.89346   0.25001   0.00000  Uiso   1.00
C531   C     0.16671   0.91257   0.24887   0.00000  Uiso   1.00
O532   O     0.10775   0.83332   0.32549   0.00000  Uiso   1.00
O533   O     0.18694   0.83333   0.32549   0.00000  Uiso   1.00
C534   C     0.14080   0.83337   0.34996   0.00000  Uiso   1.00
Cu535  Cu    0.11978   0.83333   0.25000   0.00000  Uiso   1.00
Cu536  Cu    0.21355   0.83334   0.25000   0.00000  Uiso   1.00
O537   O     0.12706   0.77321   0.25000   0.00000  Uiso   1.00
O538   O     0.20625   0.77322   0.25000   0.00000  Uiso   1.00
O539   O     0.14640   0.83334   0.17451   0.00000  Uiso   1.00
O540   O     0.22559   0.83335   0.17451   0.00000  Uiso   1.00
C541   C     0.16708   0.75406   0.24950   0.00000  Uiso   1.00
C542   C     0.19232   0.83559   0.15004   0.00000  Uiso   1.00
C543   C     0.26103   0.86642   0.01312   0.00000  Uiso   1.00
H544   H     0.25860   0.90109   0.42235   0.00000  Uiso   1.00
H545   H     0.29693   0.87688   0.49178   0.00000  Uiso   1.00
C546   C     0.20502   0.84287   0.09361   0.00000  Uiso   1.00
C547   C     0.09236   0.79750   0.42782   0.00000  Uiso   1.00
C548   C     0.08733   0.78404   0.47824   0.00000  Uiso   1.00
C549   C     0.11570   0.80056   0.00750   0.00000  Uiso   1.00
C550   C     0.14776   0.83292   0.48841   0.00000  Uiso   1.00
C551   C     0.15404   0.84671   0.43723   0.00000  Uiso   1.00
C552   C     0.17825   0.84852   0.01694   0.00000  Uiso   1.00
C553   C     0.22295   0.86583   0.48987   0.00000  Uiso   1.00
C554   C     0.22752   0.88241   0.44099   0.00000  Uiso   1.00
C555   C     0.18959   0.87743   0.41801   0.00000  Uiso   1.00
C556   C     0.16617   0.84790   0.07138   0.00000  Uiso   1.00
C557   C     0.25333   0.85046   0.06319   0.00000  Uiso   1.00
C558   C     0.12648   0.82833   0.40654   0.00000  Uiso   1.00
H559   H     0.06280   0.75925   0.49400   0.00000  Uiso   1.00
C560   C     0.19754   0.97799   0.27115   0.00000  Uiso   1.00
C561   C     0.19822   0.68774   0.27253   0.00000  Uiso   1.00
C562   C     0.16825   0.70935   0.24780   0.00000  Uiso   1.00
C563   C     0.13980   0.68838   0.22067   0.00000  Uiso   1.00
C564   C     0.13695   0.97882   0.22296   0.00000  Uiso   1.00
C565   C     0.16688   0.95716   0.24739   0.00000  Uiso   1.00
C566   C     0.30010   0.86075   0.28034   0.00000  Uiso   1.00
C567   C     0.01624   0.86058   0.28053   0.00000  Uiso   1.00
N568   N     0.04931   0.83332   0.24999   0.00000  Uiso   1.00
C569   C     0.03348   0.80575   0.21985   0.00000  Uiso   1.00
C570   C     0.31654   0.80507   0.21996   0.00000  Uiso   1.00
N571   N     0.28402   0.83335   0.25000   0.00000  Uiso   1.00
O572   O     0.29243   0.84575   0.08323   0.00000  Uiso   1.00
C573   C     0.31086   0.80523   0.07087   0.00000  Uiso   1.00
H574   H     0.28363   0.78209   0.09060   0.00000  Uiso   1.00
H575   H     0.01027   0.80108   0.08468   0.00000  Uiso   1.00
H576   H     0.32201   0.79931   0.02812   0.00000  Uiso   1.00
O577   O     0.22332   0.71002   0.30146   0.00000  Uiso   1.00
C578   C     0.26666   0.69008   0.30440   0.00000  Uiso   1.00
H579   H     0.29079   0.71354   0.31406   0.00000  Uiso   1.00
H580   H     0.28724   0.67513   0.26683   0.00000  Uiso   1.00
H581   H     0.25833   0.66740   0.33623   0.00000  Uiso   1.00
O582   O     0.11335   0.70980   0.19318   0.00000  Uiso   1.00
C583   C     0.14348   0.71537   0.14215   0.00000  Uiso   1.00
H584   H     0.17625   0.73370   0.14187   0.00000  Uiso   1.00
H585   H     0.12244   0.73287   0.12025   0.00000  Uiso   1.00
H586   H     0.15467   0.68526   0.12154   0.00000  Uiso   1.00
O587   O     0.10912   0.95776   0.19661   0.00000  Uiso   1.00
C588   C     0.05938   0.96139   0.22522   0.00000  Uiso   1.00
H589   H     0.05323   0.95363   0.26689   0.00000  Uiso   1.00
H590   H     0.03831   0.93929   0.20858   0.00000  Uiso   1.00
H591   H     0.04464   0.99275   0.22206   0.00000  Uiso   1.00
H592   H     0.27472   0.88287   0.30456   0.00000  Uiso   1.00
H593   H     0.02804   0.88240   0.30511   0.00000  Uiso   1.00
H594   H     0.06017   0.78473   0.19547   0.00000  Uiso   1.00
O595   O     0.29920   0.77839   0.18846   0.00000  Uiso   1.00
C596   C     0.32544   0.74061   0.17767   0.00000  Uiso   1.00
H597   H     0.00100   0.72824   0.21240   0.00000  Uiso   1.00
H598   H     0.02573   0.74398   0.14484   0.00000  Uiso   1.00
H599   H     0.30232   0.71761   0.16540   0.00000  Uiso   1.00
O600   O     0.12813   0.87375   0.09931   0.00000  Uiso   1.00
C601   C     0.08203   0.85656   0.10507   0.00000  Uiso   1.00
H602   H     0.05520   0.87313   0.13751   0.00000  Uiso   1.00
H603   H     0.08109   0.82362   0.11582   0.00000  Uiso   1.00
H604   H     0.06999   0.86157   0.06978   0.00000  Uiso   1.00
O605   O     0.06507   0.77954   0.39840   0.00000  Uiso   1.00
C606   C     0.08407   0.73964   0.38214   0.00000  Uiso   1.00
H607   H     0.07492   0.71798   0.41512   0.00000  Uiso   1.00
H608   H     0.12431   0.73974   0.36378   0.00000  Uiso   1.00
H609   H     0.06704   0.72799   0.35246   0.00000  Uiso   1.00
H610   H     0.11404   0.78651   0.04422   0.00000  Uiso   1.00
O611   O     0.18767   0.90288   0.37774   0.00000  Uiso   1.00
C612   C     0.14914   0.93177   0.39721   0.00000  Uiso   1.00
H613   H     0.15548   0.95095   0.42934   0.00000  Uiso   1.00
H614   H     0.11311   0.91654   0.41036   0.00000  Uiso   1.00
H615   H     0.14714   0.95285   0.36586   0.00000  Uiso   1.00
H616   H     0.21906   0.96026   0.29077   0.00000  Uiso   1.00
O617   O     0.46042   0.89345   0.25001   0.00000  Uiso   1.00
O618   O     0.53961   0.89346   0.25001   0.00000  Uiso   1.00
C619   C     0.50004   0.91257   0.24887   0.00000  Uiso   1.00
O620   O     0.44108   0.83332   0.32549   0.00000  Uiso   1.00
O621   O     0.52027   0.83333   0.32549   0.00000  Uiso   1.00
C622   C     0.47414   0.83337   0.34996   0.00000  Uiso   1.00
Cu623  Cu    0.45311   0.83333   0.25000   0.00000  Uiso   1.00
Cu624  Cu    0.54689   0.83334   0.25000   0.00000  Uiso   1.00
O625   O     0.46039   0.77321   0.25000   0.00000  Uiso   1.00
O626   O     0.53958   0.77322   0.25000   0.00000  Uiso   1.00
O627   O     0.47973   0.83334   0.17451   0.00000  Uiso   1.00
O628   O     0.55892   0.83335   0.17451   0.00000  Uiso   1.00
C629   C     0.50042   0.75406   0.24950   0.00000  Uiso   1.00
C630   C     0.52565   0.83559   0.15004   0.00000  Uiso   1.00
C631   C     0.59436   0.86642   0.01312   0.00000  Uiso   1.00
H632   H     0.59193   0.90109   0.42235   0.00000  Uiso   1.00
H633   H     0.63027   0.87688   0.49178   0.00000  Uiso   1.00
C634   C     0.53835   0.84287   0.09361   0.00000  Uiso   1.00
C635   C     0.42569   0.79750   0.42782   0.00000  Uiso   1.00
C636   C     0.42067   0.78404   0.47824   0.00000  Uiso   1.00
C637   C     0.44903   0.80056   0.00750   0.00000  Uiso   1.00
C638   C     0.48109   0.83292   0.48841   0.00000  Uiso   1.00
C639   C     0.48737   0.84671   0.43723   0.00000  Uiso   1.00
C640   C     0.51159   0.84852   0.01694   0.00000  Uiso   1.00
C641   C     0.55628   0.86583   0.48987   0.00000  Uiso   1.00
C642   C     0.56085   0.88241   0.44099   0.00000  Uiso   1.00
C643   C     0.52293   0.87743   0.41801   0.00000  Uiso   1.00
C644   C     0.49950   0.84790   0.07138   0.00000  Uiso   1.00
C645   C     0.58667   0.85046   0.06319   0.00000  Uiso   1.00
C646   C     0.45982   0.82833   0.40654   0.00000  Uiso   1.00
H647   H     0.39614   0.75925   0.49400   0.00000  Uiso   1.00
C648   C     0.53087   0.97799   0.27115   0.00000  Uiso   1.00
C649   C     0.53155   0.68774   0.27253   0.00000  Uiso   1.00
C650   C     0.50159   0.70935   0.24780   0.00000  Uiso   1.00
C651   C     0.47313   0.68838   0.22067   0.00000  Uiso   1.00
C652   C     0.47029   0.97882   0.22296   0.00000  Uiso   1.00
C653   C     0.50021   0.95716   0.24739   0.00000  Uiso   1.00
C654   C     0.63343   0.86075   0.28034   0.00000  Uiso   1.00
C655   C     0.34958   0.86058   0.28053   0.00000  Uiso   1.00
N656   N     0.38265   0.83332   0.24999   0.00000  Uiso   1.00
C657   C     0.36681   0.80575   0.21985   0.00000  Uiso   1.00
C658   C     0.64988   0.80507   0.21996   0.00000  Uiso   1.00
N659   N     0.61735   0.83335   0.25000   0.00000  Uiso   1.00
O660   O     0.62576   0.84575   0.08323   0.00000  Uiso   1.00
C661   C     0.64420   0.80523   0.07087   0.00000  Uiso   1.00
H662   H     0.61696   0.78209   0.09060   0.00000  Uiso   1.00
H663   H     0.34360   0.80108   0.08468   0.00000  Uiso   1.00
H664   H     0.65534   0.79931   0.02812   0.00000  Uiso   1.00
O665   O     0.55665   0.71002   0.30146   0.00000  Uiso   1.00
C666   C     0.59999   0.69008   0.30440   0.00000  Uiso   1.00
H667   H     0.62412   0.71354   0.31406   0.00000  Uiso   1.00
H668   H     0.62057   0.67513   0.26683   0.00000  Uiso   1.00
H669   H     0.59166   0.66740   0.33623   0.00000  Uiso   1.00
O670   O     0.44668   0.70980   0.19318   0.00000  Uiso   1.00
C671   C     0.47682   0.71537   0.14215   0.00000  Uiso   1.00
H672   H     0.50959   0.73370   0.14187   0.00000  Uiso   1.00
H673   H     0.45578   0.73287   0.12025   0.00000  Uiso   1.00
H674   H     0.48801   0.68526   0.12154   0.00000  Uiso   1.00
O675   O     0.44245   0.95776   0.19661   0.00000  Uiso   1.00
C676   C     0.39271   0.96139   0.22522   0.00000  Uiso   1.00
H677   H     0.38656   0.95363   0.26689   0.00000  Uiso   1.00
H678   H     0.37164   0.93929   0.20858   0.00000  Uiso   1.00
H679   H     0.37798   0.99275   0.22206   0.00000  Uiso   1.00
H680   H     0.60806   0.88287   0.30456   0.00000  Uiso   1.00
H681   H     0.36138   0.88240   0.30511   0.00000  Uiso   1.00
H682   H     0.39350   0.78473   0.19547   0.00000  Uiso   1.00
O683   O     0.63253   0.77839   0.18846   0.00000  Uiso   1.00
C684   C     0.65877   0.74061   0.17767   0.00000  Uiso   1.00
H685   H     0.33434   0.72824   0.21240   0.00000  Uiso   1.00
H686   H     0.35906   0.74398   0.14484   0.00000  Uiso   1.00
H687   H     0.63565   0.71761   0.16540   0.00000  Uiso   1.00
O688   O     0.46147   0.87375   0.09931   0.00000  Uiso   1.00
C689   C     0.41536   0.85656   0.10507   0.00000  Uiso   1.00
H690   H     0.38853   0.87313   0.13751   0.00000  Uiso   1.00
H691   H     0.41442   0.82362   0.11582   0.00000  Uiso   1.00
H692   H     0.40333   0.86157   0.06978   0.00000  Uiso   1.00
O693   O     0.39841   0.77954   0.39840   0.00000  Uiso   1.00
C694   C     0.41741   0.73964   0.38214   0.00000  Uiso   1.00
H695   H     0.40826   0.71798   0.41512   0.00000  Uiso   1.00
H696   H     0.45764   0.73974   0.36378   0.00000  Uiso   1.00
H697   H     0.40037   0.72799   0.35246   0.00000  Uiso   1.00
H698   H     0.44737   0.78651   0.04422   0.00000  Uiso   1.00
O699   O     0.52101   0.90288   0.37774   0.00000  Uiso   1.00
C700   C     0.48247   0.93177   0.39721   0.00000  Uiso   1.00
H701   H     0.48881   0.95095   0.42934   0.00000  Uiso   1.00
H702   H     0.44645   0.91654   0.41036   0.00000  Uiso   1.00
H703   H     0.48048   0.95285   0.36586   0.00000  Uiso   1.00
H704   H     0.55239   0.96026   0.29077   0.00000  Uiso   1.00
O705   O     0.79375   0.89345   0.25001   0.00000  Uiso   1.00
O706   O     0.87294   0.89346   0.25001   0.00000  Uiso   1.00
C707   C     0.83338   0.91257   0.24887   0.00000  Uiso   1.00
O708   O     0.77441   0.83332   0.32549   0.00000  Uiso   1.00
O709   O     0.85360   0.83333   0.32549   0.00000  Uiso   1.00
C710   C     0.80747   0.83337   0.34996   0.00000  Uiso   1.00
Cu711  Cu    0.78645   0.83333   0.25000   0.00000  Uiso   1.00
Cu712  Cu    0.88022   0.83334   0.25000   0.00000  Uiso   1.00
O713   O     0.79373   0.77321   0.25000   0.00000  Uiso   1.00
O714   O     0.87292   0.77322   0.25000   0.00000  Uiso   1.00
O715   O     0.81306   0.83334   0.17451   0.00000  Uiso   1.00
O716   O     0.89225   0.83335   0.17451   0.00000  Uiso   1.00
C717   C     0.83375   0.75406   0.24950   0.00000  Uiso   1.00
C718   C     0.85899   0.83559   0.15004   0.00000  Uiso   1.00
C719   C     0.92769   0.86642   0.01312   0.00000  Uiso   1.00
H720   H     0.92526   0.90109   0.42235   0.00000  Uiso   1.00
H721   H     0.96360   0.87688   0.49178   0.00000  Uiso   1.00
C722   C     0.87169   0.84287   0.09361   0.00000  Uiso   1.00
C723   C     0.75902   0.79750   0.42782   0.00000  Uiso   1.00
C724   C     0.75400   0.78404   0.47824   0.00000  Uiso   1.00
C725   C     0.78236   0.80056   0.00750   0.00000  Uiso   1.00
C726   C     0.81443   0.83292   0.48841   0.00000  Uiso   1.00
C727   C     0.82070   0.84671   0.43723   0.00000  Uiso   1.00
C728   C     0.84492   0.84852   0.01694   0.00000  Uiso   1.00
C729   C     0.88962   0.86583   0.48987   0.00000  Uiso   1.00
C730   C     0.89419   0.88241   0.44099   0.00000  Uiso   1.00
C731   C     0.85626   0.87743   0.41801   0.00000  Uiso   1.00
C732   C     0.83283   0.84790   0.07138   0.00000  Uiso   1.00
C733   C     0.92000   0.85046   0.06319   0.00000  Uiso   1.00
C734   C     0.79315   0.82833   0.40654   0.00000  Uiso   1.00
H735   H     0.72947   0.75925   0.49400   0.00000  Uiso   1.00
C736   C     0.86420   0.97799   0.27115   0.00000  Uiso   1.00
C737   C     0.86488   0.68774   0.27253   0.00000  Uiso   1.00
C738   C     0.83492   0.70935   0.24780   0.00000  Uiso   1.00
C739   C     0.80646   0.68838   0.22067   0.00000  Uiso   1.00
C740   C     0.80362   0.97882   0.22296   0.00000  Uiso   1.00
C741   C     0.83354   0.95716   0.24739   0.00000  Uiso   1.00
C742   C     0.96677   0.86075   0.28034   0.00000  Uiso   1.00
C743   C     0.68291   0.86058   0.28053   0.00000  Uiso   1.00
N744   N     0.71598   0.83332   0.24999   0.00000  Uiso   1.00
C745   C     0.70014   0.80575   0.21985   0.00000  Uiso   1.00
C746   C     0.98321   0.80507   0.21996   0.00000  Uiso   1.00
N747   N     0.95069   0.83335   0.25000   0.00000  Uiso   1.00
O748   O     0.95909   0.84575   0.08323   0.00000  Uiso   1.00
C749   C     0.97753   0.80523   0.07087   0.00000  Uiso   1.00
H750   H     0.95030   0.78209   0.09060   0.00000  Uiso   1.00
H751   H     0.67694   0.80108   0.08468   0.00000  Uiso   1.00
H752   H     0.98868   0.79931   0.02812   0.00000  Uiso   1.00
O753   O     0.88998   0.71002   0.30146   0.00000  Uiso   1.00
C754   C     0.93333   0.69008   0.30440   0.00000  Uiso   1.00
H755   H     0.95745   0.71354   0.31406   0.00000  Uiso   1.00
H756   H     0.95390   0.67513   0.26683   0.00000  Uiso   1.00
H757   H     0.92500   0.66740   0.33623   0.00000  Uiso   1.00
O758   O     0.78002   0.70980   0.19318   0.00000  Uiso   1.00
C759   C     0.81015   0.71537   0.14215   0.00000  Uiso   1.00
H760   H     0.84292   0.73370   0.14187   0.00000  Uiso   1.00
H761   H     0.78911   0.73287   0.12025   0.00000  Uiso   1.00
H762   H     0.82134   0.68526   0.12154   0.00000  Uiso   1.00
O763   O     0.77578   0.95776   0.19661   0.00000  Uiso   1.00
C764   C     0.72605   0.96139   0.22522   0.00000  Uiso   1.00
H765   H     0.71989   0.95363   0.26689   0.00000  Uiso   1.00
H766   H     0.70498   0.93929   0.20858   0.00000  Uiso   1.00
H767   H     0.71131   0.99275   0.22206   0.00000  Uiso   1.00
H768   H     0.94139   0.88287   0.30456   0.00000  Uiso   1.00
H769   H     0.69471   0.88240   0.30511   0.00000  Uiso   1.00
H770   H     0.72683   0.78473   0.19547   0.00000  Uiso   1.00
O771   O     0.96587   0.77839   0.18846   0.00000  Uiso   1.00
C772   C     0.99210   0.74061   0.17767   0.00000  Uiso   1.00
H773   H     0.66767   0.72824   0.21240   0.00000  Uiso   1.00
H774   H     0.69240   0.74398   0.14484   0.00000  Uiso   1.00
H775   H     0.96898   0.71761   0.16540   0.00000  Uiso   1.00
O776   O     0.79480   0.87375   0.09931   0.00000  Uiso   1.00
C777   C     0.74870   0.85656   0.10507   0.00000  Uiso   1.00
H778   H     0.72187   0.87313   0.13751   0.00000  Uiso   1.00
H779   H     0.74776   0.82362   0.11582   0.00000  Uiso   1.00
H780   H     0.73666   0.86157   0.06978   0.00000  Uiso   1.00
O781   O     0.73174   0.77954   0.39840   0.00000  Uiso   1.00
C782   C     0.75074   0.73964   0.38214   0.00000  Uiso   1.00
H783   H     0.74159   0.71798   0.41512   0.00000  Uiso   1.00
H784   H     0.79098   0.73974   0.36378   0.00000  Uiso   1.00
H785   H     0.73370   0.72799   0.35246   0.00000  Uiso   1.00
H786   H     0.78071   0.78651   0.04422   0.00000  Uiso   1.00
O787   O     0.85434   0.90288   0.37774   0.00000  Uiso   1.00
C788   C     0.81580   0.93177   0.39721   0.00000  Uiso   1.00
H789   H     0.82215   0.95095   0.42934   0.00000  Uiso   1.00
H790   H     0.77978   0.91654   0.41036   0.00000  Uiso   1.00
H791   H     0.81381   0.95285   0.36586   0.00000  Uiso   1.00
H792   H     0.88572   0.96026   0.29077   0.00000  Uiso   1.00
O793   O     0.12708   0.22678   0.75001   0.00000  Uiso   1.00
O794   O     0.20627   0.22679   0.75001   0.00000  Uiso   1.00
C795   C     0.16671   0.24590   0.74887   0.00000  Uiso   1.00
O796   O     0.10775   0.16665   0.82549   0.00000  Uiso   1.00
O797   O     0.18694   0.16666   0.82549   0.00000  Uiso   1.00
C798   C     0.14080   0.16670   0.84996   0.00000  Uiso   1.00
Cu799  Cu    0.11978   0.16666   0.75000   0.00000  Uiso   1.00
Cu800  Cu    0.21355   0.16667   0.75000   0.00000  Uiso   1.00
O801   O     0.12706   0.10654   0.75000   0.00000  Uiso   1.00
O802   O     0.20625   0.10655   0.75000   0.00000  Uiso   1.00
O803   O     0.14640   0.16667   0.67451   0.00000  Uiso   1.00
O804   O     0.22559   0.16668   0.67451   0.00000  Uiso   1.00
C805   C     0.16708   0.08740   0.74950   0.00000  Uiso   1.00
C806   C     0.19232   0.16893   0.65004   0.00000  Uiso   1.00
C807   C     0.26103   0.19975   0.51312   0.00000  Uiso   1.00
H808   H     0.25860   0.23442   0.92235   0.00000  Uiso   1.00
H809   H     0.29693   0.21021   0.99178   0.00000  Uiso   1.00
C810   C     0.20502   0.17620   0.59361   0.00000  Uiso   1.00
C811   C     0.09236   0.13084   0.92782   0.00000  Uiso   1.00
C812   C     0.08733   0.11737   0.97824   0.00000  Uiso   1.00
C813   C     0.11570   0.13389   0.50750   0.00000  Uiso   1.00
C814   C     0.14776   0.16626   0.98841   0.00000  Uiso   1.00
C815   C     0.15404   0.18004   0.93723   0.00000  Uiso   1.00
C816   C     0.17825   0.18185   0.51694   0.00000  Uiso   1.00
C817   C     0.22295   0.19916   0.98987   0.00000  Uiso   1.00
C818   C     0.22752   0.21574   0.94099   0.00000  Uiso   1.00
C819   C     0.18959   0.21076   0.91801   0.00000  Uiso   1.00
C820   C     0.16617   0.18123   0.57138   0.00000  Uiso   1.00
C821   C     0.25333   0.18380   0.56319   0.00000  Uiso   1.00
C822   C     0.12648   0.16166   0.90654   0.00000  Uiso   1.00
H823   H     0.06280   0.09258   0.99400   0.00000  Uiso   1.00
C824   C     0.19754   0.31132   0.77115   0.00000  Uiso   1.00
C825   C     0.19822   0.02107   0.77253   0.00000  Uiso   1.00
C826   C     0.16825   0.04269   0.74780   0.00000  Uiso   1.00
C827   C     0.13980   0.02172   0.72067   0.00000  Uiso   1.00
C828   C     0.13695   0.31215   0.72296   0.00000  Uiso   1.00
C829   C     0.16688   0.29050   0.74739   0.00000  Uiso   1.00
C830   C     0.30010   0.19409   0.78034   0.00000  Uiso   1.00
C831   C     0.01624   0.19391   0.78053   0.00000  Uiso   1.00
N832   N     0.04931   0.16666   0.74999   0.00000  Uiso   1.00
C833   C     0.03348   0.13908   0.71985   0.00000  Uiso   1.00
C834   C     0.31654   0.13841   0.71996   0.00000  Uiso   1.00
N835   N     0.28402   0.16669   0.75000   0.00000  Uiso   1.00
O836   O     0.29243   0.17908   0.58323   0.00000  Uiso   1.00
C837   C     0.31086   0.13857   0.57087   0.00000  Uiso   1.00
H838   H     0.28363   0.11542   0.59060   0.00000  Uiso   1.00
H839   H     0.01027   0.13441   0.58468   0.00000  Uiso   1.00
H840   H     0.32201   0.13264   0.52812   0.00000  Uiso   1.00
O841   O     0.22332   0.04335   0.80146   0.00000  Uiso   1.00
C842   C     0.26666   0.02342   0.80440   0.00000  Uiso   1.00
H843   H     0.29079   0.04688   0.81406   0.00000  Uiso   1.00
H844   H     0.28724   0.00847   0.76683   0.00000  Uiso   1.00
H845   H     0.25833   0.00073   0.83623   0.00000  Uiso   1.00
O846   O     0.11335   0.04313   0.69318   0.00000  Uiso   1.00
C847   C     0.14348   0.04871   0.64215   0.00000  Uiso   1.00
H848   H     0.17625   0.06703   0.64187   0.00000  Uiso   1.00
H849   H     0.12244   0.06620   0.62025   0.00000  Uiso   1.00
H850   H     0.15467   0.01860   0.62154   0.00000  Uiso   1.00
O851   O     0.10912   0.29110   0.69661   0.00000  Uiso   1.00
C852   C     0.05938   0.29472   0.72522   0.00000  Uiso   1.00
H853   H     0.05323   0.28697   0.76689   0.00000  Uiso   1.00
H854   H     0.03831   0.27262   0.70858   0.00000  Uiso   1.00
H855   H     0.04464   0.32608   0.72206   0.00000  Uiso   1.00
H856   H     0.27472   0.21621   0.80456   0.00000  Uiso   1.00
H857   H     0.02804   0.21574   0.80511   0.00000  Uiso   1.00
H858   H     0.06017   0.11806   0.69547   0.00000  Uiso   1.00
O859   O     0.29920   0.11173   0.68846   0.00000  Uiso   1.00
C860   C     0.32544   0.07394   0.67767   0.00000  Uiso   1.00
H861   H     0.00100   0.06158   0.71240   0.00000  Uiso   1.00
H862   H     0.02573   0.07731   0.64484   0.00000  Uiso   1.00
H863   H     0.30232   0.05094   0.66540   0.00000  Uiso   1.00
O864   O     0.12813   0.20709   0.59931   0.00000  Uiso   1.00
C865   C     0.08203   0.18989   0.60507   0.00000  Uiso   1.00
H866   H     0.05520   0.20646   0.63751   0.00000  Uiso   1.00
H867   H     0.08109   0.15696   0.61582   0.00000  Uiso   1.00
H868   H     0.06999   0.19490   0.56978   0.00000  Uiso   1.00
O869   O     0.06507   0.11288   0.89840   0.00000  Uiso   1.00
C870   C     0.08407   0.07297   0.88214   0.00000  Uiso   1.00
H871   H     0.07492   0.05132   0.91512   0.00000  Uiso   1.00
H872   H     0.12431   0.07308   0.86378   0.00000  Uiso   1.00
H873   H     0.06704   0.06132   0.85246   0.00000  Uiso   1.00
H874   H     0.11404   0.11984   0.54422   0.00000  Uiso   1.00
O875   O     0.18767   0.23622   0.87774   0.00000  Uiso   1.00
C876   C     0.14914   0.26511   0.89721   0.00000  Uiso   1.00
H877   H     0.15548   0.28428   0.92934   0.00000  Uiso   1.00
H878   H     0.11311   0.24987   0.91036   0.00000  Uiso   1.00
H879   H     0.14714   0.28618   0.86586   0.00000  Uiso   1.00
H880   H     0.21906   0.29359   0.79077   0.00000  Uiso   1.00
O881   O     0.46042   0.22678   0.75001   0.00000  Uiso   1.00
O882   O     0.53961   0.22679   0.75001   0.00000  Uiso   1.00
C883   C     0.50004   0.24590   0.74887   0.00000  Uiso   1.00
O884   O     0.44108   0.16665   0.82549   0.00000  Uiso   1.00
O885   O     0.52027   0.16666   0.82549   0.00000  Uiso   1.00
C886   C     0.47414   0.16670   0.84996   0.00000  Uiso   1.00
Cu887  Cu    0.45311   0.16666   0.75000   0.00000  Uiso   1.00
Cu888  Cu    0.54689   0.16667   0.75000   0.00000  Uiso   1.00
O889   O     0.46039   0.10654   0.75000   0.00000  Uiso   1.00
O890   O     0.53958   0.10655   0.75000   0.00000  Uiso   1.00
O891   O     0.47973   0.16667   0.67451   0.00000  Uiso   1.00
O892   O     0.55892   0.16668   0.67451   0.00000  Uiso   1.00
C893   C     0.50042   0.08740   0.74950   0.00000  Uiso   1.00
C894   C     0.52565   0.16893   0.65004   0.00000  Uiso   1.00
C895   C     0.59436   0.19975   0.51312   0.00000  Uiso   1.00
H896   H     0.59193   0.23442   0.92235   0.00000  Uiso   1.00
H897   H     0.63027   0.21021   0.99178   0.00000  Uiso   1.00
C898   C     0.53835   0.17620   0.59361   0.00000  Uiso   1.00
C899   C     0.42569   0.13084   0.92782   0.00000  Uiso   1.00
C900   C     0.42067   0.11737   0.97824   0.00000  Uiso   1.00
C901   C     0.44903   0.13389   0.50750   0.00000  Uiso   1.00
C902   C     0.48109   0.16626   0.98841   0.00000  Uiso   1.00
C903   C     0.48737   0.18004   0.93723   0.00000  Uiso   1.00
C904   C     0.51159   0.18185   0.51694   0.00000  Uiso   1.00
C905   C     0.55628   0.19916   0.98987   0.00000  Uiso   1.00
C906   C     0.56085   0.21574   0.94099   0.00000  Uiso   1.00
C907   C     0.52293   0.21076   0.91801   0.00000  Uiso   1.00
C908   C     0.49950   0.18123   0.57138   0.00000  Uiso   1.00
C909   C     0.58667   0.18380   0.56319   0.00000  Uiso   1.00
C910   C     0.45982   0.16166   0.90654   0.00000  Uiso   1.00
H911   H     0.39614   0.09258   0.99400   0.00000  Uiso   1.00
C912   C     0.53087   0.31132   0.77115   0.00000  Uiso   1.00
C913   C     0.53155   0.02107   0.77253   0.00000  Uiso   1.00
C914   C     0.50159   0.04269   0.74780   0.00000  Uiso   1.00
C915   C     0.47313   0.02172   0.72067   0.00000  Uiso   1.00
C916   C     0.47029   0.31215   0.72296   0.00000  Uiso   1.00
C917   C     0.50021   0.29050   0.74739   0.00000  Uiso   1.00
C918   C     0.63343   0.19409   0.78034   0.00000  Uiso   1.00
C919   C     0.34958   0.19391   0.78053   0.00000  Uiso   1.00
N920   N     0.38265   0.16666   0.74999   0.00000  Uiso   1.00
C921   C     0.36681   0.13908   0.71985   0.00000  Uiso   1.00
C922   C     0.64988   0.13841   0.71996   0.00000  Uiso   1.00
N923   N     0.61735   0.16669   0.75000   0.00000  Uiso   1.00
O924   O     0.62576   0.17908   0.58323   0.00000  Uiso   1.00
C925   C     0.64420   0.13857   0.57087   0.00000  Uiso   1.00
H926   H     0.61696   0.11542   0.59060   0.00000  Uiso   1.00
H927   H     0.34360   0.13441   0.58468   0.00000  Uiso   1.00
H928   H     0.65534   0.13264   0.52812   0.00000  Uiso   1.00
O929   O     0.55665   0.04335   0.80146   0.00000  Uiso   1.00
C930   C     0.59999   0.02342   0.80440   0.00000  Uiso   1.00
H931   H     0.62412   0.04688   0.81406   0.00000  Uiso   1.00
H932   H     0.62057   0.00847   0.76683   0.00000  Uiso   1.00
H933   H     0.59166   0.00073   0.83623   0.00000  Uiso   1.00
O934   O     0.44668   0.04313   0.69318   0.00000  Uiso   1.00
C935   C     0.47682   0.04871   0.64215   0.00000  Uiso   1.00
H936   H     0.50959   0.06703   0.64187   0.00000  Uiso   1.00
H937   H     0.45578   0.06620   0.62025   0.00000  Uiso   1.00
H938   H     0.48801   0.01860   0.62154   0.00000  Uiso   1.00
O939   O     0.44245   0.29110   0.69661   0.00000  Uiso   1.00
C940   C     0.39271   0.29472   0.72522   0.00000  Uiso   1.00
H941   H     0.38656   0.28697   0.76689   0.00000  Uiso   1.00
H942   H     0.37164   0.27262   0.70858   0.00000  Uiso   1.00
H943   H     0.37798   0.32608   0.72206   0.00000  Uiso   1.00
H944   H     0.60806   0.21621   0.80456   0.00000  Uiso   1.00
H945   H     0.36138   0.21574   0.80511   0.00000  Uiso   1.00
H946   H     0.39350   0.11806   0.69547   0.00000  Uiso   1.00
O947   O     0.63253   0.11173   0.68846   0.00000  Uiso   1.00
C948   C     0.65877   0.07394   0.67767   0.00000  Uiso   1.00
H949   H     0.33434   0.06158   0.71240   0.00000  Uiso   1.00
H950   H     0.35906   0.07731   0.64484   0.00000  Uiso   1.00
H951   H     0.63565   0.05094   0.66540   0.00000  Uiso   1.00
O952   O     0.46147   0.20709   0.59931   0.00000  Uiso   1.00
C953   C     0.41536   0.18989   0.60507   0.00000  Uiso   1.00
H954   H     0.38853   0.20646   0.63751   0.00000  Uiso   1.00
H955   H     0.41442   0.15696   0.61582   0.00000  Uiso   1.00
H956   H     0.40333   0.19490   0.56978   0.00000  Uiso   1.00
O957   O     0.39841   0.11288   0.89840   0.00000  Uiso   1.00
C958   C     0.41741   0.07297   0.88214   0.00000  Uiso   1.00
H959   H     0.40826   0.05132   0.91512   0.00000  Uiso   1.00
H960   H     0.45764   0.07308   0.86378   0.00000  Uiso   1.00
H961   H     0.40037   0.06132   0.85246   0.00000  Uiso   1.00
H962   H     0.44737   0.11984   0.54422   0.00000  Uiso   1.00
O963   O     0.52101   0.23622   0.87774   0.00000  Uiso   1.00
C964   C     0.48247   0.26511   0.89721   0.00000  Uiso   1.00
H965   H     0.48881   0.28428   0.92934   0.00000  Uiso   1.00
H966   H     0.44645   0.24987   0.91036   0.00000  Uiso   1.00
H967   H     0.48048   0.28618   0.86586   0.00000  Uiso   1.00
H968   H     0.55239   0.29359   0.79077   0.00000  Uiso   1.00
O969   O     0.79375   0.22678   0.75001   0.00000  Uiso   1.00
O970   O     0.87294   0.22679   0.75001   0.00000  Uiso   1.00
C971   C     0.83338   0.24590   0.74887   0.00000  Uiso   1.00
O972   O     0.77441   0.16665   0.82549   0.00000  Uiso   1.00
O973   O     0.85360   0.16666   0.82549   0.00000  Uiso   1.00
C974   C     0.80747   0.16670   0.84996   0.00000  Uiso   1.00
Cu975  Cu    0.78645   0.16666   0.75000   0.00000  Uiso   1.00
Cu976  Cu    0.88022   0.16667   0.75000   0.00000  Uiso   1.00
O977   O     0.79373   0.10654   0.75000   0.00000  Uiso   1.00
O978   O     0.87292   0.10655   0.75000   0.00000  Uiso   1.00
O979   O     0.81306   0.16667   0.67451   0.00000  Uiso   1.00
O980   O     0.89225   0.16668   0.67451   0.00000  Uiso   1.00
C981   C     0.83375   0.08740   0.74950   0.00000  Uiso   1.00
C982   C     0.85899   0.16893   0.65004   0.00000  Uiso   1.00
C983   C     0.92769   0.19975   0.51312   0.00000  Uiso   1.00
H984   H     0.92526   0.23442   0.92235   0.00000  Uiso   1.00
H985   H     0.96360   0.21021   0.99178   0.00000  Uiso   1.00
C986   C     0.87169   0.17620   0.59361   0.00000  Uiso   1.00
C987   C     0.75902   0.13084   0.92782   0.00000  Uiso   1.00
C988   C     0.75400   0.11737   0.97824   0.00000  Uiso   1.00
C989   C     0.78236   0.13389   0.50750   0.00000  Uiso   1.00
C990   C     0.81443   0.16626   0.98841   0.00000  Uiso   1.00
C991   C     0.82070   0.18004   0.93723   0.00000  Uiso   1.00
C992   C     0.84492   0.18185   0.51694   0.00000  Uiso   1.00
C993   C     0.88962   0.19916   0.98987   0.00000  Uiso   1.00
C994   C     0.89419   0.21574   0.94099   0.00000  Uiso   1.00
C995   C     0.85626   0.21076   0.91801   0.00000  Uiso   1.00
C996   C     0.83283   0.18123   0.57138   0.00000  Uiso   1.00
C997   C     0.92000   0.18380   0.56319   0.00000  Uiso   1.00
C998   C     0.79315   0.16166   0.90654   0.00000  Uiso   1.00
H999   H     0.72947   0.09258   0.99400   0.00000  Uiso   1.00
C1000  C     0.86420   0.31132   0.77115   0.00000  Uiso   1.00
C1001  C     0.86488   0.02107   0.77253   0.00000  Uiso   1.00
C1002  C     0.83492   0.04269   0.74780   0.00000  Uiso   1.00
C1003  C     0.80646   0.02172   0.72067   0.00000  Uiso   1.00
C1004  C     0.80362   0.31215   0.72296   0.00000  Uiso   1.00
C1005  C     0.83354   0.29050   0.74739   0.00000  Uiso   1.00
C1006  C     0.96677   0.19409   0.78034   0.00000  Uiso   1.00
C1007  C     0.68291   0.19391   0.78053   0.00000  Uiso   1.00
N1008  N     0.71598   0.16666   0.74999   0.00000  Uiso   1.00
C1009  C     0.70014   0.13908   0.71985   0.00000  Uiso   1.00
C1010  C     0.98321   0.13841   0.71996   0.00000  Uiso   1.00
N1011  N     0.95069   0.16669   0.75000   0.00000  Uiso   1.00
O1012  O     0.95909   0.17908   0.58323   0.00000  Uiso   1.00
C1013  C     0.97753   0.13857   0.57087   0.00000  Uiso   1.00
H1014  H     0.95030   0.11542   0.59060   0.00000  Uiso   1.00
H1015  H     0.67694   0.13441   0.58468   0.00000  Uiso   1.00
H1016  H     0.98868   0.13264   0.52812   0.00000  Uiso   1.00
O1017  O     0.88998   0.04335   0.80146   0.00000  Uiso   1.00
C1018  C     0.93333   0.02342   0.80440   0.00000  Uiso   1.00
H1019  H     0.95745   0.04688   0.81406   0.00000  Uiso   1.00
H1020  H     0.95390   0.00847   0.76683   0.00000  Uiso   1.00
H1021  H     0.92500   0.00073   0.83623   0.00000  Uiso   1.00
O1022  O     0.78002   0.04313   0.69318   0.00000  Uiso   1.00
C1023  C     0.81015   0.04871   0.64215   0.00000  Uiso   1.00
H1024  H     0.84292   0.06703   0.64187   0.00000  Uiso   1.00
H1025  H     0.78911   0.06620   0.62025   0.00000  Uiso   1.00
H1026  H     0.82134   0.01860   0.62154   0.00000  Uiso   1.00
O1027  O     0.77578   0.29110   0.69661   0.00000  Uiso   1.00
C1028  C     0.72605   0.29472   0.72522   0.00000  Uiso   1.00
H1029  H     0.71989   0.28697   0.76689   0.00000  Uiso   1.00
H1030  H     0.70498   0.27262   0.70858   0.00000  Uiso   1.00
H1031  H     0.71131   0.32608   0.72206   0.00000  Uiso   1.00
H1032  H     0.94139   0.21621   0.80456   0.00000  Uiso   1.00
H1033  H     0.69471   0.21574   0.80511   0.00000  Uiso   1.00
H1034  H     0.72683   0.11806   0.69547   0.00000  Uiso   1.00
O1035  O     0.96587   0.11173   0.68846   0.00000  Uiso   1.00
C1036  C     0.99210   0.07394   0.67767   0.00000  Uiso   1.00
H1037  H     0.66767   0.06158   0.71240   0.00000  Uiso   1.00
H1038  H     0.69240   0.07731   0.64484   0.00000  Uiso   1.00
H1039  H     0.96898   0.05094   0.66540   0.00000  Uiso   1.00
O1040  O     0.79480   0.20709   0.59931   0.00000  Uiso   1.00
C1041  C     0.74870   0.18989   0.60507   0.00000  Uiso   1.00
H1042  H     0.72187   0.20646   0.63751   0.00000  Uiso   1.00
H1043  H     0.74776   0.15696   0.61582   0.00000  Uiso   1.00
H1044  H     0.73666   0.19490   0.56978   0.00000  Uiso   1.00
O1045  O     0.73174   0.11288   0.89840   0.00000  Uiso   1.00
C1046  C     0.75074   0.07297   0.88214   0.00000  Uiso   1.00
H1047  H     0.74159   0.05132   0.91512   0.00000  Uiso   1.00
H1048  H     0.79098   0.07308   0.86378   0.00000  Uiso   1.00
H1049  H     0.73370   0.06132   0.85246   0.00000  Uiso   1.00
H1050  H     0.78071   0.11984   0.54422   0.00000  Uiso   1.00
O1051  O     0.85434   0.23622   0.87774   0.00000  Uiso   1.00
C1052  C     0.81580   0.26511   0.89721   0.00000  Uiso   1.00
H1053  H     0.82215   0.28428   0.92934   0.00000  Uiso   1.00
H1054  H     0.77978   0.24987   0.91036   0.00000  Uiso   1.00
H1055  H     0.81381   0.28618   0.86586   0.00000  Uiso   1.00
H1056  H     0.88572   0.29359   0.79077   0.00000  Uiso   1.00
O1057  O     0.12708   0.56011   0.75001   0.00000  Uiso   1.00
O1058  O     0.20627   0.56012   0.75001   0.00000  Uiso   1.00
C1059  C     0.16671   0.57924   0.74887   0.00000  Uiso   1.00
O1060  O     0.10775   0.49998   0.82549   0.00000  Uiso   1.00
O1061  O     0.18694   0.49999   0.82549   0.00000  Uiso   1.00
C1062  C     0.14080   0.50003   0.84996   0.00000  Uiso   1.00
Cu1063 Cu    0.11978   0.49999   0.75000   0.00000  Uiso   1.00
Cu1064 Cu    0.21355   0.50001   0.75000   0.00000  Uiso   1.00
O1065  O     0.12706   0.43988   0.75000   0.00000  Uiso   1.00
O1066  O     0.20625   0.43989   0.75000   0.00000  Uiso   1.00
O1067  O     0.14640   0.50001   0.67451   0.00000  Uiso   1.00
O1068  O     0.22559   0.50002   0.67451   0.00000  Uiso   1.00
C1069  C     0.16708   0.42073   0.74950   0.00000  Uiso   1.00
C1070  C     0.19232   0.50226   0.65004   0.00000  Uiso   1.00
C1071  C     0.26103   0.53308   0.51312   0.00000  Uiso   1.00
H1072  H     0.25860   0.56776   0.92235   0.00000  Uiso   1.00
H1073  H     0.29693   0.54354   0.99178   0.00000  Uiso   1.00
C1074  C     0.20502   0.50953   0.59361   0.00000  Uiso   1.00
C1075  C     0.09236   0.46417   0.92782   0.00000  Uiso   1.00
C1076  C     0.08733   0.45070   0.97824   0.00000  Uiso   1.00
C1077  C     0.11570   0.46722   0.50750   0.00000  Uiso   1.00
C1078  C     0.14776   0.49959   0.98841   0.00000  Uiso   1.00
C1079  C     0.15404   0.51337   0.93723   0.00000  Uiso   1.00
C1080  C     0.17825   0.51518   0.51694   0.00000  Uiso   1.00
C1081  C     0.22295   0.53249   0.98987   0.00000  Uiso   1.00
C1082  C     0.22752   0.54908   0.94099   0.00000  Uiso   1.00
C1083  C     0.18959   0.54409   0.91801   0.00000  Uiso   1.00
C1084  C     0.16617   0.51456   0.57138   0.00000  Uiso   1.00
C1085  C     0.25333   0.51713   0.56319   0.00000  Uiso   1.00
C1086  C     0.12648   0.49499   0.90654   0.00000  Uiso   1.00
H1087  H     0.06280   0.42591   0.99400   0.00000  Uiso   1.00
C1088  C     0.19754   0.64465   0.77115   0.00000  Uiso   1.00
C1089  C     0.19822   0.35441   0.77253   0.00000  Uiso   1.00
C1090  C     0.16825   0.37602   0.74780   0.00000  Uiso   1.00
C1091  C     0.13980   0.35505   0.72067   0.00000  Uiso   1.00
C1092  C     0.13695   0.64549   0.72296   0.00000  Uiso   1.00
C1093  C     0.16688   0.62383   0.74739   0.00000  Uiso   1.00
C1094  C     0.30010   0.52742   0.78034   0.00000  Uiso   1.00
C1095  C     0.01624   0.52724   0.78053   0.00000  Uiso   1.00
N1096  N     0.04931   0.49999   0.74999   0.00000  Uiso   1.00
C1097  C     0.03348   0.47241   0.71985   0.00000  Uiso   1.00
C1098  C     0.31654   0.47174   0.71996   0.00000  Uiso   1.00
N1099  N     0.28402   0.50002   0.75000   0.00000  Uiso   1.00
O1100  O     0.29243   0.51242   0.58323   0.00000  Uiso   1.00
C1101  C     0.31086   0.47190   0.57087   0.00000  Uiso   1.00
H1102  H     0.28363   0.44876   0.59060   0.00000  Uiso   1.00
H1103  H     0.01027   0.46774   0.58468   0.00000  Uiso   1.00
H1104  H     0.32201   0.46597   0.52812   0.00000  Uiso   1.00
O1105  O     0.22332   0.37669   0.80146   0.00000  Uiso   1.00
C1106  C     0.26666   0.35675   0.80440   0.00000  Uiso   1.00
H1107  H     0.29079   0.38021   0.81406   0.00000  Uiso   1.00
H1108  H     0.28724   0.34180   0.76683   0.00000  Uiso   1.00
H1109  H     0.25833   0.33406   0.83623   0.00000  Uiso   1.00
O1110  O     0.11335   0.37646   0.69318   0.00000  Uiso   1.00
C1111  C     0.14348   0.38204   0.64215   0.00000  Uiso   1.00
H1112  H     0.17625   0.40036   0.64187   0.00000  Uiso   1.00
H1113  H     0.12244   0.39954   0.62025   0.00000  Uiso   1.00
H1114  H     0.15467   0.35193   0.62154   0.00000  Uiso   1.00
O1115  O     0.10912   0.62443   0.69661   0.00000  Uiso   1.00
C1116  C     0.05938   0.62805   0.72522   0.00000  Uiso   1.00
H1117  H     0.05323   0.62030   0.76689   0.00000  Uiso   1.00
H1118  H     0.03831   0.60596   0.70858   0.00000  Uiso   1.00
H1119  H     0.04464   0.65941   0.72206   0.00000  Uiso   1.00
H1120  H     0.27472   0.54954   0.80456   0.00000  Uiso   1.00
H1121  H     0.02804   0.54907   0.80511   0.00000  Uiso   1.00
H1122  H     0.06017   0.45139   0.69547   0.00000  Uiso   1.00
O1123  O     0.29920   0.44506   0.68846   0.00000  Uiso   1.00
C1124  C     0.32544   0.40727   0.67767   0.00000  Uiso   1.00
H1125  H     0.00100   0.39491   0.71240   0.00000  Uiso   1.00
H1126  H     0.02573   0.41064   0.64484   0.00000  Uiso   1.00
H1127  H     0.30232   0.38428   0.66540   0.00000  Uiso   1.00
O1128  O     0.12813   0.54042   0.59931   0.00000  Uiso   1.00
C1129  C     0.08203   0.52323   0.60507   0.00000  Uiso   1.00
H1130  H     0.05520   0.53979   0.63751   0.00000  Uiso   1.00
H1131  H     0.08109   0.49029   0.61582   0.00000  Uiso   1.00
H1132  H     0.06999   0.52824   0.56978   0.00000  Uiso   1.00
O1133  O     0.06507   0.44621   0.89840   0.00000  Uiso   1.00
C1134  C     0.08407   0.40630   0.88214   0.00000  Uiso   1.00
H1135  H     0.07492   0.38465   0.91512   0.00000  Uiso   1.00
H1136  H     0.12431   0.40641   0.86378   0.00000  Uiso   1.00
H1137  H     0.06704   0.39466   0.85246   0.00000  Uiso   1.00
H1138  H     0.11404   0.45317   0.54422   0.00000  Uiso   1.00
O1139  O     0.18767   0.56955   0.87774   0.00000  Uiso   1.00
C1140  C     0.14914   0.59844   0.89721   0.00000  Uiso   1.00
H1141  H     0.15548   0.61761   0.92934   0.00000  Uiso   1.00
H1142  H     0.11311   0.58321   0.91036   0.00000  Uiso   1.00
H1143  H     0.14714   0.61952   0.86586   0.00000  Uiso   1.00
H1144  H     0.21906   0.62692   0.79077   0.00000  Uiso   1.00
O1145  O     0.46042   0.56011   0.75001   0.00000  Uiso   1.00
O1146  O     0.53961   0.56012   0.75001   0.00000  Uiso   1.00
C1147  C     0.50004   0.57924   0.74887   0.00000  Uiso   1.00
O1148  O     0.44108   0.49998   0.82549   0.00000  Uiso   1.00
O1149  O     0.52027   0.49999   0.82549   0.00000  Uiso   1.00
C1150  C     0.47414   0.50003   0.84996   0.00000  Uiso   1.00
Cu1151 Cu    0.45311   0.49999   0.75000   0.00000  Uiso   1.00
Cu1152 Cu    0.54689   0.50001   0.75000   0.00000  Uiso   1.00
O1153  O     0.46039   0.43988   0.75000   0.00000  Uiso   1.00
O1154  O     0.53958   0.43989   0.75000   0.00000  Uiso   1.00
O1155  O     0.47973   0.50001   0.67451   0.00000  Uiso   1.00
O1156  O     0.55892   0.50002   0.67451   0.00000  Uiso   1.00
C1157  C     0.50042   0.42073   0.74950   0.00000  Uiso   1.00
C1158  C     0.52565   0.50226   0.65004   0.00000  Uiso   1.00
C1159  C     0.59436   0.53308   0.51312   0.00000  Uiso   1.00
H1160  H     0.59193   0.56776   0.92235   0.00000  Uiso   1.00
H1161  H     0.63027   0.54354   0.99178   0.00000  Uiso   1.00
C1162  C     0.53835   0.50953   0.59361   0.00000  Uiso   1.00
C1163  C     0.42569   0.46417   0.92782   0.00000  Uiso   1.00
C1164  C     0.42067   0.45070   0.97824   0.00000  Uiso   1.00
C1165  C     0.44903   0.46722   0.50750   0.00000  Uiso   1.00
C1166  C     0.48109   0.49959   0.98841   0.00000  Uiso   1.00
C1167  C     0.48737   0.51337   0.93723   0.00000  Uiso   1.00
C1168  C     0.51159   0.51518   0.51694   0.00000  Uiso   1.00
C1169  C     0.55628   0.53249   0.98987   0.00000  Uiso   1.00
C1170  C     0.56085   0.54908   0.94099   0.00000  Uiso   1.00
C1171  C     0.52293   0.54409   0.91801   0.00000  Uiso   1.00
C1172  C     0.49950   0.51456   0.57138   0.00000  Uiso   1.00
C1173  C     0.58667   0.51713   0.56319   0.00000  Uiso   1.00
C1174  C     0.45982   0.49499   0.90654   0.00000  Uiso   1.00
H1175  H     0.39614   0.42591   0.99400   0.00000  Uiso   1.00
C1176  C     0.53087   0.64465   0.77115   0.00000  Uiso   1.00
C1177  C     0.53155   0.35441   0.77253   0.00000  Uiso   1.00
C1178  C     0.50159   0.37602   0.74780   0.00000  Uiso   1.00
C1179  C     0.47313   0.35505   0.72067   0.00000  Uiso   1.00
C1180  C     0.47029   0.64549   0.72296   0.00000  Uiso   1.00
C1181  C     0.50021   0.62383   0.74739   0.00000  Uiso   1.00
C1182  C     0.63343   0.52742   0.78034   0.00000  Uiso   1.00
C1183  C     0.34958   0.52724   0.78053   0.00000  Uiso   1.00
N1184  N     0.38265   0.49999   0.74999   0.00000  Uiso   1.00
C1185  C     0.36681   0.47241   0.71985   0.00000  Uiso   1.00
C1186  C     0.64988   0.47174   0.71996   0.00000  Uiso   1.00
N1187  N     0.61735   0.50002   0.75000   0.00000  Uiso   1.00
O1188  O     0.62576   0.51242   0.58323   0.00000  Uiso   1.00
C1189  C     0.64420   0.47190   0.57087   0.00000  Uiso   1.00
H1190  H     0.61696   0.44876   0.59060   0.00000  Uiso   1.00
H1191  H     0.34360   0.46774   0.58468   0.00000  Uiso   1.00
H1192  H     0.65534   0.46597   0.52812   0.00000  Uiso   1.00
O1193  O     0.55665   0.37669   0.80146   0.00000  Uiso   1.00
C1194  C     0.59999   0.35675   0.80440   0.00000  Uiso   1.00
H1195  H     0.62412   0.38021   0.81406   0.00000  Uiso   1.00
H1196  H     0.62057   0.34180   0.76683   0.00000  Uiso   1.00
H1197  H     0.59166   0.33406   0.83623   0.00000  Uiso   1.00
O1198  O     0.44668   0.37646   0.69318   0.00000  Uiso   1.00
C1199  C     0.47682   0.38204   0.64215   0.00000  Uiso   1.00
H1200  H     0.50959   0.40036   0.64187   0.00000  Uiso   1.00
H1201  H     0.45578   0.39954   0.62025   0.00000  Uiso   1.00
H1202  H     0.48801   0.35193   0.62154   0.00000  Uiso   1.00
O1203  O     0.44245   0.62443   0.69661   0.00000  Uiso   1.00
C1204  C     0.39271   0.62805   0.72522   0.00000  Uiso   1.00
H1205  H     0.38656   0.62030   0.76689   0.00000  Uiso   1.00
H1206  H     0.37164   0.60596   0.70858   0.00000  Uiso   1.00
H1207  H     0.37798   0.65941   0.72206   0.00000  Uiso   1.00
H1208  H     0.60806   0.54954   0.80456   0.00000  Uiso   1.00
H1209  H     0.36138   0.54907   0.80511   0.00000  Uiso   1.00
H1210  H     0.39350   0.45139   0.69547   0.00000  Uiso   1.00
O1211  O     0.63253   0.44506   0.68846   0.00000  Uiso   1.00
C1212  C     0.65877   0.40727   0.67767   0.00000  Uiso   1.00
H1213  H     0.33434   0.39491   0.71240   0.00000  Uiso   1.00
H1214  H     0.35906   0.41064   0.64484   0.00000  Uiso   1.00
H1215  H     0.63565   0.38428   0.66540   0.00000  Uiso   1.00
O1216  O     0.46147   0.54042   0.59931   0.00000  Uiso   1.00
C1217  C     0.41536   0.52323   0.60507   0.00000  Uiso   1.00
H1218  H     0.38853   0.53979   0.63751   0.00000  Uiso   1.00
H1219  H     0.41442   0.49029   0.61582   0.00000  Uiso   1.00
H1220  H     0.40333   0.52824   0.56978   0.00000  Uiso   1.00
O1221  O     0.39841   0.44621   0.89840   0.00000  Uiso   1.00
C1222  C     0.41741   0.40630   0.88214   0.00000  Uiso   1.00
H1223  H     0.40826   0.38465   0.91512   0.00000  Uiso   1.00
H1224  H     0.45764   0.40641   0.86378   0.00000  Uiso   1.00
H1225  H     0.40037   0.39466   0.85246   0.00000  Uiso   1.00
H1226  H     0.44737   0.45317   0.54422   0.00000  Uiso   1.00
O1227  O     0.52101   0.56955   0.87774   0.00000  Uiso   1.00
C1228  C     0.48247   0.59844   0.89721   0.00000  Uiso   1.00
H1229  H     0.48881   0.61761   0.92934   0.00000  Uiso   1.00
H1230  H     0.44645   0.58321   0.91036   0.00000  Uiso   1.00
H1231  H     0.48048   0.61952   0.86586   0.00000  Uiso   1.00
H1232  H     0.55239   0.62692   0.79077   0.00000  Uiso   1.00
O1233  O     0.79375   0.56011   0.75001   0.00000  Uiso   1.00
O1234  O     0.87294   0.56012   0.75001   0.00000  Uiso   1.00
C1235  C     0.83338   0.57924   0.74887   0.00000  Uiso   1.00
O1236  O     0.77441   0.49998   0.82549   0.00000  Uiso   1.00
O1237  O     0.85360   0.49999   0.82549   0.00000  Uiso   1.00
C1238  C     0.80747   0.50003   0.84996   0.00000  Uiso   1.00
Cu1239 Cu    0.78645   0.49999   0.75000   0.00000  Uiso   1.00
Cu1240 Cu    0.88022   0.50001   0.75000   0.00000  Uiso   1.00
O1241  O     0.79373   0.43988   0.75000   0.00000  Uiso   1.00
O1242  O     0.87292   0.43989   0.75000   0.00000  Uiso   1.00
O1243  O     0.81306   0.50001   0.67451   0.00000  Uiso   1.00
O1244  O     0.89225   0.50002   0.67451   0.00000  Uiso   1.00
C1245  C     0.83375   0.42073   0.74950   0.00000  Uiso   1.00
C1246  C     0.85899   0.50226   0.65004   0.00000  Uiso   1.00
C1247  C     0.92769   0.53308   0.51312   0.00000  Uiso   1.00
H1248  H     0.92526   0.56776   0.92235   0.00000  Uiso   1.00
H1249  H     0.96360   0.54354   0.99178   0.00000  Uiso   1.00
C1250  C     0.87169   0.50953   0.59361   0.00000  Uiso   1.00
C1251  C     0.75902   0.46417   0.92782   0.00000  Uiso   1.00
C1252  C     0.75400   0.45070   0.97824   0.00000  Uiso   1.00
C1253  C     0.78236   0.46722   0.50750   0.00000  Uiso   1.00
C1254  C     0.81443   0.49959   0.98841   0.00000  Uiso   1.00
C1255  C     0.82070   0.51337   0.93723   0.00000  Uiso   1.00
C1256  C     0.84492   0.51518   0.51694   0.00000  Uiso   1.00
C1257  C     0.88962   0.53249   0.98987   0.00000  Uiso   1.00
C1258  C     0.89419   0.54908   0.94099   0.00000  Uiso   1.00
C1259  C     0.85626   0.54409   0.91801   0.00000  Uiso   1.00
C1260  C     0.83283   0.51456   0.57138   0.00000  Uiso   1.00
C1261  C     0.92000   0.51713   0.56319   0.00000  Uiso   1.00
C1262  C     0.79315   0.49499   0.90654   0.00000  Uiso   1.00
H1263  H     0.72947   0.42591   0.99400   0.00000  Uiso   1.00
C1264  C     0.86420   0.64465   0.77115   0.00000  Uiso   1.00
C1265  C     0.86488   0.35441   0.77253   0.00000  Uiso   1.00
C1266  C     0.83492   0.37602   0.74780   0.00000  Uiso   1.00
C1267  C     0.80646   0.35505   0.72067   0.00000  Uiso   1.00
C1268  C     0.80362   0.64549   0.72296   0.00000  Uiso   1.00
C1269  C     0.83354   0.62383   0.74739   0.00000  Uiso   1.00
C1270  C     0.96677   0.52742   0.78034   0.00000  Uiso   1.00
C1271  C     0.68291   0.52724   0.78053   0.00000  Uiso   1.00
N1272  N     0.71598   0.49999   0.74999   0.00000  Uiso   1.00
C1273  C     0.70014   0.47241   0.71985   0.00000  Uiso   1.00
C1274  C     0.98321   0.47174   0.71996   0.00000  Uiso   1.00
N1275  N     0.95069   0.50002   0.75000   0.00000  Uiso   1.00
O1276  O     0.95909   0.51242   0.58323   0.00000  Uiso   1.00
C1277  C     0.97753   0.47190   0.57087   0.00000  Uiso   1.00
H1278  H     0.95030   0.44876   0.59060   0.00000  Uiso   1.00
H1279  H     0.67694   0.46774   0.58468   0.00000  Uiso   1.00
H1280  H     0.98868   0.46597   0.52812   0.00000  Uiso   1.00
O1281  O     0.88998   0.37669   0.80146   0.00000  Uiso   1.00
C1282  C     0.93333   0.35675   0.80440   0.00000  Uiso   1.00
H1283  H     0.95745   0.38021   0.81406   0.00000  Uiso   1.00
H1284  H     0.95390   0.34180   0.76683   0.00000  Uiso   1.00
H1285  H     0.92500   0.33406   0.83623   0.00000  Uiso   1.00
O1286  O     0.78002   0.37646   0.69318   0.00000  Uiso   1.00
C1287  C     0.81015   0.38204   0.64215   0.00000  Uiso   1.00
H1288  H     0.84292   0.40036   0.64187   0.00000  Uiso   1.00
H1289  H     0.78911   0.39954   0.62025   0.00000  Uiso   1.00
H1290  H     0.82134   0.35193   0.62154   0.00000  Uiso   1.00
O1291  O     0.77578   0.62443   0.69661   0.00000  Uiso   1.00
C1292  C     0.72605   0.62805   0.72522   0.00000  Uiso   1.00
H1293  H     0.71989   0.62030   0.76689   0.00000  Uiso   1.00
H1294  H     0.70498   0.60596   0.70858   0.00000  Uiso   1.00
H1295  H     0.71131   0.65941   0.72206   0.00000  Uiso   1.00
H1296  H     0.94139   0.54954   0.80456   0.00000  Uiso   1.00
H1297  H     0.69471   0.54907   0.80511   0.00000  Uiso   1.00
H1298  H     0.72683   0.45139   0.69547   0.00000  Uiso   1.00
O1299  O     0.96587   0.44506   0.68846   0.00000  Uiso   1.00
C1300  C     0.99210   0.40727   0.67767   0.00000  Uiso   1.00
H1301  H     0.66767   0.39491   0.71240   0.00000  Uiso   1.00
H1302  H     0.69240   0.41064   0.64484   0.00000  Uiso   1.00
H1303  H     0.96898   0.38428   0.66540   0.00000  Uiso   1.00
O1304  O     0.79480   0.54042   0.59931   0.00000  Uiso   1.00
C1305  C     0.74870   0.52323   0.60507   0.00000  Uiso   1.00
H1306  H     0.72187   0.53979   0.63751   0.00000  Uiso   1.00
H1307  H     0.74776   0.49029   0.61582   0.00000  Uiso   1.00
H1308  H     0.73666   0.52824   0.56978   0.00000  Uiso   1.00
O1309  O     0.73174   0.44621   0.89840   0.00000  Uiso   1.00
C1310  C     0.75074   0.40630   0.88214   0.00000  Uiso   1.00
H1311  H     0.74159   0.38465   0.91512   0.00000  Uiso   1.00
H1312  H     0.79098   0.40641   0.86378   0.00000  Uiso   1.00
H1313  H     0.73370   0.39466   0.85246   0.00000  Uiso   1.00
H1314  H     0.78071   0.45317   0.54422   0.00000  Uiso   1.00
O1315  O     0.85434   0.56955   0.87774   0.00000  Uiso   1.00
C1316  C     0.81580   0.59844   0.89721   0.00000  Uiso   1.00
H1317  H     0.82215   0.61761   0.92934   0.00000  Uiso   1.00
H1318  H     0.77978   0.58321   0.91036   0.00000  Uiso   1.00
H1319  H     0.81381   0.61952   0.86586   0.00000  Uiso   1.00
H1320  H     0.88572   0.62692   0.79077   0.00000  Uiso   1.00
O1321  O     0.12708   0.89345   0.75001   0.00000  Uiso   1.00
O1322  O     0.20627   0.89346   0.75001   0.00000  Uiso   1.00
C1323  C     0.16671   0.91257   0.74887   0.00000  Uiso   1.00
O1324  O     0.10775   0.83332   0.82549   0.00000  Uiso   1.00
O1325  O     0.18694   0.83333   0.82549   0.00000  Uiso   1.00
C1326  C     0.14080   0.83337   0.84996   0.00000  Uiso   1.00
Cu1327 Cu    0.11978   0.83333   0.75000   0.00000  Uiso   1.00
Cu1328 Cu    0.21355   0.83334   0.75000   0.00000  Uiso   1.00
O1329  O     0.12706   0.77321   0.75000   0.00000  Uiso   1.00
O1330  O     0.20625   0.77322   0.75000   0.00000  Uiso   1.00
O1331  O     0.14640   0.83334   0.67451   0.00000  Uiso   1.00
O1332  O     0.22559   0.83335   0.67451   0.00000  Uiso   1.00
C1333  C     0.16708   0.75406   0.74950   0.00000  Uiso   1.00
C1334  C     0.19232   0.83559   0.65004   0.00000  Uiso   1.00
C1335  C     0.26103   0.86642   0.51312   0.00000  Uiso   1.00
H1336  H     0.25860   0.90109   0.92235   0.00000  Uiso   1.00
H1337  H     0.29693   0.87688   0.99178   0.00000  Uiso   1.00
C1338  C     0.20502   0.84287   0.59361   0.00000  Uiso   1.00
C1339  C     0.09236   0.79750   0.92782   0.00000  Uiso   1.00
C1340  C     0.08733   0.78404   0.97824   0.00000  Uiso   1.00
C1341  C     0.11570   0.80056   0.50750   0.00000  Uiso   1.00
C1342  C     0.14776   0.83292   0.98841   0.00000  Uiso   1.00
C1343  C     0.15404   0.84671   0.93723   0.00000  Uiso   1.00
C1344  C     0.17825   0.84852   0.51694   0.00000  Uiso   1.00
C1345  C     0.22295   0.86583   0.98987   0.00000  Uiso   1.00
C1346  C     0.22752   0.88241   0.94099   0.00000  Uiso   1.00
C1347  C     0.18959   0.87743   0.91801   0.00000  Uiso   1.00
C1348  C     0.16617   0.84790   0.57138   0.00000  Uiso   1.00
C1349  C     0.25333   0.85046   0.56319   0.00000  Uiso   1.00
C1350  C     0.12648   0.82833   0.90654   0.00000  Uiso   1.00
H1351  H     0.06280   0.75925   0.99400   0.00000  Uiso   1.00
C1352  C     0.19754   0.97799   0.77115   0.00000  Uiso   1.00
C1353  C     0.19822   0.68774   0.77253   0.00000  Uiso   1.00
C1354  C     0.16825   0.70935   0.74780   0.00000  Uiso   1.00
C1355  C     0.13980   0.68838   0.72067   0.00000  Uiso   1.00
C1356  C     0.13695   0.97882   0.72296   0.00000  Uiso   1.00
C1357  C     0.16688   0.95716   0.74739   0.00000  Uiso   1.00
C1358  C     0.30010   0.86075   0.78034   0.00000  Uiso   1.00
C1359  C     0.01624   0.86058   0.78053   0.00000  Uiso   1.00
N1360  N     0.04931   0.83332   0.74999   0.00000  Uiso   1.00
C1361  C     0.03348   0.80575   0.71985   0.00000  Uiso   1.00
C1362  C     0.31654   0.80507   0.71996   0.00000  Uiso   1.00
N1363  N     0.28402   0.83335   0.75000   0.00000  Uiso   1.00
O1364  O     0.29243   0.84575   0.58323   0.00000  Uiso   1.00
C1365  C     0.31086   0.80523   0.57087   0.00000  Uiso   1.00
H1366  H     0.28363   0.78209   0.59060   0.00000  Uiso   1.00
H1367  H     0.01027   0.80108   0.58468   0.00000  Uiso   1.00
H1368  H     0.32201   0.79931   0.52812   0.00000  Uiso   1.00
O1369  O     0.22332   0.71002   0.80146   0.00000  Uiso   1.00
C1370  C     0.26666   0.69008   0.80440   0.00000  Uiso   1.00
H1371  H     0.29079   0.71354   0.81406   0.00000  Uiso   1.00
H1372  H     0.28724   0.67513   0.76683   0.00000  Uiso   1.00
H1373  H     0.25833   0.66740   0.83623   0.00000  Uiso   1.00
O1374  O     0.11335   0.70980   0.69318   0.00000  Uiso   1.00
C1375  C     0.14348   0.71537   0.64215   0.00000  Uiso   1.00
H1376  H     0.17625   0.73370   0.64187   0.00000  Uiso   1.00
H1377  H     0.12244   0.73287   0.62025   0.00000  Uiso   1.00
H1378  H     0.15467   0.68526   0.62154   0.00000  Uiso   1.00
O1379  O     0.10912   0.95776   0.69661   0.00000  Uiso   1.00
C1380  C     0.05938   0.96139   0.72522   0.00000  Uiso   1.00
H1381  H     0.05323   0.95363   0.76689   0.00000  Uiso   1.00
H1382  H     0.03831   0.93929   0.70858   0.00000  Uiso   1.00
H1383  H     0.04464   0.99275   0.72206   0.00000  Uiso   1.00
H1384  H     0.27472   0.88287   0.80456   0.00000  Uiso   1.00
H1385  H     0.02804   0.88240   0.80511   0.00000  Uiso   1.00
H1386  H     0.06017   0.78473   0.69547   0.00000  Uiso   1.00
O1387  O     0.29920   0.77839   0.68846   0.00000  Uiso   1.00
C1388  C     0.32544   0.74061   0.67767   0.00000  Uiso   1.00
H1389  H     0.00100   0.72824   0.71240   0.00000  Uiso   1.00
H1390  H     0.02573   0.74398   0.64484   0.00000  Uiso   1.00
H1391  H     0.30232   0.71761   0.66540   0.00000  Uiso   1.00
O1392  O     0.12813   0.87375   0.59931   0.00000  Uiso   1.00
C1393  C     0.08203   0.85656   0.60507   0.00000  Uiso   1.00
H1394  H     0.05520   0.87313   0.63751   0.00000  Uiso   1.00
H1395  H     0.08109   0.82362   0.61582   0.00000  Uiso   1.00
H1396  H     0.06999   0.86157   0.56978   0.00000  Uiso   1.00
O1397  O     0.06507   0.77954   0.89840   0.00000  Uiso   1.00
C1398  C     0.08407   0.73964   0.88214   0.00000  Uiso   1.00
H1399  H     0.07492   0.71798   0.91512   0.00000  Uiso   1.00
H1400  H     0.12431   0.73974   0.86378   0.00000  Uiso   1.00
H1401  H     0.06704   0.72799   0.85246   0.00000  Uiso   1.00
H1402  H     0.11404   0.78651   0.54422   0.00000  Uiso   1.00
O1403  O     0.18767   0.90288   0.87774   0.00000  Uiso   1.00
C1404  C     0.14914   0.93177   0.89721   0.00000  Uiso   1.00
H1405  H     0.15548   0.95095   0.92934   0.00000  Uiso   1.00
H1406  H     0.11311   0.91654   0.91036   0.00000  Uiso   1.00
H1407  H     0.14714   0.95285   0.86586   0.00000  Uiso   1.00
H1408  H     0.21906   0.96026   0.79077   0.00000  Uiso   1.00
O1409  O     0.46042   0.89345   0.75001   0.00000  Uiso   1.00
O1410  O     0.53961   0.89346   0.75001   0.00000  Uiso   1.00
C1411  C     0.50004   0.91257   0.74887   0.00000  Uiso   1.00
O1412  O     0.44108   0.83332   0.82549   0.00000  Uiso   1.00
O1413  O     0.52027   0.83333   0.82549   0.00000  Uiso   1.00
C1414  C     0.47414   0.83337   0.84996   0.00000  Uiso   1.00
Cu1415 Cu    0.45311   0.83333   0.75000   0.00000  Uiso   1.00
Cu1416 Cu    0.54689   0.83334   0.75000   0.00000  Uiso   1.00
O1417  O     0.46039   0.77321   0.75000   0.00000  Uiso   1.00
O1418  O     0.53958   0.77322   0.75000   0.00000  Uiso   1.00
O1419  O     0.47973   0.83334   0.67451   0.00000  Uiso   1.00
O1420  O     0.55892   0.83335   0.67451   0.00000  Uiso   1.00
C1421  C     0.50042   0.75406   0.74950   0.00000  Uiso   1.00
C1422  C     0.52565   0.83559   0.65004   0.00000  Uiso   1.00
C1423  C     0.59436   0.86642   0.51312   0.00000  Uiso   1.00
H1424  H     0.59193   0.90109   0.92235   0.00000  Uiso   1.00
H1425  H     0.63027   0.87688   0.99178   0.00000  Uiso   1.00
C1426  C     0.53835   0.84287   0.59361   0.00000  Uiso   1.00
C1427  C     0.42569   0.79750   0.92782   0.00000  Uiso   1.00
C1428  C     0.42067   0.78404   0.97824   0.00000  Uiso   1.00
C1429  C     0.44903   0.80056   0.50750   0.00000  Uiso   1.00
C1430  C     0.48109   0.83292   0.98841   0.00000  Uiso   1.00
C1431  C     0.48737   0.84671   0.93723   0.00000  Uiso   1.00
C1432  C     0.51159   0.84852   0.51694   0.00000  Uiso   1.00
C1433  C     0.55628   0.86583   0.98987   0.00000  Uiso   1.00
C1434  C     0.56085   0.88241   0.94099   0.00000  Uiso   1.00
C1435  C     0.52293   0.87743   0.91801   0.00000  Uiso   1.00
C1436  C     0.49950   0.84790   0.57138   0.00000  Uiso   1.00
C1437  C     0.58667   0.85046   0.56319   0.00000  Uiso   1.00
C1438  C     0.45982   0.82833   0.90654   0.00000  Uiso   1.00
H1439  H     0.39614   0.75925   0.99400   0.00000  Uiso   1.00
C1440  C     0.53087   0.97799   0.77115   0.00000  Uiso   1.00
C1441  C     0.53155   0.68774   0.77253   0.00000  Uiso   1.00
C1442  C     0.50159   0.70935   0.74780   0.00000  Uiso   1.00
C1443  C     0.47313   0.68838   0.72067   0.00000  Uiso   1.00
C1444  C     0.47029   0.97882   0.72296   0.00000  Uiso   1.00
C1445  C     0.50021   0.95716   0.74739   0.00000  Uiso   1.00
C1446  C     0.63343   0.86075   0.78034   0.00000  Uiso   1.00
C1447  C     0.34958   0.86058   0.78053   0.00000  Uiso   1.00
N1448  N     0.38265   0.83332   0.74999   0.00000  Uiso   1.00
C1449  C     0.36681   0.80575   0.71985   0.00000  Uiso   1.00
C1450  C     0.64988   0.80507   0.71996   0.00000  Uiso   1.00
N1451  N     0.61735   0.83335   0.75000   0.00000  Uiso   1.00
O1452  O     0.62576   0.84575   0.58323   0.00000  Uiso   1.00
C1453  C     0.64420   0.80523   0.57087   0.00000  Uiso   1.00
H1454  H     0.61696   0.78209   0.59060   0.00000  Uiso   1.00
H1455  H     0.34360   0.80108   0.58468   0.00000  Uiso   1.00
H1456  H     0.65534   0.79931   0.52812   0.00000  Uiso   1.00
O1457  O     0.55665   0.71002   0.80146   0.00000  Uiso   1.00
C1458  C     0.59999   0.69008   0.80440   0.00000  Uiso   1.00
H1459  H     0.62412   0.71354   0.81406   0.00000  Uiso   1.00
H1460  H     0.62057   0.67513   0.76683   0.00000  Uiso   1.00
H1461  H     0.59166   0.66740   0.83623   0.00000  Uiso   1.00
O1462  O     0.44668   0.70980   0.69318   0.00000  Uiso   1.00
C1463  C     0.47682   0.71537   0.64215   0.00000  Uiso   1.00
H1464  H     0.50959   0.73370   0.64187   0.00000  Uiso   1.00
H1465  H     0.45578   0.73287   0.62025   0.00000  Uiso   1.00
H1466  H     0.48801   0.68526   0.62154   0.00000  Uiso   1.00
O1467  O     0.44245   0.95776   0.69661   0.00000  Uiso   1.00
C1468  C     0.39271   0.96139   0.72522   0.00000  Uiso   1.00
H1469  H     0.38656   0.95363   0.76689   0.00000  Uiso   1.00
H1470  H     0.37164   0.93929   0.70858   0.00000  Uiso   1.00
H1471  H     0.37798   0.99275   0.72206   0.00000  Uiso   1.00
H1472  H     0.60806   0.88287   0.80456   0.00000  Uiso   1.00
H1473  H     0.36138   0.88240   0.80511   0.00000  Uiso   1.00
H1474  H     0.39350   0.78473   0.69547   0.00000  Uiso   1.00
O1475  O     0.63253   0.77839   0.68846   0.00000  Uiso   1.00
C1476  C     0.65877   0.74061   0.67767   0.00000  Uiso   1.00
H1477  H     0.33434   0.72824   0.71240   0.00000  Uiso   1.00
H1478  H     0.35906   0.74398   0.64484   0.00000  Uiso   1.00
H1479  H     0.63565   0.71761   0.66540   0.00000  Uiso   1.00
O1480  O     0.46147   0.87375   0.59931   0.00000  Uiso   1.00
C1481  C     0.41536   0.85656   0.60507   0.00000  Uiso   1.00
H1482  H     0.38853   0.87313   0.63751   0.00000  Uiso   1.00
H1483  H     0.41442   0.82362   0.61582   0.00000  Uiso   1.00
H1484  H     0.40333   0.86157   0.56978   0.00000  Uiso   1.00
O1485  O     0.39841   0.77954   0.89840   0.00000  Uiso   1.00
C1486  C     0.41741   0.73964   0.88214   0.00000  Uiso   1.00
H1487  H     0.40826   0.71798   0.91512   0.00000  Uiso   1.00
H1488  H     0.45764   0.73974   0.86378   0.00000  Uiso   1.00
H1489  H     0.40037   0.72799   0.85246   0.00000  Uiso   1.00
H1490  H     0.44737   0.78651   0.54422   0.00000  Uiso   1.00
O1491  O     0.52101   0.90288   0.87774   0.00000  Uiso   1.00
C1492  C     0.48247   0.93177   0.89721   0.00000  Uiso   1.00
H1493  H     0.48881   0.95095   0.92934   0.00000  Uiso   1.00
H1494  H     0.44645   0.91654   0.91036   0.00000  Uiso   1.00
H1495  H     0.48048   0.95285   0.86586   0.00000  Uiso   1.00
H1496  H     0.55239   0.96026   0.79077   0.00000  Uiso   1.00
O1497  O     0.79375   0.89345   0.75001   0.00000  Uiso   1.00
O1498  O     0.87294   0.89346   0.75001   0.00000  Uiso   1.00
C1499  C     0.83338   0.91257   0.74887   0.00000  Uiso   1.00
O1500  O     0.77441   0.83332   0.82549   0.00000  Uiso   1.00
O1501  O     0.85360   0.83333   0.82549   0.00000  Uiso   1.00
C1502  C     0.80747   0.83337   0.84996   0.00000  Uiso   1.00
Cu1503 Cu    0.78645   0.83333   0.75000   0.00000  Uiso   1.00
Cu1504 Cu    0.88022   0.83334   0.75000   0.00000  Uiso   1.00
O1505  O     0.79373   0.77321   0.75000   0.00000  Uiso   1.00
O1506  O     0.87292   0.77322   0.75000   0.00000  Uiso   1.00
O1507  O     0.81306   0.83334   0.67451   0.00000  Uiso   1.00
O1508  O     0.89225   0.83335   0.67451   0.00000  Uiso   1.00
C1509  C     0.83375   0.75406   0.74950   0.00000  Uiso   1.00
C1510  C     0.85899   0.83559   0.65004   0.00000  Uiso   1.00
C1511  C     0.92769   0.86642   0.51312   0.00000  Uiso   1.00
H1512  H     0.92526   0.90109   0.92235   0.00000  Uiso   1.00
H1513  H     0.96360   0.87688   0.99178   0.00000  Uiso   1.00
C1514  C     0.87169   0.84287   0.59361   0.00000  Uiso   1.00
C1515  C     0.75902   0.79750   0.92782   0.00000  Uiso   1.00
C1516  C     0.75400   0.78404   0.97824   0.00000  Uiso   1.00
C1517  C     0.78236   0.80056   0.50750   0.00000  Uiso   1.00
C1518  C     0.81443   0.83292   0.98841   0.00000  Uiso   1.00
C1519  C     0.82070   0.84671   0.93723   0.00000  Uiso   1.00
C1520  C     0.84492   0.84852   0.51694   0.00000  Uiso   1.00
C1521  C     0.88962   0.86583   0.98987   0.00000  Uiso   1.00
C1522  C     0.89419   0.88241   0.94099   0.00000  Uiso   1.00
C1523  C     0.85626   0.87743   0.91801   0.00000  Uiso   1.00
C1524  C     0.83283   0.84790   0.57138   0.00000  Uiso   1.00
C1525  C     0.92000   0.85046   0.56319   0.00000  Uiso   1.00
C1526  C     0.79315   0.82833   0.90654   0.00000  Uiso   1.00
H1527  H     0.72947   0.75925   0.99400   0.00000  Uiso   1.00
C1528  C     0.86420   0.97799   0.77115   0.00000  Uiso   1.00
C1529  C     0.86488   0.68774   0.77253   0.00000  Uiso   1.00
C1530  C     0.83492   0.70935   0.74780   0.00000  Uiso   1.00
C1531  C     0.80646   0.68838   0.72067   0.00000  Uiso   1.00
C1532  C     0.80362   0.97882   0.72296   0.00000  Uiso   1.00
C1533  C     0.83354   0.95716   0.74739   0.00000  Uiso   1.00
C1534  C     0.96677   0.86075   0.78034   0.00000  Uiso   1.00
C1535  C     0.68291   0.86058   0.78053   0.00000  Uiso   1.00
N1536  N     0.71598   0.83332   0.74999   0.00000  Uiso   1.00
C1537  C     0.70014   0.80575   0.71985   0.00000  Uiso   1.00
C1538  C     0.98321   0.80507   0.71996   0.00000  Uiso   1.00
N1539  N     0.95069   0.83335   0.75000   0.00000  Uiso   1.00
O1540  O     0.95909   0.84575   0.58323   0.00000  Uiso   1.00
C1541  C     0.97753   0.80523   0.57087   0.00000  Uiso   1.00
H1542  H     0.95030   0.78209   0.59060   0.00000  Uiso   1.00
H1543  H     0.67694   0.80108   0.58468   0.00000  Uiso   1.00
H1544  H     0.98868   0.79931   0.52812   0.00000  Uiso   1.00
O1545  O     0.88998   0.71002   0.80146   0.00000  Uiso   1.00
C1546  C     0.93333   0.69008   0.80440   0.00000  Uiso   1.00
H1547  H     0.95745   0.71354   0.81406   0.00000  Uiso   1.00
H1548  H     0.95390   0.67513   0.76683   0.00000  Uiso   1.00
H1549  H     0.92500   0.66740   0.83623   0.00000  Uiso   1.00
O1550  O     0.78002   0.70980   0.69318   0.00000  Uiso   1.00
C1551  C     0.81015   0.71537   0.64215   0.00000  Uiso   1.00
H1552  H     0.84292   0.73370   0.64187   0.00000  Uiso   1.00
H1553  H     0.78911   0.73287   0.62025   0.00000  Uiso   1.00
H1554  H     0.82134   0.68526   0.62154   0.00000  Uiso   1.00
O1555  O     0.77578   0.95776   0.69661   0.00000  Uiso   1.00
C1556  C     0.72605   0.96139   0.72522   0.00000  Uiso   1.00
H1557  H     0.71989   0.95363   0.76689   0.00000  Uiso   1.00
H1558  H     0.70498   0.93929   0.70858   0.00000  Uiso   1.00
H1559  H     0.71131   0.99275   0.72206   0.00000  Uiso   1.00
H1560  H     0.94139   0.88287   0.80456   0.00000  Uiso   1.00
H1561  H     0.69471   0.88240   0.80511   0.00000  Uiso   1.00
H1562  H     0.72683   0.78473   0.69547   0.00000  Uiso   1.00
O1563  O     0.96587   0.77839   0.68846   0.00000  Uiso   1.00
C1564  C     0.99210   0.74061   0.67767   0.00000  Uiso   1.00
H1565  H     0.66767   0.72824   0.71240   0.00000  Uiso   1.00
H1566  H     0.69240   0.74398   0.64484   0.00000  Uiso   1.00
H1567  H     0.96898   0.71761   0.66540   0.00000  Uiso   1.00
O1568  O     0.79480   0.87375   0.59931   0.00000  Uiso   1.00
C1569  C     0.74870   0.85656   0.60507   0.00000  Uiso   1.00
H1570  H     0.72187   0.87313   0.63751   0.00000  Uiso   1.00
H1571  H     0.74776   0.82362   0.61582   0.00000  Uiso   1.00
H1572  H     0.73666   0.86157   0.56978   0.00000  Uiso   1.00
O1573  O     0.73174   0.77954   0.89840   0.00000  Uiso   1.00
C1574  C     0.75074   0.73964   0.88214   0.00000  Uiso   1.00
H1575  H     0.74159   0.71798   0.91512   0.00000  Uiso   1.00
H1576  H     0.79098   0.73974   0.86378   0.00000  Uiso   1.00
H1577  H     0.73370   0.72799   0.85246   0.00000  Uiso   1.00
H1578  H     0.78071   0.78651   0.54422   0.00000  Uiso   1.00
O1579  O     0.85434   0.90288   0.87774   0.00000  Uiso   1.00
C1580  C     0.81580   0.93177   0.89721   0.00000  Uiso   1.00
H1581  H     0.82215   0.95095   0.92934   0.00000  Uiso   1.00
H1582  H     0.77978   0.91654   0.91036   0.00000  Uiso   1.00
H1583  H     0.81381   0.95285   0.86586   0.00000  Uiso   1.00
H1584  H     0.88572   0.96026   0.79077   0.00000  Uiso   1.00
loop_
_geom_bond_atom_site_label_1
_geom_bond_atom_site_label_2
_geom_bond_distance
_geom_bond_site_symmetry_2
_ccdc_geom_bond_type
O1     C3      1.291   .     A
O1     Cu7     1.964   .     S
O2     Cu8     1.959   .     S
O2     C3      1.290   .     A
C3     C37     1.448   .     S
O4     Cu7     1.956   .     S
O4     C6      1.295   .     A
O5     C6      1.294   .     A
O5     Cu8     1.950   .     S
C6     C30     1.468   .     S
Cu7    Cu8     2.678   .     S
Cu7    O11     1.950   .     S
Cu7    N40     2.013   .     S
Cu7    O9      1.959   .     S
Cu8    N43     2.013   .     S
Cu8    O12     1.956   .     S
Cu8    O10     1.964   .     S
O9     C13     1.291   .     A
O10    C13     1.290   .     A
O11    C14     1.292   .     A
O12    C14     1.302   .     A
C13    C34     1.451   .     S
C14    C18     1.476   .     S
C15    C29     1.405   .     A
C15    H809    1.084   1_554 S
C15    C817    1.400   1_554 S
H16    C26     1.084   .     S
H17    C807    1.084   .     S
C18    C28     1.410   .     A
C18    C29     1.416   .     A
C19    C20     1.396   .     A
C19    O77     1.385   .     S
C19    C30     1.414   .     A
C20    H31     1.082   .     S
C20    C813    1.386   .     S
C21    H82     1.080   .     S
C21    C812    1.386   1_554 S
C21    C814    1.406   1_554 S
C22    C23     1.413   .     A
C22    C813    1.406   .     S
C22    C816    1.407   .     S
C23    C27     1.426   .     A
C23    C30     1.421   .     A
C24    C28     1.403   .     A
C24    C814    1.407   1_554 S
C24    C817    1.405   1_554 S
C25    C26     1.397   .     A
C25    C807    1.400   .     S
C25    C816    1.405   .     S
C26    C27     1.401   .     A
C27    O83     1.382   .     S
C28    O72     1.393   .     S
C29    O44     1.378   .     S
C32    H88     1.082   .     S
C32    C37     1.397   .     A
C32    C297    1.399   .     S
C33    O49     1.398   .     S
C33    C34     1.409   .     A
C33    C560    1.399   1_545 S
C34    C35     1.411   .     A
C35    O54     1.384   .     S
C35    C564    1.396   1_545 S
C36    O59     1.385   .     S
C36    C37     1.404   .     A
C36    C299    1.396   .     S
C38    H64     1.081   .     S
C38    N43     1.367   .     A
C38    C127    1.415   .     S
C39    H65     1.081   .     S
C39    N40     1.365   .     A
C39    C214    1.415   1_455 S
N40    C41     1.363   .     A
C41    H66     1.079   .     S
C41    C218    1.435   1_455 S
C42    O67     1.392   .     S
C42    N43     1.373   .     A
C42    C129    1.435   .     S
O44    C45     1.409   .     S
C45    H46     1.114   .     S
C45    H48     1.113   .     S
C45    H135    1.107   .     S
H47    C221    1.107   1_455 S
O49    C50     1.412   .     S
C50    H52     1.113   .     S
C50    H53     1.111   .     S
C50    H51     1.109   .     S
O54    C55     1.410   .     S
C55    H56     1.113   .     S
C55    H57     1.109   .     S
C55    H58     1.113   .     S
O59    C60     1.412   .     S
C60    H63     1.110   .     S
C60    H62     1.109   .     S
C60    H61     1.114   .     S
O67    C68     1.411   .     S
C68    H71     1.109   .     S
C68    H157    1.112   .     S
C68    H158    1.111   .     S
H69    C244    1.112   1_455 S
H70    C244    1.111   1_455 S
O72    C73     1.405   .     S
C73    H74     1.109   .     S
C73    H75     1.109   .     S
C73    H76     1.109   .     S
O77    C78     1.412   .     S
C78    H80     1.114   .     S
C78    H79     1.111   .     S
C78    H81     1.110   .     S
O83    C84     1.413   .     S
C84    H87     1.105   .     S
C84    H86     1.113   .     S
C84    H85     1.114   .     S
O89    C91     1.291   .     A
O89    Cu95    1.964   .     S
O90    Cu96    1.959   .     S
O90    C91     1.290   .     A
C91    C125    1.448   .     S
O92    Cu95    1.956   .     S
O92    C94     1.295   .     A
O93    C94     1.294   .     A
O93    Cu96    1.950   .     S
C94    C118    1.468   .     S
Cu95   Cu96    2.678   .     S
Cu95   O99     1.950   .     S
Cu95   N128    2.013   .     S
Cu95   O97     1.959   .     S
Cu96   N131    2.013   .     S
Cu96   O100    1.956   .     S
Cu96   O98     1.964   .     S
O97    C101    1.291   .     A
O98    C101    1.290   .     A
O99    C102    1.292   .     A
O100   C102    1.302   .     A
C101   C122    1.451   .     S
C102   C106    1.476   .     S
C103   C117    1.405   .     A
C103   H897    1.084   1_554 S
C103   C905    1.400   1_554 S
H104   C114    1.084   .     S
H105   C895    1.084   .     S
C106   C116    1.410   .     A
C106   C117    1.416   .     A
C107   C108    1.396   .     A
C107   O165    1.385   .     S
C107   C118    1.414   .     A
C108   H119    1.082   .     S
C108   C901    1.386   .     S
C109   H170    1.080   .     S
C109   C900    1.386   1_554 S
C109   C902    1.406   1_554 S
C110   C111    1.413   .     A
C110   C901    1.406   .     S
C110   C904    1.407   .     S
C111   C115    1.426   .     A
C111   C118    1.421   .     A
C112   C116    1.403   .     A
C112   C902    1.407   1_554 S
C112   C905    1.405   1_554 S
C113   C114    1.397   .     A
C113   C895    1.400   .     S
C113   C904    1.405   .     S
C114   C115    1.401   .     A
C115   O171    1.382   .     S
C116   O160    1.393   .     S
C117   O132    1.378   .     S
C120   H176    1.082   .     S
C120   C125    1.397   .     A
C120   C385    1.399   .     S
C121   O137    1.398   .     S
C121   C122    1.409   .     A
C121   C648    1.399   1_545 S
C122   C123    1.411   .     A
C123   O142    1.384   .     S
C123   C652    1.396   1_545 S
C124   O147    1.385   .     S
C124   C125    1.404   .     A
C124   C387    1.396   .     S
C126   H152    1.081   .     S
C126   N131    1.367   .     A
C126   C215    1.415   .     S
C127   H153    1.081   .     S
C127   N128    1.365   .     A
N128   C129    1.363   .     A
C129   H154    1.079   .     S
C130   O155    1.392   .     S
C130   N131    1.373   .     A
C130   C217    1.435   .     S
O132   C133    1.409   .     S
C133   H134    1.114   .     S
C133   H136    1.113   .     S
C133   H223    1.107   .     S
O137   C138    1.412   .     S
C138   H140    1.113   .     S
C138   H141    1.111   .     S
C138   H139    1.109   .     S
O142   C143    1.410   .     S
C143   H144    1.113   .     S
C143   H145    1.109   .     S
C143   H146    1.113   .     S
O147   C148    1.412   .     S
C148   H151    1.110   .     S
C148   H150    1.109   .     S
C148   H149    1.114   .     S
O155   C156    1.411   .     S
C156   H159    1.109   .     S
C156   H245    1.112   .     S
C156   H246    1.111   .     S
O160   C161    1.405   .     S
C161   H162    1.109   .     S
C161   H163    1.109   .     S
C161   H164    1.109   .     S
O165   C166    1.412   .     S
C166   H168    1.114   .     S
C166   H167    1.111   .     S
C166   H169    1.110   .     S
O171   C172    1.413   .     S
C172   H175    1.105   .     S
C172   H174    1.113   .     S
C172   H173    1.114   .     S
O177   C179    1.291   .     A
O177   Cu183   1.964   .     S
O178   Cu184   1.959   .     S
O178   C179    1.290   .     A
C179   C213    1.448   .     S
O180   Cu183   1.956   .     S
O180   C182    1.295   .     A
O181   C182    1.294   .     A
O181   Cu184   1.950   .     S
C182   C206    1.468   .     S
Cu183  Cu184   2.678   .     S
Cu183  O187    1.950   .     S
Cu183  N216    2.013   .     S
Cu183  O185    1.959   .     S
Cu184  N219    2.013   .     S
Cu184  O188    1.956   .     S
Cu184  O186    1.964   .     S
O185   C189    1.291   .     A
O186   C189    1.290   .     A
O187   C190    1.292   .     A
O188   C190    1.302   .     A
C189   C210    1.451   .     S
C190   C194    1.476   .     S
C191   C205    1.405   .     A
C191   H985    1.084   1_554 S
C191   C993    1.400   1_554 S
H192   C202    1.084   .     S
H193   C983    1.084   .     S
C194   C204    1.410   .     A
C194   C205    1.416   .     A
C195   C196    1.396   .     A
C195   O253    1.385   .     S
C195   C206    1.414   .     A
C196   H207    1.082   .     S
C196   C989    1.386   .     S
C197   H258    1.080   .     S
C197   C988    1.386   1_554 S
C197   C990    1.406   1_554 S
C198   C199    1.413   .     A
C198   C989    1.406   .     S
C198   C992    1.407   .     S
C199   C203    1.426   .     A
C199   C206    1.421   .     A
C200   C204    1.403   .     A
C200   C990    1.407   1_554 S
C200   C993    1.405   1_554 S
C201   C202    1.397   .     A
C201   C983    1.400   .     S
C201   C992    1.405   .     S
C202   C203    1.401   .     A
C203   O259    1.382   .     S
C204   O248    1.393   .     S
C205   O220    1.378   .     S
C208   H264    1.082   .     S
C208   C213    1.397   .     A
C208   C473    1.399   .     S
C209   O225    1.398   .     S
C209   C210    1.409   .     A
C209   C736    1.399   1_545 S
C210   C211    1.411   .     A
C211   O230    1.384   .     S
C211   C740    1.396   1_545 S
C212   O235    1.385   .     S
C212   C213    1.404   .     A
C212   C475    1.396   .     S
C214   H240    1.081   .     S
C214   N219    1.367   .     A
C214   C39     1.415   1_655 S
C215   H241    1.081   .     S
C215   N216    1.365   .     A
N216   C217    1.363   .     A
C217   H242    1.079   .     S
C218   O243    1.392   .     S
C218   N219    1.373   .     A
C218   C41     1.435   1_655 S
O220   C221    1.409   .     S
C221   H222    1.114   .     S
C221   H224    1.113   .     S
C221   H47     1.107   1_655 S
O225   C226    1.412   .     S
C226   H228    1.113   .     S
C226   H229    1.111   .     S
C226   H227    1.109   .     S
O230   C231    1.410   .     S
C231   H232    1.113   .     S
C231   H233    1.109   .     S
C231   H234    1.113   .     S
O235   C236    1.412   .     S
C236   H239    1.110   .     S
C236   H238    1.109   .     S
C236   H237    1.114   .     S
O243   C244    1.411   .     S
C244   H247    1.109   .     S
C244   H69     1.112   1_655 S
C244   H70     1.111   1_655 S
O248   C249    1.405   .     S
C249   H250    1.109   .     S
C249   H251    1.109   .     S
C249   H252    1.109   .     S
O253   C254    1.412   .     S
C254   H256    1.114   .     S
C254   H255    1.111   .     S
C254   H257    1.110   .     S
O259   C260    1.413   .     S
C260   H263    1.105   .     S
C260   H262    1.113   .     S
C260   H261    1.114   .     S
O265   C267    1.291   .     A
O265   Cu271   1.964   .     S
O266   Cu272   1.959   .     S
O266   C267    1.290   .     A
C267   C301    1.448   .     S
O268   Cu271   1.956   .     S
O268   C270    1.295   .     A
O269   C270    1.294   .     A
O269   Cu272   1.950   .     S
C270   C294    1.468   .     S
Cu271  Cu272   2.678   .     S
Cu271  O275    1.950   .     S
Cu271  N304    2.013   .     S
Cu271  O273    1.959   .     S
Cu272  N307    2.013   .     S
Cu272  O276    1.956   .     S
Cu272  O274    1.964   .     S
O273   C277    1.291   .     A
O274   C277    1.290   .     A
O275   C278    1.292   .     A
O276   C278    1.302   .     A
C277   C298    1.451   .     S
C278   C282    1.476   .     S
C279   C293    1.405   .     A
C279   H1073   1.084   1_554 S
C279   C1081   1.400   1_554 S
H280   C290    1.084   .     S
H281   C1071   1.084   .     S
C282   C292    1.410   .     A
C282   C293    1.416   .     A
C283   C284    1.396   .     A
C283   O341    1.385   .     S
C283   C294    1.414   .     A
C284   H295    1.082   .     S
C284   C1077   1.386   .     S
C285   H346    1.080   .     S
C285   C1076   1.386   1_554 S
C285   C1078   1.406   1_554 S
C286   C287    1.413   .     A
C286   C1077   1.406   .     S
C286   C1080   1.407   .     S
C287   C291    1.426   .     A
C287   C294    1.421   .     A
C288   C292    1.403   .     A
C288   C1078   1.407   1_554 S
C288   C1081   1.405   1_554 S
C289   C290    1.397   .     A
C289   C1071   1.400   .     S
C289   C1080   1.405   .     S
C290   C291    1.401   .     A
C291   O347    1.382   .     S
C292   O336    1.393   .     S
C293   O308    1.378   .     S
C296   H352    1.082   .     S
C296   C301    1.397   .     A
C296   C561    1.399   .     S
C297   O313    1.398   .     S
C297   C298    1.409   .     A
C298   C299    1.411   .     A
C299   O318    1.384   .     S
C300   O323    1.385   .     S
C300   C301    1.404   .     A
C300   C563    1.396   .     S
C302   H328    1.081   .     S
C302   N307    1.367   .     A
C302   C391    1.415   .     S
C303   H329    1.081   .     S
C303   N304    1.365   .     A
C303   C478    1.415   1_455 S
N304   C305    1.363   .     A
C305   H330    1.079   .     S
C305   C482    1.435   1_455 S
C306   O331    1.392   .     S
C306   N307    1.373   .     A
C306   C393    1.435   .     S
O308   C309    1.409   .     S
C309   H310    1.114   .     S
C309   H312    1.113   .     S
C309   H399    1.107   .     S
H311   C485    1.107   1_455 S
O313   C314    1.412   .     S
C314   H316    1.113   .     S
C314   H317    1.111   .     S
C314   H315    1.109   .     S
O318   C319    1.410   .     S
C319   H320    1.113   .     S
C319   H321    1.109   .     S
C319   H322    1.113   .     S
O323   C324    1.412   .     S
C324   H327    1.110   .     S
C324   H326    1.109   .     S
C324   H325    1.114   .     S
O331   C332    1.411   .     S
C332   H335    1.109   .     S
C332   H421    1.112   .     S
C332   H422    1.111   .     S
H333   C508    1.112   1_455 S
H334   C508    1.111   1_455 S
O336   C337    1.405   .     S
C337   H338    1.109   .     S
C337   H339    1.109   .     S
C337   H340    1.109   .     S
O341   C342    1.412   .     S
C342   H344    1.114   .     S
C342   H343    1.111   .     S
C342   H345    1.110   .     S
O347   C348    1.413   .     S
C348   H351    1.105   .     S
C348   H350    1.113   .     S
C348   H349    1.114   .     S
O353   C355    1.291   .     A
O353   Cu359   1.964   .     S
O354   Cu360   1.959   .     S
O354   C355    1.290   .     A
C355   C389    1.448   .     S
O356   Cu359   1.956   .     S
O356   C358    1.295   .     A
O357   C358    1.294   .     A
O357   Cu360   1.950   .     S
C358   C382    1.468   .     S
Cu359  Cu360   2.678   .     S
Cu359  O363    1.950   .     S
Cu359  N392    2.013   .     S
Cu359  O361    1.959   .     S
Cu360  N395    2.013   .     S
Cu360  O364    1.956   .     S
Cu360  O362    1.964   .     S
O361   C365    1.291   .     A
O362   C365    1.290   .     A
O363   C366    1.292   .     A
O364   C366    1.302   .     A
C365   C386    1.451   .     S
C366   C370    1.476   .     S
C367   C381    1.405   .     A
C367   H1161   1.084   1_554 S
C367   C1169   1.400   1_554 S
H368   C378    1.084   .     S
H369   C1159   1.084   .     S
C370   C380    1.410   .     A
C370   C381    1.416   .     A
C371   C372    1.396   .     A
C371   O429    1.385   .     S
C371   C382    1.414   .     A
C372   H383    1.082   .     S
C372   C1165   1.386   .     S
C373   H434    1.080   .     S
C373   C1164   1.386   1_554 S
C373   C1166   1.406   1_554 S
C374   C375    1.413   .     A
C374   C1165   1.406   .     S
C374   C1168   1.407   .     S
C375   C379    1.426   .     A
C375   C382    1.421   .     A
C376   C380    1.403   .     A
C376   C1166   1.407   1_554 S
C376   C1169   1.405   1_554 S
C377   C378    1.397   .     A
C377   C1159   1.400   .     S
C377   C1168   1.405   .     S
C378   C379    1.401   .     A
C379   O435    1.382   .     S
C380   O424    1.393   .     S
C381   O396    1.378   .     S
C384   H440    1.082   .     S
C384   C389    1.397   .     A
C384   C649    1.399   .     S
C385   O401    1.398   .     S
C385   C386    1.409   .     A
C386   C387    1.411   .     A
C387   O406    1.384   .     S
C388   O411    1.385   .     S
C388   C389    1.404   .     A
C388   C651    1.396   .     S
C390   H416    1.081   .     S
C390   N395    1.367   .     A
C390   C479    1.415   .     S
C391   H417    1.081   .     S
C391   N392    1.365   .     A
N392   C393    1.363   .     A
C393   H418    1.079   .     S
C394   O419    1.392   .     S
C394   N395    1.373   .     A
C394   C481    1.435   .     S
O396   C397    1.409   .     S
C397   H398    1.114   .     S
C397   H400    1.113   .     S
C397   H487    1.107   .     S
O401   C402    1.412   .     S
C402   H404    1.113   .     S
C402   H405    1.111   .     S
C402   H403    1.109   .     S
O406   C407    1.410   .     S
C407   H408    1.113   .     S
C407   H409    1.109   .     S
C407   H410    1.113   .     S
O411   C412    1.412   .     S
C412   H415    1.110   .     S
C412   H414    1.109   .     S
C412   H413    1.114   .     S
O419   C420    1.411   .     S
C420   H423    1.109   .     S
C420   H509    1.112   .     S
C420   H510    1.111   .     S
O424   C425    1.405   .     S
C425   H426    1.109   .     S
C425   H427    1.109   .     S
C425   H428    1.109   .     S
O429   C430    1.412   .     S
C430   H432    1.114   .     S
C430   H431    1.111   .     S
C430   H433    1.110   .     S
O435   C436    1.413   .     S
C436   H439    1.105   .     S
C436   H438    1.113   .     S
C436   H437    1.114   .     S
O441   C443    1.291   .     A
O441   Cu447   1.964   .     S
O442   Cu448   1.959   .     S
O442   C443    1.290   .     A
C443   C477    1.448   .     S
O444   Cu447   1.956   .     S
O444   C446    1.295   .     A
O445   C446    1.294   .     A
O445   Cu448   1.950   .     S
C446   C470    1.468   .     S
Cu447  Cu448   2.678   .     S
Cu447  O451    1.950   .     S
Cu447  N480    2.013   .     S
Cu447  O449    1.959   .     S
Cu448  N483    2.013   .     S
Cu448  O452    1.956   .     S
Cu448  O450    1.964   .     S
O449   C453    1.291   .     A
O450   C453    1.290   .     A
O451   C454    1.292   .     A
O452   C454    1.302   .     A
C453   C474    1.451   .     S
C454   C458    1.476   .     S
C455   C469    1.405   .     A
C455   H1249   1.084   1_554 S
C455   C1257   1.400   1_554 S
H456   C466    1.084   .     S
H457   C1247   1.084   .     S
C458   C468    1.410   .     A
C458   C469    1.416   .     A
C459   C460    1.396   .     A
C459   O517    1.385   .     S
C459   C470    1.414   .     A
C460   H471    1.082   .     S
C460   C1253   1.386   .     S
C461   H522    1.080   .     S
C461   C1252   1.386   1_554 S
C461   C1254   1.406   1_554 S
C462   C463    1.413   .     A
C462   C1253   1.406   .     S
C462   C1256   1.407   .     S
C463   C467    1.426   .     A
C463   C470    1.421   .     A
C464   C468    1.403   .     A
C464   C1254   1.407   1_554 S
C464   C1257   1.405   1_554 S
C465   C466    1.397   .     A
C465   C1247   1.400   .     S
C465   C1256   1.405   .     S
C466   C467    1.401   .     A
C467   O523    1.382   .     S
C468   O512    1.393   .     S
C469   O484    1.378   .     S
C472   H528    1.082   .     S
C472   C477    1.397   .     A
C472   C737    1.399   .     S
C473   O489    1.398   .     S
C473   C474    1.409   .     A
C474   C475    1.411   .     A
C475   O494    1.384   .     S
C476   O499    1.385   .     S
C476   C477    1.404   .     A
C476   C739    1.396   .     S
C478   H504    1.081   .     S
C478   N483    1.367   .     A
C478   C303    1.415   1_655 S
C479   H505    1.081   .     S
C479   N480    1.365   .     A
N480   C481    1.363   .     A
C481   H506    1.079   .     S
C482   O507    1.392   .     S
C482   N483    1.373   .     A
C482   C305    1.435   1_655 S
O484   C485    1.409   .     S
C485   H486    1.114   .     S
C485   H488    1.113   .     S
C485   H311    1.107   1_655 S
O489   C490    1.412   .     S
C490   H492    1.113   .     S
C490   H493    1.111   .     S
C490   H491    1.109   .     S
O494   C495    1.410   .     S
C495   H496    1.113   .     S
C495   H497    1.109   .     S
C495   H498    1.113   .     S
O499   C500    1.412   .     S
C500   H503    1.110   .     S
C500   H502    1.109   .     S
C500   H501    1.114   .     S
O507   C508    1.411   .     S
C508   H511    1.109   .     S
C508   H333    1.112   1_655 S
C508   H334    1.111   1_655 S
O512   C513    1.405   .     S
C513   H514    1.109   .     S
C513   H515    1.109   .     S
C513   H516    1.109   .     S
O517   C518    1.412   .     S
C518   H520    1.114   .     S
C518   H519    1.111   .     S
C518   H521    1.110   .     S
O523   C524    1.413   .     S
C524   H527    1.105   .     S
C524   H526    1.113   .     S
C524   H525    1.114   .     S
O529   C531    1.291   .     A
O529   Cu535   1.964   .     S
O530   Cu536   1.959   .     S
O530   C531    1.290   .     A
C531   C565    1.448   .     S
O532   Cu535   1.956   .     S
O532   C534    1.295   .     A
O533   C534    1.294   .     A
O533   Cu536   1.950   .     S
C534   C558    1.468   .     S
Cu535  Cu536   2.678   .     S
Cu535  O539    1.950   .     S
Cu535  N568    2.013   .     S
Cu535  O537    1.959   .     S
Cu536  N571    2.013   .     S
Cu536  O540    1.956   .     S
Cu536  O538    1.964   .     S
O537   C541    1.291   .     A
O538   C541    1.290   .     A
O539   C542    1.292   .     A
O540   C542    1.302   .     A
C541   C562    1.451   .     S
C542   C546    1.476   .     S
C543   C557    1.405   .     A
C543   H1337   1.084   1_554 S
C543   C1345   1.400   1_554 S
H544   C554    1.084   .     S
H545   C1335   1.084   .     S
C546   C556    1.410   .     A
C546   C557    1.416   .     A
C547   C548    1.396   .     A
C547   O605    1.385   .     S
C547   C558    1.414   .     A
C548   H559    1.082   .     S
C548   C1341   1.386   .     S
C549   H610    1.080   .     S
C549   C1340   1.386   1_554 S
C549   C1342   1.406   1_554 S
C550   C551    1.413   .     A
C550   C1341   1.406   .     S
C550   C1344   1.407   .     S
C551   C555    1.426   .     A
C551   C558    1.421   .     A
C552   C556    1.403   .     A
C552   C1342   1.407   1_554 S
C552   C1345   1.405   1_554 S
C553   C554    1.397   .     A
C553   C1335   1.400   .     S
C553   C1344   1.405   .     S
C554   C555    1.401   .     A
C555   O611    1.382   .     S
C556   O600    1.393   .     S
C557   O572    1.378   .     S
C560   H616    1.082   .     S
C560   C565    1.397   .     A
C560   C33     1.399   1_565 S
C561   O577    1.398   .     S
C561   C562    1.409   .     A
C562   C563    1.411   .     A
C563   O582    1.384   .     S
C564   O587    1.385   .     S
C564   C565    1.404   .     A
C564   C35     1.396   1_565 S
C566   H592    1.081   .     S
C566   N571    1.367   .     A
C566   C655    1.415   .     S
C567   H593    1.081   .     S
C567   N568    1.365   .     A
C567   C742    1.415   1_455 S
N568   C569    1.363   .     A
C569   H594    1.079   .     S
C569   C746    1.435   1_455 S
C570   O595    1.392   .     S
C570   N571    1.373   .     A
C570   C657    1.435   .     S
O572   C573    1.409   .     S
C573   H574    1.114   .     S
C573   H576    1.113   .     S
C573   H663    1.107   .     S
H575   C749    1.107   1_455 S
O577   C578    1.412   .     S
C578   H580    1.113   .     S
C578   H581    1.111   .     S
C578   H579    1.109   .     S
O582   C583    1.410   .     S
C583   H584    1.113   .     S
C583   H585    1.109   .     S
C583   H586    1.113   .     S
O587   C588    1.412   .     S
C588   H591    1.110   .     S
C588   H590    1.109   .     S
C588   H589    1.114   .     S
O595   C596    1.411   .     S
C596   H599    1.109   .     S
C596   H685    1.112   .     S
C596   H686    1.111   .     S
H597   C772    1.112   1_455 S
H598   C772    1.111   1_455 S
O600   C601    1.405   .     S
C601   H602    1.109   .     S
C601   H603    1.109   .     S
C601   H604    1.109   .     S
O605   C606    1.412   .     S
C606   H608    1.114   .     S
C606   H607    1.111   .     S
C606   H609    1.110   .     S
O611   C612    1.413   .     S
C612   H615    1.105   .     S
C612   H614    1.113   .     S
C612   H613    1.114   .     S
O617   C619    1.291   .     A
O617   Cu623   1.964   .     S
O618   Cu624   1.959   .     S
O618   C619    1.290   .     A
C619   C653    1.448   .     S
O620   Cu623   1.956   .     S
O620   C622    1.295   .     A
O621   C622    1.294   .     A
O621   Cu624   1.950   .     S
C622   C646    1.468   .     S
Cu623  Cu624   2.678   .     S
Cu623  O627    1.950   .     S
Cu623  N656    2.013   .     S
Cu623  O625    1.959   .     S
Cu624  N659    2.013   .     S
Cu624  O628    1.956   .     S
Cu624  O626    1.964   .     S
O625   C629    1.291   .     A
O626   C629    1.290   .     A
O627   C630    1.292   .     A
O628   C630    1.302   .     A
C629   C650    1.451   .     S
C630   C634    1.476   .     S
C631   C645    1.405   .     A
C631   H1425   1.084   1_554 S
C631   C1433   1.400   1_554 S
H632   C642    1.084   .     S
H633   C1423   1.084   .     S
C634   C644    1.410   .     A
C634   C645    1.416   .     A
C635   C636    1.396   .     A
C635   O693    1.385   .     S
C635   C646    1.414   .     A
C636   H647    1.082   .     S
C636   C1429   1.386   .     S
C637   H698    1.080   .     S
C637   C1428   1.386   1_554 S
C637   C1430   1.406   1_554 S
C638   C639    1.413   .     A
C638   C1429   1.406   .     S
C638   C1432   1.407   .     S
C639   C643    1.426   .     A
C639   C646    1.421   .     A
C640   C644    1.403   .     A
C640   C1430   1.407   1_554 S
C640   C1433   1.405   1_554 S
C641   C642    1.397   .     A
C641   C1423   1.400   .     S
C641   C1432   1.405   .     S
C642   C643    1.401   .     A
C643   O699    1.382   .     S
C644   O688    1.393   .     S
C645   O660    1.378   .     S
C648   H704    1.082   .     S
C648   C653    1.397   .     A
C648   C121    1.399   1_565 S
C649   O665    1.398   .     S
C649   C650    1.409   .     A
C650   C651    1.411   .     A
C651   O670    1.384   .     S
C652   O675    1.385   .     S
C652   C653    1.404   .     A
C652   C123    1.396   1_565 S
C654   H680    1.081   .     S
C654   N659    1.367   .     A
C654   C743    1.415   .     S
C655   H681    1.081   .     S
C655   N656    1.365   .     A
N656   C657    1.363   .     A
C657   H682    1.079   .     S
C658   O683    1.392   .     S
C658   N659    1.373   .     A
C658   C745    1.435   .     S
O660   C661    1.409   .     S
C661   H662    1.114   .     S
C661   H664    1.113   .     S
C661   H751    1.107   .     S
O665   C666    1.412   .     S
C666   H668    1.113   .     S
C666   H669    1.111   .     S
C666   H667    1.109   .     S
O670   C671    1.410   .     S
C671   H672    1.113   .     S
C671   H673    1.109   .     S
C671   H674    1.113   .     S
O675   C676    1.412   .     S
C676   H679    1.110   .     S
C676   H678    1.109   .     S
C676   H677    1.114   .     S
O683   C684    1.411   .     S
C684   H687    1.109   .     S
C684   H773    1.112   .     S
C684   H774    1.111   .     S
O688   C689    1.405   .     S
C689   H690    1.109   .     S
C689   H691    1.109   .     S
C689   H692    1.109   .     S
O693   C694    1.412   .     S
C694   H696    1.114   .     S
C694   H695    1.111   .     S
C694   H697    1.110   .     S
O699   C700    1.413   .     S
C700   H703    1.105   .     S
C700   H702    1.113   .     S
C700   H701    1.114   .     S
O705   C707    1.291   .     A
O705   Cu711   1.964   .     S
O706   Cu712   1.959   .     S
O706   C707    1.290   .     A
C707   C741    1.448   .     S
O708   Cu711   1.956   .     S
O708   C710    1.295   .     A
O709   C710    1.294   .     A
O709   Cu712   1.950   .     S
C710   C734    1.468   .     S
Cu711  Cu712   2.678   .     S
Cu711  O715    1.950   .     S
Cu711  N744    2.013   .     S
Cu711  O713    1.959   .     S
Cu712  N747    2.013   .     S
Cu712  O716    1.956   .     S
Cu712  O714    1.964   .     S
O713   C717    1.291   .     A
O714   C717    1.290   .     A
O715   C718    1.292   .     A
O716   C718    1.302   .     A
C717   C738    1.451   .     S
C718   C722    1.476   .     S
C719   C733    1.405   .     A
C719   H1513   1.084   1_554 S
C719   C1521   1.400   1_554 S
H720   C730    1.084   .     S
H721   C1511   1.084   .     S
C722   C732    1.410   .     A
C722   C733    1.416   .     A
C723   C724    1.396   .     A
C723   O781    1.385   .     S
C723   C734    1.414   .     A
C724   H735    1.082   .     S
C724   C1517   1.386   .     S
C725   H786    1.080   .     S
C725   C1516   1.386   1_554 S
C725   C1518   1.406   1_554 S
C726   C727    1.413   .     A
C726   C1517   1.406   .     S
C726   C1520   1.407   .     S
C727   C731    1.426   .     A
C727   C734    1.421   .     A
C728   C732    1.403   .     A
C728   C1518   1.407   1_554 S
C728   C1521   1.405   1_554 S
C729   C730    1.397   .     A
C729   C1511   1.400   .     S
C729   C1520   1.405   .     S
C730   C731    1.401   .     A
C731   O787    1.382   .     S
C732   O776    1.393   .     S
C733   O748    1.378   .     S
C736   H792    1.082   .     S
C736   C741    1.397   .     A
C736   C209    1.399   1_565 S
C737   O753    1.398   .     S
C737   C738    1.409   .     A
C738   C739    1.411   .     A
C739   O758    1.384   .     S
C740   O763    1.385   .     S
C740   C741    1.404   .     A
C740   C211    1.396   1_565 S
C742   H768    1.081   .     S
C742   N747    1.367   .     A
C742   C567    1.415   1_655 S
C743   H769    1.081   .     S
C743   N744    1.365   .     A
N744   C745    1.363   .     A
C745   H770    1.079   .     S
C746   O771    1.392   .     S
C746   N747    1.373   .     A
C746   C569    1.435   1_655 S
O748   C749    1.409   .     S
C749   H750    1.114   .     S
C749   H752    1.113   .     S
C749   H575    1.107   1_655 S
O753   C754    1.412   .     S
C754   H756    1.113   .     S
C754   H757    1.111   .     S
C754   H755    1.109   .     S
O758   C759    1.410   .     S
C759   H760    1.113   .     S
C759   H761    1.109   .     S
C759   H762    1.113   .     S
O763   C764    1.412   .     S
C764   H767    1.110   .     S
C764   H766    1.109   .     S
C764   H765    1.114   .     S
O771   C772    1.411   .     S
C772   H775    1.109   .     S
C772   H597    1.112   1_655 S
C772   H598    1.111   1_655 S
O776   C777    1.405   .     S
C777   H778    1.109   .     S
C777   H779    1.109   .     S
C777   H780    1.109   .     S
O781   C782    1.412   .     S
C782   H784    1.114   .     S
C782   H783    1.111   .     S
C782   H785    1.110   .     S
O787   C788    1.413   .     S
C788   H791    1.105   .     S
C788   H790    1.113   .     S
C788   H789    1.114   .     S
O793   C795    1.291   .     A
O793   Cu799   1.964   .     S
O794   Cu800   1.959   .     S
O794   C795    1.290   .     A
C795   C829    1.448   .     S
O796   Cu799   1.956   .     S
O796   C798    1.295   .     A
O797   C798    1.294   .     A
O797   Cu800   1.950   .     S
C798   C822    1.468   .     S
Cu799  Cu800   2.678   .     S
Cu799  O803    1.950   .     S
Cu799  N832    2.013   .     S
Cu799  O801    1.959   .     S
Cu800  N835    2.013   .     S
Cu800  O804    1.956   .     S
Cu800  O802    1.964   .     S
O801   C805    1.291   .     A
O802   C805    1.290   .     A
O803   C806    1.292   .     A
O804   C806    1.302   .     A
C805   C826    1.451   .     S
C806   C810    1.476   .     S
C807   C821    1.405   .     A
H808   C818    1.084   .     S
H809   C15     1.084   1_556 S
C810   C820    1.410   .     A
C810   C821    1.416   .     A
C811   C812    1.396   .     A
C811   O869    1.385   .     S
C811   C822    1.414   .     A
C812   H823    1.082   .     S
C812   C21     1.386   1_556 S
C813   H874    1.080   .     S
C814   C815    1.413   .     A
C814   C21     1.406   1_556 S
C814   C24     1.407   1_556 S
C815   C819    1.426   .     A
C815   C822    1.421   .     A
C816   C820    1.403   .     A
C817   C818    1.397   .     A
C817   C15     1.400   1_556 S
C817   C24     1.405   1_556 S
C818   C819    1.401   .     A
C819   O875    1.382   .     S
C820   O864    1.393   .     S
C821   O836    1.378   .     S
C824   H880    1.082   .     S
C824   C829    1.397   .     A
C824   C1089   1.399   .     S
C825   O841    1.398   .     S
C825   C826    1.409   .     A
C825   C1352   1.399   1_545 S
C826   C827    1.411   .     A
C827   O846    1.384   .     S
C827   C1356   1.396   1_545 S
C828   O851    1.385   .     S
C828   C829    1.404   .     A
C828   C1091   1.396   .     S
C830   H856    1.081   .     S
C830   N835    1.367   .     A
C830   C919    1.415   .     S
C831   H857    1.081   .     S
C831   N832    1.365   .     A
C831   C1006   1.415   1_455 S
N832   C833    1.363   .     A
C833   H858    1.079   .     S
C833   C1010   1.435   1_455 S
C834   O859    1.392   .     S
C834   N835    1.373   .     A
C834   C921    1.435   .     S
O836   C837    1.409   .     S
C837   H838    1.114   .     S
C837   H840    1.113   .     S
C837   H927    1.107   .     S
H839   C1013   1.107   1_455 S
O841   C842    1.412   .     S
C842   H844    1.113   .     S
C842   H845    1.111   .     S
C842   H843    1.109   .     S
O846   C847    1.410   .     S
C847   H848    1.113   .     S
C847   H849    1.109   .     S
C847   H850    1.113   .     S
O851   C852    1.412   .     S
C852   H855    1.110   .     S
C852   H854    1.109   .     S
C852   H853    1.114   .     S
O859   C860    1.411   .     S
C860   H863    1.109   .     S
C860   H949    1.112   .     S
C860   H950    1.111   .     S
H861   C1036   1.112   1_455 S
H862   C1036   1.111   1_455 S
O864   C865    1.405   .     S
C865   H866    1.109   .     S
C865   H867    1.109   .     S
C865   H868    1.109   .     S
O869   C870    1.412   .     S
C870   H872    1.114   .     S
C870   H871    1.111   .     S
C870   H873    1.110   .     S
O875   C876    1.413   .     S
C876   H879    1.105   .     S
C876   H878    1.113   .     S
C876   H877    1.114   .     S
O881   C883    1.291   .     A
O881   Cu887   1.964   .     S
O882   Cu888   1.959   .     S
O882   C883    1.290   .     A
C883   C917    1.448   .     S
O884   Cu887   1.956   .     S
O884   C886    1.295   .     A
O885   C886    1.294   .     A
O885   Cu888   1.950   .     S
C886   C910    1.468   .     S
Cu887  Cu888   2.678   .     S
Cu887  O891    1.950   .     S
Cu887  N920    2.013   .     S
Cu887  O889    1.959   .     S
Cu888  N923    2.013   .     S
Cu888  O892    1.956   .     S
Cu888  O890    1.964   .     S
O889   C893    1.291   .     A
O890   C893    1.290   .     A
O891   C894    1.292   .     A
O892   C894    1.302   .     A
C893   C914    1.451   .     S
C894   C898    1.476   .     S
C895   C909    1.405   .     A
H896   C906    1.084   .     S
H897   C103    1.084   1_556 S
C898   C908    1.410   .     A
C898   C909    1.416   .     A
C899   C900    1.396   .     A
C899   O957    1.385   .     S
C899   C910    1.414   .     A
C900   H911    1.082   .     S
C900   C109    1.386   1_556 S
C901   H962    1.080   .     S
C902   C903    1.413   .     A
C902   C109    1.406   1_556 S
C902   C112    1.407   1_556 S
C903   C907    1.426   .     A
C903   C910    1.421   .     A
C904   C908    1.403   .     A
C905   C906    1.397   .     A
C905   C103    1.400   1_556 S
C905   C112    1.405   1_556 S
C906   C907    1.401   .     A
C907   O963    1.382   .     S
C908   O952    1.393   .     S
C909   O924    1.378   .     S
C912   H968    1.082   .     S
C912   C917    1.397   .     A
C912   C1177   1.399   .     S
C913   O929    1.398   .     S
C913   C914    1.409   .     A
C913   C1440   1.399   1_545 S
C914   C915    1.411   .     A
C915   O934    1.384   .     S
C915   C1444   1.396   1_545 S
C916   O939    1.385   .     S
C916   C917    1.404   .     A
C916   C1179   1.396   .     S
C918   H944    1.081   .     S
C918   N923    1.367   .     A
C918   C1007   1.415   .     S
C919   H945    1.081   .     S
C919   N920    1.365   .     A
N920   C921    1.363   .     A
C921   H946    1.079   .     S
C922   O947    1.392   .     S
C922   N923    1.373   .     A
C922   C1009   1.435   .     S
O924   C925    1.409   .     S
C925   H926    1.114   .     S
C925   H928    1.113   .     S
C925   H1015   1.107   .     S
O929   C930    1.412   .     S
C930   H932    1.113   .     S
C930   H933    1.111   .     S
C930   H931    1.109   .     S
O934   C935    1.410   .     S
C935   H936    1.113   .     S
C935   H937    1.109   .     S
C935   H938    1.113   .     S
O939   C940    1.412   .     S
C940   H943    1.110   .     S
C940   H942    1.109   .     S
C940   H941    1.114   .     S
O947   C948    1.411   .     S
C948   H951    1.109   .     S
C948   H1037   1.112   .     S
C948   H1038   1.111   .     S
O952   C953    1.405   .     S
C953   H954    1.109   .     S
C953   H955    1.109   .     S
C953   H956    1.109   .     S
O957   C958    1.412   .     S
C958   H960    1.114   .     S
C958   H959    1.111   .     S
C958   H961    1.110   .     S
O963   C964    1.413   .     S
C964   H967    1.105   .     S
C964   H966    1.113   .     S
C964   H965    1.114   .     S
O969   C971    1.291   .     A
O969   Cu975   1.964   .     S
O970   Cu976   1.959   .     S
O970   C971    1.290   .     A
C971   C1005   1.448   .     S
O972   Cu975   1.956   .     S
O972   C974    1.295   .     A
O973   C974    1.294   .     A
O973   Cu976   1.950   .     S
C974   C998    1.468   .     S
Cu975  Cu976   2.678   .     S
Cu975  O979    1.950   .     S
Cu975  N1008   2.013   .     S
Cu975  O977    1.959   .     S
Cu976  N1011   2.013   .     S
Cu976  O980    1.956   .     S
Cu976  O978    1.964   .     S
O977   C981    1.291   .     A
O978   C981    1.290   .     A
O979   C982    1.292   .     A
O980   C982    1.302   .     A
C981   C1002   1.451   .     S
C982   C986    1.476   .     S
C983   C997    1.405   .     A
H984   C994    1.084   .     S
H985   C191    1.084   1_556 S
C986   C996    1.410   .     A
C986   C997    1.416   .     A
C987   C988    1.396   .     A
C987   O1045   1.385   .     S
C987   C998    1.414   .     A
C988   H999    1.082   .     S
C988   C197    1.386   1_556 S
C989   H1050   1.080   .     S
C990   C991    1.413   .     A
C990   C197    1.406   1_556 S
C990   C200    1.407   1_556 S
C991   C995    1.426   .     A
C991   C998    1.421   .     A
C992   C996    1.403   .     A
C993   C994    1.397   .     A
C993   C191    1.400   1_556 S
C993   C200    1.405   1_556 S
C994   C995    1.401   .     A
C995   O1051   1.382   .     S
C996   O1040   1.393   .     S
C997   O1012   1.378   .     S
C1000  H1056   1.082   .     S
C1000  C1005   1.397   .     A
C1000  C1265   1.399   .     S
C1001  O1017   1.398   .     S
C1001  C1002   1.409   .     A
C1001  C1528   1.399   1_545 S
C1002  C1003   1.411   .     A
C1003  O1022   1.384   .     S
C1003  C1532   1.396   1_545 S
C1004  O1027   1.385   .     S
C1004  C1005   1.404   .     A
C1004  C1267   1.396   .     S
C1006  H1032   1.081   .     S
C1006  N1011   1.367   .     A
C1006  C831    1.415   1_655 S
C1007  H1033   1.081   .     S
C1007  N1008   1.365   .     A
N1008  C1009   1.363   .     A
C1009  H1034   1.079   .     S
C1010  O1035   1.392   .     S
C1010  N1011   1.373   .     A
C1010  C833    1.435   1_655 S
O1012  C1013   1.409   .     S
C1013  H1014   1.114   .     S
C1013  H1016   1.113   .     S
C1013  H839    1.107   1_655 S
O1017  C1018   1.412   .     S
C1018  H1020   1.113   .     S
C1018  H1021   1.111   .     S
C1018  H1019   1.109   .     S
O1022  C1023   1.410   .     S
C1023  H1024   1.113   .     S
C1023  H1025   1.109   .     S
C1023  H1026   1.113   .     S
O1027  C1028   1.412   .     S
C1028  H1031   1.110   .     S
C1028  H1030   1.109   .     S
C1028  H1029   1.114   .     S
O1035  C1036   1.411   .     S
C1036  H1039   1.109   .     S
C1036  H861    1.112   1_655 S
C1036  H862    1.111   1_655 S
O1040  C1041   1.405   .     S
C1041  H1042   1.109   .     S
C1041  H1043   1.109   .     S
C1041  H1044   1.109   .     S
O1045  C1046   1.412   .     S
C1046  H1048   1.114   .     S
C1046  H1047   1.111   .     S
C1046  H1049   1.110   .     S
O1051  C1052   1.413   .     S
C1052  H1055   1.105   .     S
C1052  H1054   1.113   .     S
C1052  H1053   1.114   .     S
O1057  C1059   1.291   .     A
O1057  Cu1063  1.964   .     S
O1058  Cu1064  1.959   .     S
O1058  C1059   1.290   .     A
C1059  C1093   1.448   .     S
O1060  Cu1063  1.956   .     S
O1060  C1062   1.295   .     A
O1061  C1062   1.294   .     A
O1061  Cu1064  1.950   .     S
C1062  C1086   1.468   .     S
Cu1063 Cu1064  2.678   .     S
Cu1063 O1067   1.950   .     S
Cu1063 N1096   2.013   .     S
Cu1063 O1065   1.959   .     S
Cu1064 N1099   2.013   .     S
Cu1064 O1068   1.956   .     S
Cu1064 O1066   1.964   .     S
O1065  C1069   1.291   .     A
O1066  C1069   1.290   .     A
O1067  C1070   1.292   .     A
O1068  C1070   1.302   .     A
C1069  C1090   1.451   .     S
C1070  C1074   1.476   .     S
C1071  C1085   1.405   .     A
H1072  C1082   1.084   .     S
H1073  C279    1.084   1_556 S
C1074  C1084   1.410   .     A
C1074  C1085   1.416   .     A
C1075  C1076   1.396   .     A
C1075  O1133   1.385   .     S
C1075  C1086   1.414   .     A
C1076  H1087   1.082   .     S
C1076  C285    1.386   1_556 S
C1077  H1138   1.080   .     S
C1078  C1079   1.413   .     A
C1078  C285    1.406   1_556 S
C1078  C288    1.407   1_556 S
C1079  C1083   1.426   .     A
C1079  C1086   1.421   .     A
C1080  C1084   1.403   .     A
C1081  C1082   1.397   .     A
C1081  C279    1.400   1_556 S
C1081  C288    1.405   1_556 S
C1082  C1083   1.401   .     A
C1083  O1139   1.382   .     S
C1084  O1128   1.393   .     S
C1085  O1100   1.378   .     S
C1088  H1144   1.082   .     S
C1088  C1093   1.397   .     A
C1088  C1353   1.399   .     S
C1089  O1105   1.398   .     S
C1089  C1090   1.409   .     A
C1090  C1091   1.411   .     A
C1091  O1110   1.384   .     S
C1092  O1115   1.385   .     S
C1092  C1093   1.404   .     A
C1092  C1355   1.396   .     S
C1094  H1120   1.081   .     S
C1094  N1099   1.367   .     A
C1094  C1183   1.415   .     S
C1095  H1121   1.081   .     S
C1095  N1096   1.365   .     A
C1095  C1270   1.415   1_455 S
N1096  C1097   1.363   .     A
C1097  H1122   1.079   .     S
C1097  C1274   1.435   1_455 S
C1098  O1123   1.392   .     S
C1098  N1099   1.373   .     A
C1098  C1185   1.435   .     S
O1100  C1101   1.409   .     S
C1101  H1102   1.114   .     S
C1101  H1104   1.113   .     S
C1101  H1191   1.107   .     S
H1103  C1277   1.107   1_455 S
O1105  C1106   1.412   .     S
C1106  H1108   1.113   .     S
C1106  H1109   1.111   .     S
C1106  H1107   1.109   .     S
O1110  C1111   1.410   .     S
C1111  H1112   1.113   .     S
C1111  H1113   1.109   .     S
C1111  H1114   1.113   .     S
O1115  C1116   1.412   .     S
C1116  H1119   1.110   .     S
C1116  H1118   1.109   .     S
C1116  H1117   1.114   .     S
O1123  C1124   1.411   .     S
C1124  H1127   1.109   .     S
C1124  H1213   1.112   .     S
C1124  H1214   1.111   .     S
H1125  C1300   1.112   1_455 S
H1126  C1300   1.111   1_455 S
O1128  C1129   1.405   .     S
C1129  H1130   1.109   .     S
C1129  H1131   1.109   .     S
C1129  H1132   1.109   .     S
O1133  C1134   1.412   .     S
C1134  H1136   1.114   .     S
C1134  H1135   1.111   .     S
C1134  H1137   1.110   .     S
O1139  C1140   1.413   .     S
C1140  H1143   1.105   .     S
C1140  H1142   1.113   .     S
C1140  H1141   1.114   .     S
O1145  C1147   1.291   .     A
O1145  Cu1151  1.964   .     S
O1146  Cu1152  1.959   .     S
O1146  C1147   1.290   .     A
C1147  C1181   1.448   .     S
O1148  Cu1151  1.956   .     S
O1148  C1150   1.295   .     A
O1149  C1150   1.294   .     A
O1149  Cu1152  1.950   .     S
C1150  C1174   1.468   .     S
Cu1151 Cu1152  2.678   .     S
Cu1151 O1155   1.950   .     S
Cu1151 N1184   2.013   .     S
Cu1151 O1153   1.959   .     S
Cu1152 N1187   2.013   .     S
Cu1152 O1156   1.956   .     S
Cu1152 O1154   1.964   .     S
O1153  C1157   1.291   .     A
O1154  C1157   1.290   .     A
O1155  C1158   1.292   .     A
O1156  C1158   1.302   .     A
C1157  C1178   1.451   .     S
C1158  C1162   1.476   .     S
C1159  C1173   1.405   .     A
H1160  C1170   1.084   .     S
H1161  C367    1.084   1_556 S
C1162  C1172   1.410   .     A
C1162  C1173   1.416   .     A
C1163  C1164   1.396   .     A
C1163  O1221   1.385   .     S
C1163  C1174   1.414   .     A
C1164  H1175   1.082   .     S
C1164  C373    1.386   1_556 S
C1165  H1226   1.080   .     S
C1166  C1167   1.413   .     A
C1166  C373    1.406   1_556 S
C1166  C376    1.407   1_556 S
C1167  C1171   1.426   .     A
C1167  C1174   1.421   .     A
C1168  C1172   1.403   .     A
C1169  C1170   1.397   .     A
C1169  C367    1.400   1_556 S
C1169  C376    1.405   1_556 S
C1170  C1171   1.401   .     A
C1171  O1227   1.382   .     S
C1172  O1216   1.393   .     S
C1173  O1188   1.378   .     S
C1176  H1232   1.082   .     S
C1176  C1181   1.397   .     A
C1176  C1441   1.399   .     S
C1177  O1193   1.398   .     S
C1177  C1178   1.409   .     A
C1178  C1179   1.411   .     A
C1179  O1198   1.384   .     S
C1180  O1203   1.385   .     S
C1180  C1181   1.404   .     A
C1180  C1443   1.396   .     S
C1182  H1208   1.081   .     S
C1182  N1187   1.367   .     A
C1182  C1271   1.415   .     S
C1183  H1209   1.081   .     S
C1183  N1184   1.365   .     A
N1184  C1185   1.363   .     A
C1185  H1210   1.079   .     S
C1186  O1211   1.392   .     S
C1186  N1187   1.373   .     A
C1186  C1273   1.435   .     S
O1188  C1189   1.409   .     S
C1189  H1190   1.114   .     S
C1189  H1192   1.113   .     S
C1189  H1279   1.107   .     S
O1193  C1194   1.412   .     S
C1194  H1196   1.113   .     S
C1194  H1197   1.111   .     S
C1194  H1195   1.109   .     S
O1198  C1199   1.410   .     S
C1199  H1200   1.113   .     S
C1199  H1201   1.109   .     S
C1199  H1202   1.113   .     S
O1203  C1204   1.412   .     S
C1204  H1207   1.110   .     S
C1204  H1206   1.109   .     S
C1204  H1205   1.114   .     S
O1211  C1212   1.411   .     S
C1212  H1215   1.109   .     S
C1212  H1301   1.112   .     S
C1212  H1302   1.111   .     S
O1216  C1217   1.405   .     S
C1217  H1218   1.109   .     S
C1217  H1219   1.109   .     S
C1217  H1220   1.109   .     S
O1221  C1222   1.412   .     S
C1222  H1224   1.114   .     S
C1222  H1223   1.111   .     S
C1222  H1225   1.110   .     S
O1227  C1228   1.413   .     S
C1228  H1231   1.105   .     S
C1228  H1230   1.113   .     S
C1228  H1229   1.114   .     S
O1233  C1235   1.291   .     A
O1233  Cu1239  1.964   .     S
O1234  Cu1240  1.959   .     S
O1234  C1235   1.290   .     A
C1235  C1269   1.448   .     S
O1236  Cu1239  1.956   .     S
O1236  C1238   1.295   .     A
O1237  C1238   1.294   .     A
O1237  Cu1240  1.950   .     S
C1238  C1262   1.468   .     S
Cu1239 Cu1240  2.678   .     S
Cu1239 O1243   1.950   .     S
Cu1239 N1272   2.013   .     S
Cu1239 O1241   1.959   .     S
Cu1240 N1275   2.013   .     S
Cu1240 O1244   1.956   .     S
Cu1240 O1242   1.964   .     S
O1241  C1245   1.291   .     A
O1242  C1245   1.290   .     A
O1243  C1246   1.292   .     A
O1244  C1246   1.302   .     A
C1245  C1266   1.451   .     S
C1246  C1250   1.476   .     S
C1247  C1261   1.405   .     A
H1248  C1258   1.084   .     S
H1249  C455    1.084   1_556 S
C1250  C1260   1.410   .     A
C1250  C1261   1.416   .     A
C1251  C1252   1.396   .     A
C1251  O1309   1.385   .     S
C1251  C1262   1.414   .     A
C1252  H1263   1.082   .     S
C1252  C461    1.386   1_556 S
C1253  H1314   1.080   .     S
C1254  C1255   1.413   .     A
C1254  C461    1.406   1_556 S
C1254  C464    1.407   1_556 S
C1255  C1259   1.426   .     A
C1255  C1262   1.421   .     A
C1256  C1260   1.403   .     A
C1257  C1258   1.397   .     A
C1257  C455    1.400   1_556 S
C1257  C464    1.405   1_556 S
C1258  C1259   1.401   .     A
C1259  O1315   1.382   .     S
C1260  O1304   1.393   .     S
C1261  O1276   1.378   .     S
C1264  H1320   1.082   .     S
C1264  C1269   1.397   .     A
C1264  C1529   1.399   .     S
C1265  O1281   1.398   .     S
C1265  C1266   1.409   .     A
C1266  C1267   1.411   .     A
C1267  O1286   1.384   .     S
C1268  O1291   1.385   .     S
C1268  C1269   1.404   .     A
C1268  C1531   1.396   .     S
C1270  H1296   1.081   .     S
C1270  N1275   1.367   .     A
C1270  C1095   1.415   1_655 S
C1271  H1297   1.081   .     S
C1271  N1272   1.365   .     A
N1272  C1273   1.363   .     A
C1273  H1298   1.079   .     S
C1274  O1299   1.392   .     S
C1274  N1275   1.373   .     A
C1274  C1097   1.435   1_655 S
O1276  C1277   1.409   .     S
C1277  H1278   1.114   .     S
C1277  H1280   1.113   .     S
C1277  H1103   1.107   1_655 S
O1281  C1282   1.412   .     S
C1282  H1284   1.113   .     S
C1282  H1285   1.111   .     S
C1282  H1283   1.109   .     S
O1286  C1287   1.410   .     S
C1287  H1288   1.113   .     S
C1287  H1289   1.109   .     S
C1287  H1290   1.113   .     S
O1291  C1292   1.412   .     S
C1292  H1295   1.110   .     S
C1292  H1294   1.109   .     S
C1292  H1293   1.114   .     S
O1299  C1300   1.411   .     S
C1300  H1303   1.109   .     S
C1300  H1125   1.112   1_655 S
C1300  H1126   1.111   1_655 S
O1304  C1305   1.405   .     S
C1305  H1306   1.109   .     S
C1305  H1307   1.109   .     S
C1305  H1308   1.109   .     S
O1309  C1310   1.412   .     S
C1310  H1312   1.114   .     S
C1310  H1311   1.111   .     S
C1310  H1313   1.110   .     S
O1315  C1316   1.413   .     S
C1316  H1319   1.105   .     S
C1316  H1318   1.113   .     S
C1316  H1317   1.114   .     S
O1321  C1323   1.291   .     A
O1321  Cu1327  1.964   .     S
O1322  Cu1328  1.959   .     S
O1322  C1323   1.290   .     A
C1323  C1357   1.448   .     S
O1324  Cu1327  1.956   .     S
O1324  C1326   1.295   .     A
O1325  C1326   1.294   .     A
O1325  Cu1328  1.950   .     S
C1326  C1350   1.468   .     S
Cu1327 Cu1328  2.678   .     S
Cu1327 O1331   1.950   .     S
Cu1327 N1360   2.013   .     S
Cu1327 O1329   1.959   .     S
Cu1328 N1363   2.013   .     S
Cu1328 O1332   1.956   .     S
Cu1328 O1330   1.964   .     S
O1329  C1333   1.291   .     A
O1330  C1333   1.290   .     A
O1331  C1334   1.292   .     A
O1332  C1334   1.302   .     A
C1333  C1354   1.451   .     S
C1334  C1338   1.476   .     S
C1335  C1349   1.405   .     A
H1336  C1346   1.084   .     S
H1337  C543    1.084   1_556 S
C1338  C1348   1.410   .     A
C1338  C1349   1.416   .     A
C1339  C1340   1.396   .     A
C1339  O1397   1.385   .     S
C1339  C1350   1.414   .     A
C1340  H1351   1.082   .     S
C1340  C549    1.386   1_556 S
C1341  H1402   1.080   .     S
C1342  C1343   1.413   .     A
C1342  C549    1.406   1_556 S
C1342  C552    1.407   1_556 S
C1343  C1347   1.426   .     A
C1343  C1350   1.421   .     A
C1344  C1348   1.403   .     A
C1345  C1346   1.397   .     A
C1345  C543    1.400   1_556 S
C1345  C552    1.405   1_556 S
C1346  C1347   1.401   .     A
C1347  O1403   1.382   .     S
C1348  O1392   1.393   .     S
C1349  O1364   1.378   .     S
C1352  H1408   1.082   .     S
C1352  C1357   1.397   .     A
C1352  C825    1.399   1_565 S
C1353  O1369   1.398   .     S
C1353  C1354   1.409   .     A
C1354  C1355   1.411   .     A
C1355  O1374   1.384   .     S
C1356  O1379   1.385   .     S
C1356  C1357   1.404   .     A
C1356  C827    1.396   1_565 S
C1358  H1384   1.081   .     S
C1358  N1363   1.367   .     A
C1358  C1447   1.415   .     S
C1359  H1385   1.081   .     S
C1359  N1360   1.365   .     A
C1359  C1534   1.415   1_455 S
N1360  C1361   1.363   .     A
C1361  H1386   1.079   .     S
C1361  C1538   1.435   1_455 S
C1362  O1387   1.392   .     S
C1362  N1363   1.373   .     A
C1362  C1449   1.435   .     S
O1364  C1365   1.409   .     S
C1365  H1366   1.114   .     S
C1365  H1368   1.113   .     S
C1365  H1455   1.107   .     S
H1367  C1541   1.107   1_455 S
O1369  C1370   1.412   .     S
C1370  H1372   1.113   .     S
C1370  H1373   1.111   .     S
C1370  H1371   1.109   .     S
O1374  C1375   1.410   .     S
C1375  H1376   1.113   .     S
C1375  H1377   1.109   .     S
C1375  H1378   1.113   .     S
O1379  C1380   1.412   .     S
C1380  H1383   1.110   .     S
C1380  H1382   1.109   .     S
C1380  H1381   1.114   .     S
O1387  C1388   1.411   .     S
C1388  H1391   1.109   .     S
C1388  H1477   1.112   .     S
C1388  H1478   1.111   .     S
H1389  C1564   1.112   1_455 S
H1390  C1564   1.111   1_455 S
O1392  C1393   1.405   .     S
C1393  H1394   1.109   .     S
C1393  H1395   1.109   .     S
C1393  H1396   1.109   .     S
O1397  C1398   1.412   .     S
C1398  H1400   1.114   .     S
C1398  H1399   1.111   .     S
C1398  H1401   1.110   .     S
O1403  C1404   1.413   .     S
C1404  H1407   1.105   .     S
C1404  H1406   1.113   .     S
C1404  H1405   1.114   .     S
O1409  C1411   1.291   .     A
O1409  Cu1415  1.964   .     S
O1410  Cu1416  1.959   .     S
O1410  C1411   1.290   .     A
C1411  C1445   1.448   .     S
O1412  Cu1415  1.956   .     S
O1412  C1414   1.295   .     A
O1413  C1414   1.294   .     A
O1413  Cu1416  1.950   .     S
C1414  C1438   1.468   .     S
Cu1415 Cu1416  2.678   .     S
Cu1415 O1419   1.950   .     S
Cu1415 N1448   2.013   .     S
Cu1415 O1417   1.959   .     S
Cu1416 N1451   2.013   .     S
Cu1416 O1420   1.956   .     S
Cu1416 O1418   1.964   .     S
O1417  C1421   1.291   .     A
O1418  C1421   1.290   .     A
O1419  C1422   1.292   .     A
O1420  C1422   1.302   .     A
C1421  C1442   1.451   .     S
C1422  C1426   1.476   .     S
C1423  C1437   1.405   .     A
H1424  C1434   1.084   .     S
H1425  C631    1.084   1_556 S
C1426  C1436   1.410   .     A
C1426  C1437   1.416   .     A
C1427  C1428   1.396   .     A
C1427  O1485   1.385   .     S
C1427  C1438   1.414   .     A
C1428  H1439   1.082   .     S
C1428  C637    1.386   1_556 S
C1429  H1490   1.080   .     S
C1430  C1431   1.413   .     A
C1430  C637    1.406   1_556 S
C1430  C640    1.407   1_556 S
C1431  C1435   1.426   .     A
C1431  C1438   1.421   .     A
C1432  C1436   1.403   .     A
C1433  C1434   1.397   .     A
C1433  C631    1.400   1_556 S
C1433  C640    1.405   1_556 S
C1434  C1435   1.401   .     A
C1435  O1491   1.382   .     S
C1436  O1480   1.393   .     S
C1437  O1452   1.378   .     S
C1440  H1496   1.082   .     S
C1440  C1445   1.397   .     A
C1440  C913    1.399   1_565 S
C1441  O1457   1.398   .     S
C1441  C1442   1.409   .     A
C1442  C1443   1.411   .     A
C1443  O1462   1.384   .     S
C1444  O1467   1.385   .     S
C1444  C1445   1.404   .     A
C1444  C915    1.396   1_565 S
C1446  H1472   1.081   .     S
C1446  N1451   1.367   .     A
C1446  C1535   1.415   .     S
C1447  H1473   1.081   .     S
C1447  N1448   1.365   .     A
N1448  C1449   1.363   .     A
C1449  H1474   1.079   .     S
C1450  O1475   1.392   .     S
C1450  N1451   1.373   .     A
C1450  C1537   1.435   .     S
O1452  C1453   1.409   .     S
C1453  H1454   1.114   .     S
C1453  H1456   1.113   .     S
C1453  H1543   1.107   .     S
O1457  C1458   1.412   .     S
C1458  H1460   1.113   .     S
C1458  H1461   1.111   .     S
C1458  H1459   1.109   .     S
O1462  C1463   1.410   .     S
C1463  H1464   1.113   .     S
C1463  H1465   1.109   .     S
C1463  H1466   1.113   .     S
O1467  C1468   1.412   .     S
C1468  H1471   1.110   .     S
C1468  H1470   1.109   .     S
C1468  H1469   1.114   .     S
O1475  C1476   1.411   .     S
C1476  H1479   1.109   .     S
C1476  H1565   1.112   .     S
C1476  H1566   1.111   .     S
O1480  C1481   1.405   .     S
C1481  H1482   1.109   .     S
C1481  H1483   1.109   .     S
C1481  H1484   1.109   .     S
O1485  C1486   1.412   .     S
C1486  H1488   1.114   .     S
C1486  H1487   1.111   .     S
C1486  H1489   1.110   .     S
O1491  C1492   1.413   .     S
C1492  H1495   1.105   .     S
C1492  H1494   1.113   .     S
C1492  H1493   1.114   .     S
O1497  C1499   1.291   .     A
O1497  Cu1503  1.964   .     S
O1498  Cu1504  1.959   .     S
O1498  C1499   1.290   .     A
C1499  C1533   1.448   .     S
O1500  Cu1503  1.956   .     S
O1500  C1502   1.295   .     A
O1501  C1502   1.294   .     A
O1501  Cu1504  1.950   .     S
C1502  C1526   1.468   .     S
Cu1503 Cu1504  2.678   .     S
Cu1503 O1507   1.950   .     S
Cu1503 N1536   2.013   .     S
Cu1503 O1505   1.959   .     S
Cu1504 N1539   2.013   .     S
Cu1504 O1508   1.956   .     S
Cu1504 O1506   1.964   .     S
O1505  C1509   1.291   .     A
O1506  C1509   1.290   .     A
O1507  C1510   1.292   .     A
O1508  C1510   1.302   .     A
C1509  C1530   1.451   .     S
C1510  C1514   1.476   .     S
C1511  C1525   1.405   .     A
H1512  C1522   1.084   .     S
H1513  C719    1.084   1_556 S
C1514  C1524   1.410   .     A
C1514  C1525   1.416   .     A
C1515  C1516   1.396   .     A
C1515  O1573   1.385   .     S
C1515  C1526   1.414   .     A
C1516  H1527   1.082   .     S
C1516  C725    1.386   1_556 S
C1517  H1578   1.080   .     S
C1518  C1519   1.413   .     A
C1518  C725    1.406   1_556 S
C1518  C728    1.407   1_556 S
C1519  C1523   1.426   .     A
C1519  C1526   1.421   .     A
C1520  C1524   1.403   .     A
C1521  C1522   1.397   .     A
C1521  C719    1.400   1_556 S
C1521  C728    1.405   1_556 S
C1522  C1523   1.401   .     A
C1523  O1579   1.382   .     S
C1524  O1568   1.393   .     S
C1525  O1540   1.378   .     S
C1528  H1584   1.082   .     S
C1528  C1533   1.397   .     A
C1528  C1001   1.399   1_565 S
C1529  O1545   1.398   .     S
C1529  C1530   1.409   .     A
C1530  C1531   1.411   .     A
C1531  O1550   1.384   .     S
C1532  O1555   1.385   .     S
C1532  C1533   1.404   .     A
C1532  C1003   1.396   1_565 S
C1534  H1560   1.081   .     S
C1534  N1539   1.367   .     A
C1534  C1359   1.415   1_655 S
C1535  H1561   1.081   .     S
C1535  N1536   1.365   .     A
N1536  C1537   1.363   .     A
C1537  H1562   1.079   .     S
C1538  O1563   1.392   .     S
C1538  N1539   1.373   .     A
C1538  C1361   1.435   1_655 S
O1540  C1541   1.409   .     S
C1541  H1542   1.114   .     S
C1541  H1544   1.113   .     S
C1541  H1367   1.107   1_655 S
O1545  C1546   1.412   .     S
C1546  H1548   1.113   .     S
C1546  H1549   1.111   .     S
C1546  H1547   1.109   .     S
O1550  C1551   1.410   .     S
C1551  H1552   1.113   .     S
C1551  H1553   1.109   .     S
C1551  H1554   1.113   .     S
O1555  C1556   1.412   .     S
C1556  H1559   1.110   .     S
C1556  H1558   1.109   .     S
C1556  H1557   1.114   .     S
O1563  C1564   1.411   .     S
C1564  H1567   1.109   .     S
C1564  H1389   1.112   1_655 S
C1564  H1390   1.111   1_655 S
O1568  C1569   1.405   .     S
C1569  H1570   1.109   .     S
C1569  H1571   1.109   .     S
C1569  H1572   1.109   .     S
O1573  C1574   1.412   .     S
C1574  H1576   1.114   .     S
C1574  H1575   1.111   .     S
C1574  H1577   1.110   .     S
O1579  C1580   1.413   .     S
C1580  H1583   1.105   .     S
C1580  H1582   1.113   .     S
C1580  H1581   1.114   .     S
