data_str_m2_o1_o18_pcu_sym.161
_audit_creation_date              2020-01-03
_audit_creation_method            'Materials Studio'
_symmetry_space_group_name_H-M    'P1'
_symmetry_Int_Tables_number       1
_symmetry_cell_setting            triclinic
loop_
_symmetry_equiv_pos_as_xyz
  x,y,z
_cell_length_a                    28.5370
_cell_length_b                    32.6171
_cell_length_c                    30.9958
_cell_angle_alpha                 89.5850
_cell_angle_beta                  74.5076
_cell_angle_gamma                 89.1112
loop_
_atom_site_label
_atom_site_type_symbol
_atom_site_fract_x
_atom_site_fract_y
_atom_site_fract_z
_atom_site_U_iso_or_equiv
_atom_site_adp_type
_atom_site_occupancy
C1     C     0.00044   0.08736   0.25002   0.00000  Uiso   1.00
C2     C     0.33289   0.24597   0.24997   0.00000  Uiso   1.00
C3     C     0.19544   0.16052   0.04743   0.00000  Uiso   1.00
C4     C     0.14091   0.19195   0.45534   0.00000  Uiso   1.00
C5     C     0.24412   0.15566   0.02483   0.00000  Uiso   1.00
C6     C     0.09236   0.19755   0.47811   0.00000  Uiso   1.00
C7     C     0.28992   0.02262   0.26061   0.00000  Uiso   1.00
C8     C     0.04342   0.31071   0.23935   0.00000  Uiso   1.00
C9     C     0.28816   0.31348   0.25996   0.00000  Uiso   1.00
C10    C     0.04518   0.01985   0.24000   0.00000  Uiso   1.00
C11    C     0.33214   0.29059   0.24961   0.00000  Uiso   1.00
C12    C     0.00120   0.04274   0.25036   0.00000  Uiso   1.00
C13    C     0.18233   0.14636   0.28255   0.00000  Uiso   1.00
C14    C     0.15101   0.18697   0.21744   0.00000  Uiso   1.00
C15    C     0.13270   0.14651   0.28263   0.00000  Uiso   1.00
C16    C     0.20063   0.18682   0.21736   0.00000  Uiso   1.00
C17    C     0.30610   0.16652   0.33608   0.00000  Uiso   1.00
C18    C     0.02723   0.16726   0.16395   0.00000  Uiso   1.00
C19    C     0.29117   0.16578   0.38519   0.00000  Uiso   1.00
C20    C     0.04230   0.17158   0.11511   0.00000  Uiso   1.00
C21    C     0.30870   0.15373   0.45630   0.00000  Uiso   1.00
C22    C     0.02681   0.19435   0.04583   0.00000  Uiso   1.00
C23    C     0.32458   0.15695   0.40990   0.00000  Uiso   1.00
C24    C     0.00996   0.18603   0.09143   0.00000  Uiso   1.00
C25    C     0.24216   0.17261   0.40735   0.00000  Uiso   1.00
C26    C     0.09117   0.16467   0.09271   0.00000  Uiso   1.00
C27    C     0.22534   0.17065   0.45426   0.00000  Uiso   1.00
C28    C     0.10956   0.17441   0.04713   0.00000  Uiso   1.00
C29    C     0.25945   0.16011   0.47858   0.00000  Uiso   1.00
C30    C     0.07618   0.18866   0.02355   0.00000  Uiso   1.00
C31    C     0.17552   0.17756   0.47745   0.00000  Uiso   1.00
C32    C     0.15996   0.17043   0.02448   0.00000  Uiso   1.00
Cu33   Cu    0.04689   0.16667   0.25000   0.00000  Uiso   1.00
Cu34   Cu    0.28645   0.16666   0.25000   0.00000  Uiso   1.00
H35    H     0.26992   0.14784   0.04378   0.00000  Uiso   1.00
H36    H     0.06723   0.20889   0.45987   0.00000  Uiso   1.00
H37    H     0.11403   0.15151   0.11186   0.00000  Uiso   1.00
H38    H     0.21758   0.17823   0.38698   0.00000  Uiso   1.00
H39    H     0.30537   0.19185   0.10830   0.00000  Uiso   1.00
H40    H     0.02931   0.15142   0.39335   0.00000  Uiso   1.00
H41    H     0.00152   0.14561   0.47475   0.00000  Uiso   1.00
H42    H     0.00139   0.20603   0.02811   0.00000  Uiso   1.00
H43    H     0.18720   0.15721   0.08324   0.00000  Uiso   1.00
H44    H     0.15021   0.20045   0.42050   0.00000  Uiso   1.00
H45    H     0.25591   0.03985   0.26904   0.00000  Uiso   1.00
H46    H     0.07743   0.29348   0.23091   0.00000  Uiso   1.00
H47    H     0.19365   0.12987   0.30853   0.00000  Uiso   1.00
H48    H     0.13969   0.20345   0.19145   0.00000  Uiso   1.00
H49    H     0.10670   0.13036   0.30876   0.00000  Uiso   1.00
H50    H     0.22664   0.20297   0.19123   0.00000  Uiso   1.00
N51    N     0.11736   0.16668   0.24999   0.00000  Uiso   1.00
N52    N     0.21597   0.16666   0.25001   0.00000  Uiso   1.00
O53    O     0.03958   0.10655   0.25000   0.00000  Uiso   1.00
O54    O     0.29375   0.22678   0.25000   0.00000  Uiso   1.00
O55    O     0.29372   0.10654   0.25001   0.00000  Uiso   1.00
O56    O     0.03961   0.22679   0.25000   0.00000  Uiso   1.00
O57    O     0.01852   0.16668   0.31492   0.00000  Uiso   1.00
O58    O     0.31481   0.16666   0.18509   0.00000  Uiso   1.00
O59    O     0.27267   0.16667   0.31492   0.00000  Uiso   1.00
O60    O     0.06067   0.16667   0.18508   0.00000  Uiso   1.00
N61    N     0.24200   0.29431   0.27064   0.00000  Uiso   1.00
H62    H     0.21818   0.30605   0.29912   0.00000  Uiso   1.00
C63    C     0.22009   0.29297   0.23363   0.00000  Uiso   1.00
H64    H     0.21172   0.32451   0.22378   0.00000  Uiso   1.00
H65    H     0.18568   0.27561   0.24379   0.00000  Uiso   1.00
H66    H     0.24495   0.27740   0.20440   0.00000  Uiso   1.00
N67    N     0.09134   0.03902   0.22929   0.00000  Uiso   1.00
H68    H     0.11514   0.02729   0.20078   0.00000  Uiso   1.00
C69    C     0.11331   0.04034   0.26626   0.00000  Uiso   1.00
H70    H     0.12169   0.00879   0.27609   0.00000  Uiso   1.00
H71    H     0.08847   0.05588   0.29553   0.00000  Uiso   1.00
H72    H     0.14771   0.05769   0.25608   0.00000  Uiso   1.00
C73    C     0.33378   0.08736   0.25002   0.00000  Uiso   1.00
C74    C     0.66623   0.24597   0.24997   0.00000  Uiso   1.00
C75    C     0.52877   0.16052   0.04743   0.00000  Uiso   1.00
C76    C     0.47425   0.19195   0.45534   0.00000  Uiso   1.00
C77    C     0.57746   0.15566   0.02483   0.00000  Uiso   1.00
C78    C     0.42570   0.19755   0.47811   0.00000  Uiso   1.00
C79    C     0.62325   0.02262   0.26061   0.00000  Uiso   1.00
C80    C     0.37675   0.31071   0.23935   0.00000  Uiso   1.00
C81    C     0.62149   0.31348   0.25996   0.00000  Uiso   1.00
C82    C     0.37851   0.01985   0.24000   0.00000  Uiso   1.00
C83    C     0.66547   0.29059   0.24961   0.00000  Uiso   1.00
C84    C     0.33453   0.04274   0.25036   0.00000  Uiso   1.00
C85    C     0.51566   0.14636   0.28255   0.00000  Uiso   1.00
C86    C     0.48434   0.18697   0.21744   0.00000  Uiso   1.00
C87    C     0.46604   0.14651   0.28263   0.00000  Uiso   1.00
C88    C     0.53396   0.18682   0.21736   0.00000  Uiso   1.00
C89    C     0.63943   0.16652   0.33608   0.00000  Uiso   1.00
C90    C     0.36056   0.16726   0.16395   0.00000  Uiso   1.00
C91    C     0.62450   0.16578   0.38519   0.00000  Uiso   1.00
C92    C     0.37563   0.17158   0.11511   0.00000  Uiso   1.00
C93    C     0.64203   0.15373   0.45630   0.00000  Uiso   1.00
C94    C     0.36014   0.19435   0.04583   0.00000  Uiso   1.00
C95    C     0.65792   0.15695   0.40990   0.00000  Uiso   1.00
C96    C     0.34329   0.18603   0.09143   0.00000  Uiso   1.00
C97    C     0.57550   0.17261   0.40735   0.00000  Uiso   1.00
C98    C     0.42450   0.16467   0.09271   0.00000  Uiso   1.00
C99    C     0.55868   0.17065   0.45426   0.00000  Uiso   1.00
C100   C     0.44290   0.17441   0.04713   0.00000  Uiso   1.00
C101   C     0.59278   0.16011   0.47858   0.00000  Uiso   1.00
C102   C     0.40951   0.18866   0.02355   0.00000  Uiso   1.00
C103   C     0.50885   0.17756   0.47745   0.00000  Uiso   1.00
C104   C     0.49329   0.17043   0.02448   0.00000  Uiso   1.00
Cu105  Cu    0.38022   0.16667   0.25000   0.00000  Uiso   1.00
Cu106  Cu    0.61978   0.16666   0.25000   0.00000  Uiso   1.00
H107   H     0.60325   0.14784   0.04378   0.00000  Uiso   1.00
H108   H     0.40056   0.20889   0.45987   0.00000  Uiso   1.00
H109   H     0.44736   0.15151   0.11186   0.00000  Uiso   1.00
H110   H     0.55091   0.17823   0.38698   0.00000  Uiso   1.00
H111   H     0.63870   0.19185   0.10830   0.00000  Uiso   1.00
H112   H     0.36265   0.15142   0.39335   0.00000  Uiso   1.00
H113   H     0.33485   0.14561   0.47475   0.00000  Uiso   1.00
H114   H     0.33472   0.20603   0.02811   0.00000  Uiso   1.00
H115   H     0.52053   0.15721   0.08324   0.00000  Uiso   1.00
H116   H     0.48355   0.20045   0.42050   0.00000  Uiso   1.00
H117   H     0.58924   0.03985   0.26904   0.00000  Uiso   1.00
H118   H     0.41076   0.29348   0.23091   0.00000  Uiso   1.00
H119   H     0.52699   0.12987   0.30853   0.00000  Uiso   1.00
H120   H     0.47302   0.20345   0.19145   0.00000  Uiso   1.00
H121   H     0.44003   0.13036   0.30876   0.00000  Uiso   1.00
H122   H     0.55997   0.20297   0.19123   0.00000  Uiso   1.00
N123   N     0.45069   0.16668   0.24999   0.00000  Uiso   1.00
N124   N     0.54931   0.16666   0.25001   0.00000  Uiso   1.00
O125   O     0.37291   0.10655   0.25000   0.00000  Uiso   1.00
O126   O     0.62709   0.22678   0.25000   0.00000  Uiso   1.00
O127   O     0.62706   0.10654   0.25001   0.00000  Uiso   1.00
O128   O     0.37294   0.22679   0.25000   0.00000  Uiso   1.00
O129   O     0.35186   0.16668   0.31492   0.00000  Uiso   1.00
O130   O     0.64814   0.16666   0.18509   0.00000  Uiso   1.00
O131   O     0.60600   0.16667   0.31492   0.00000  Uiso   1.00
O132   O     0.39400   0.16667   0.18508   0.00000  Uiso   1.00
N133   N     0.57534   0.29431   0.27064   0.00000  Uiso   1.00
H134   H     0.55152   0.30605   0.29912   0.00000  Uiso   1.00
C135   C     0.55342   0.29297   0.23363   0.00000  Uiso   1.00
H136   H     0.54505   0.32451   0.22378   0.00000  Uiso   1.00
H137   H     0.51901   0.27561   0.24379   0.00000  Uiso   1.00
H138   H     0.57828   0.27740   0.20440   0.00000  Uiso   1.00
N139   N     0.42467   0.03902   0.22929   0.00000  Uiso   1.00
H140   H     0.44847   0.02729   0.20078   0.00000  Uiso   1.00
C141   C     0.44664   0.04034   0.26626   0.00000  Uiso   1.00
H142   H     0.45502   0.00879   0.27609   0.00000  Uiso   1.00
H143   H     0.42181   0.05588   0.29553   0.00000  Uiso   1.00
H144   H     0.48105   0.05769   0.25608   0.00000  Uiso   1.00
C145   C     0.66711   0.08736   0.25002   0.00000  Uiso   1.00
C146   C     0.99956   0.24597   0.24997   0.00000  Uiso   1.00
C147   C     0.86211   0.16052   0.04743   0.00000  Uiso   1.00
C148   C     0.80758   0.19195   0.45534   0.00000  Uiso   1.00
C149   C     0.91079   0.15566   0.02483   0.00000  Uiso   1.00
C150   C     0.75903   0.19755   0.47811   0.00000  Uiso   1.00
C151   C     0.95659   0.02262   0.26061   0.00000  Uiso   1.00
C152   C     0.71008   0.31071   0.23935   0.00000  Uiso   1.00
C153   C     0.95483   0.31348   0.25996   0.00000  Uiso   1.00
C154   C     0.71185   0.01985   0.24000   0.00000  Uiso   1.00
C155   C     0.99881   0.29059   0.24961   0.00000  Uiso   1.00
C156   C     0.66787   0.04274   0.25036   0.00000  Uiso   1.00
C157   C     0.84899   0.14636   0.28255   0.00000  Uiso   1.00
C158   C     0.81768   0.18697   0.21744   0.00000  Uiso   1.00
C159   C     0.79937   0.14651   0.28263   0.00000  Uiso   1.00
C160   C     0.86730   0.18682   0.21736   0.00000  Uiso   1.00
C161   C     0.97276   0.16652   0.33608   0.00000  Uiso   1.00
C162   C     0.69390   0.16726   0.16395   0.00000  Uiso   1.00
C163   C     0.95784   0.16578   0.38519   0.00000  Uiso   1.00
C164   C     0.70896   0.17158   0.11511   0.00000  Uiso   1.00
C165   C     0.97537   0.15373   0.45630   0.00000  Uiso   1.00
C166   C     0.69348   0.19435   0.04583   0.00000  Uiso   1.00
C167   C     0.99125   0.15695   0.40990   0.00000  Uiso   1.00
C168   C     0.67662   0.18603   0.09143   0.00000  Uiso   1.00
C169   C     0.90883   0.17261   0.40735   0.00000  Uiso   1.00
C170   C     0.75784   0.16467   0.09271   0.00000  Uiso   1.00
C171   C     0.89201   0.17065   0.45426   0.00000  Uiso   1.00
C172   C     0.77623   0.17441   0.04713   0.00000  Uiso   1.00
C173   C     0.92612   0.16011   0.47858   0.00000  Uiso   1.00
C174   C     0.74285   0.18866   0.02355   0.00000  Uiso   1.00
C175   C     0.84219   0.17756   0.47745   0.00000  Uiso   1.00
C176   C     0.82663   0.17043   0.02448   0.00000  Uiso   1.00
Cu177  Cu    0.71355   0.16667   0.25000   0.00000  Uiso   1.00
Cu178  Cu    0.95311   0.16666   0.25000   0.00000  Uiso   1.00
H179   H     0.93658   0.14784   0.04378   0.00000  Uiso   1.00
H180   H     0.73390   0.20889   0.45987   0.00000  Uiso   1.00
H181   H     0.78070   0.15151   0.11186   0.00000  Uiso   1.00
H182   H     0.88425   0.17823   0.38698   0.00000  Uiso   1.00
H183   H     0.97204   0.19185   0.10830   0.00000  Uiso   1.00
H184   H     0.69598   0.15142   0.39335   0.00000  Uiso   1.00
H185   H     0.66819   0.14561   0.47475   0.00000  Uiso   1.00
H186   H     0.66806   0.20603   0.02811   0.00000  Uiso   1.00
H187   H     0.85386   0.15721   0.08324   0.00000  Uiso   1.00
H188   H     0.81688   0.20045   0.42050   0.00000  Uiso   1.00
H189   H     0.92258   0.03985   0.26904   0.00000  Uiso   1.00
H190   H     0.74410   0.29348   0.23091   0.00000  Uiso   1.00
H191   H     0.86032   0.12987   0.30853   0.00000  Uiso   1.00
H192   H     0.80635   0.20345   0.19145   0.00000  Uiso   1.00
H193   H     0.77337   0.13036   0.30876   0.00000  Uiso   1.00
H194   H     0.89330   0.20297   0.19123   0.00000  Uiso   1.00
N195   N     0.78403   0.16668   0.24999   0.00000  Uiso   1.00
N196   N     0.88264   0.16666   0.25001   0.00000  Uiso   1.00
O197   O     0.70625   0.10655   0.25000   0.00000  Uiso   1.00
O198   O     0.96042   0.22678   0.25000   0.00000  Uiso   1.00
O199   O     0.96039   0.10654   0.25001   0.00000  Uiso   1.00
O200   O     0.70628   0.22679   0.25000   0.00000  Uiso   1.00
O201   O     0.68519   0.16668   0.31492   0.00000  Uiso   1.00
O202   O     0.98148   0.16666   0.18509   0.00000  Uiso   1.00
O203   O     0.93933   0.16667   0.31492   0.00000  Uiso   1.00
O204   O     0.72733   0.16667   0.18508   0.00000  Uiso   1.00
N205   N     0.90867   0.29431   0.27064   0.00000  Uiso   1.00
H206   H     0.88485   0.30605   0.29912   0.00000  Uiso   1.00
C207   C     0.88675   0.29297   0.23363   0.00000  Uiso   1.00
H208   H     0.87838   0.32451   0.22378   0.00000  Uiso   1.00
H209   H     0.85235   0.27561   0.24379   0.00000  Uiso   1.00
H210   H     0.91161   0.27740   0.20440   0.00000  Uiso   1.00
N211   N     0.75801   0.03902   0.22929   0.00000  Uiso   1.00
H212   H     0.78180   0.02729   0.20078   0.00000  Uiso   1.00
C213   C     0.77997   0.04034   0.26626   0.00000  Uiso   1.00
H214   H     0.78836   0.00879   0.27609   0.00000  Uiso   1.00
H215   H     0.75514   0.05588   0.29553   0.00000  Uiso   1.00
H216   H     0.81438   0.05769   0.25608   0.00000  Uiso   1.00
C217   C     0.00044   0.42070   0.25002   0.00000  Uiso   1.00
C218   C     0.33289   0.57930   0.24997   0.00000  Uiso   1.00
C219   C     0.19544   0.49386   0.04743   0.00000  Uiso   1.00
C220   C     0.14091   0.52528   0.45534   0.00000  Uiso   1.00
C221   C     0.24412   0.48900   0.02483   0.00000  Uiso   1.00
C222   C     0.09236   0.53088   0.47811   0.00000  Uiso   1.00
C223   C     0.28992   0.35595   0.26061   0.00000  Uiso   1.00
C224   C     0.04342   0.64404   0.23935   0.00000  Uiso   1.00
C225   C     0.28816   0.64681   0.25996   0.00000  Uiso   1.00
C226   C     0.04518   0.35319   0.24000   0.00000  Uiso   1.00
C227   C     0.33214   0.62393   0.24961   0.00000  Uiso   1.00
C228   C     0.00120   0.37607   0.25036   0.00000  Uiso   1.00
C229   C     0.18233   0.47969   0.28255   0.00000  Uiso   1.00
C230   C     0.15101   0.52030   0.21744   0.00000  Uiso   1.00
C231   C     0.13270   0.47985   0.28263   0.00000  Uiso   1.00
C232   C     0.20063   0.52015   0.21736   0.00000  Uiso   1.00
C233   C     0.30610   0.49986   0.33608   0.00000  Uiso   1.00
C234   C     0.02723   0.50059   0.16395   0.00000  Uiso   1.00
C235   C     0.29117   0.49911   0.38519   0.00000  Uiso   1.00
C236   C     0.04230   0.50492   0.11511   0.00000  Uiso   1.00
C237   C     0.30870   0.48706   0.45630   0.00000  Uiso   1.00
C238   C     0.02681   0.52768   0.04583   0.00000  Uiso   1.00
C239   C     0.32458   0.49028   0.40990   0.00000  Uiso   1.00
C240   C     0.00996   0.51936   0.09143   0.00000  Uiso   1.00
C241   C     0.24216   0.50595   0.40735   0.00000  Uiso   1.00
C242   C     0.09117   0.49800   0.09271   0.00000  Uiso   1.00
C243   C     0.22534   0.50399   0.45426   0.00000  Uiso   1.00
C244   C     0.10956   0.50774   0.04713   0.00000  Uiso   1.00
C245   C     0.25945   0.49344   0.47858   0.00000  Uiso   1.00
C246   C     0.07618   0.52199   0.02355   0.00000  Uiso   1.00
C247   C     0.17552   0.51089   0.47745   0.00000  Uiso   1.00
C248   C     0.15996   0.50377   0.02448   0.00000  Uiso   1.00
Cu249  Cu    0.04689   0.50001   0.25000   0.00000  Uiso   1.00
Cu250  Cu    0.28645   0.49999   0.25000   0.00000  Uiso   1.00
H251   H     0.26992   0.48117   0.04378   0.00000  Uiso   1.00
H252   H     0.06723   0.54222   0.45987   0.00000  Uiso   1.00
H253   H     0.11403   0.48484   0.11186   0.00000  Uiso   1.00
H254   H     0.21758   0.51156   0.38698   0.00000  Uiso   1.00
H255   H     0.30537   0.52519   0.10830   0.00000  Uiso   1.00
H256   H     0.02931   0.48475   0.39335   0.00000  Uiso   1.00
H257   H     0.00152   0.47894   0.47475   0.00000  Uiso   1.00
H258   H     0.00139   0.53936   0.02811   0.00000  Uiso   1.00
H259   H     0.18720   0.49054   0.08324   0.00000  Uiso   1.00
H260   H     0.15021   0.53379   0.42050   0.00000  Uiso   1.00
H261   H     0.25591   0.37318   0.26904   0.00000  Uiso   1.00
H262   H     0.07743   0.62681   0.23091   0.00000  Uiso   1.00
H263   H     0.19365   0.46320   0.30853   0.00000  Uiso   1.00
H264   H     0.13969   0.53678   0.19145   0.00000  Uiso   1.00
H265   H     0.10670   0.46369   0.30876   0.00000  Uiso   1.00
H266   H     0.22664   0.53630   0.19123   0.00000  Uiso   1.00
N267   N     0.11736   0.50001   0.24999   0.00000  Uiso   1.00
N268   N     0.21597   0.49999   0.25001   0.00000  Uiso   1.00
O269   O     0.03958   0.43989   0.25000   0.00000  Uiso   1.00
O270   O     0.29375   0.56011   0.25000   0.00000  Uiso   1.00
O271   O     0.29372   0.43988   0.25001   0.00000  Uiso   1.00
O272   O     0.03961   0.56012   0.25000   0.00000  Uiso   1.00
O273   O     0.01852   0.50001   0.31492   0.00000  Uiso   1.00
O274   O     0.31481   0.49999   0.18509   0.00000  Uiso   1.00
O275   O     0.27267   0.50000   0.31492   0.00000  Uiso   1.00
O276   O     0.06067   0.50000   0.18508   0.00000  Uiso   1.00
N277   N     0.24200   0.62764   0.27064   0.00000  Uiso   1.00
H278   H     0.21818   0.63938   0.29912   0.00000  Uiso   1.00
C279   C     0.22009   0.62630   0.23363   0.00000  Uiso   1.00
H280   H     0.21172   0.65784   0.22378   0.00000  Uiso   1.00
H281   H     0.18568   0.60895   0.24379   0.00000  Uiso   1.00
H282   H     0.24495   0.61074   0.20440   0.00000  Uiso   1.00
N283   N     0.09134   0.37235   0.22929   0.00000  Uiso   1.00
H284   H     0.11514   0.36062   0.20078   0.00000  Uiso   1.00
C285   C     0.11331   0.37367   0.26626   0.00000  Uiso   1.00
H286   H     0.12169   0.34212   0.27609   0.00000  Uiso   1.00
H287   H     0.08847   0.38922   0.29553   0.00000  Uiso   1.00
H288   H     0.14771   0.39102   0.25608   0.00000  Uiso   1.00
C289   C     0.33378   0.42070   0.25002   0.00000  Uiso   1.00
C290   C     0.66623   0.57930   0.24997   0.00000  Uiso   1.00
C291   C     0.52877   0.49386   0.04743   0.00000  Uiso   1.00
C292   C     0.47425   0.52528   0.45534   0.00000  Uiso   1.00
C293   C     0.57746   0.48900   0.02483   0.00000  Uiso   1.00
C294   C     0.42570   0.53088   0.47811   0.00000  Uiso   1.00
C295   C     0.62325   0.35595   0.26061   0.00000  Uiso   1.00
C296   C     0.37675   0.64404   0.23935   0.00000  Uiso   1.00
C297   C     0.62149   0.64681   0.25996   0.00000  Uiso   1.00
C298   C     0.37851   0.35319   0.24000   0.00000  Uiso   1.00
C299   C     0.66547   0.62393   0.24961   0.00000  Uiso   1.00
C300   C     0.33453   0.37607   0.25036   0.00000  Uiso   1.00
C301   C     0.51566   0.47969   0.28255   0.00000  Uiso   1.00
C302   C     0.48434   0.52030   0.21744   0.00000  Uiso   1.00
C303   C     0.46604   0.47985   0.28263   0.00000  Uiso   1.00
C304   C     0.53396   0.52015   0.21736   0.00000  Uiso   1.00
C305   C     0.63943   0.49986   0.33608   0.00000  Uiso   1.00
C306   C     0.36056   0.50059   0.16395   0.00000  Uiso   1.00
C307   C     0.62450   0.49911   0.38519   0.00000  Uiso   1.00
C308   C     0.37563   0.50492   0.11511   0.00000  Uiso   1.00
C309   C     0.64203   0.48706   0.45630   0.00000  Uiso   1.00
C310   C     0.36014   0.52768   0.04583   0.00000  Uiso   1.00
C311   C     0.65792   0.49028   0.40990   0.00000  Uiso   1.00
C312   C     0.34329   0.51936   0.09143   0.00000  Uiso   1.00
C313   C     0.57550   0.50595   0.40735   0.00000  Uiso   1.00
C314   C     0.42450   0.49800   0.09271   0.00000  Uiso   1.00
C315   C     0.55868   0.50399   0.45426   0.00000  Uiso   1.00
C316   C     0.44290   0.50774   0.04713   0.00000  Uiso   1.00
C317   C     0.59278   0.49344   0.47858   0.00000  Uiso   1.00
C318   C     0.40951   0.52199   0.02355   0.00000  Uiso   1.00
C319   C     0.50885   0.51089   0.47745   0.00000  Uiso   1.00
C320   C     0.49329   0.50377   0.02448   0.00000  Uiso   1.00
Cu321  Cu    0.38022   0.50001   0.25000   0.00000  Uiso   1.00
Cu322  Cu    0.61978   0.49999   0.25000   0.00000  Uiso   1.00
H323   H     0.60325   0.48117   0.04378   0.00000  Uiso   1.00
H324   H     0.40056   0.54222   0.45987   0.00000  Uiso   1.00
H325   H     0.44736   0.48484   0.11186   0.00000  Uiso   1.00
H326   H     0.55091   0.51156   0.38698   0.00000  Uiso   1.00
H327   H     0.63870   0.52519   0.10830   0.00000  Uiso   1.00
H328   H     0.36265   0.48475   0.39335   0.00000  Uiso   1.00
H329   H     0.33485   0.47894   0.47475   0.00000  Uiso   1.00
H330   H     0.33472   0.53936   0.02811   0.00000  Uiso   1.00
H331   H     0.52053   0.49054   0.08324   0.00000  Uiso   1.00
H332   H     0.48355   0.53379   0.42050   0.00000  Uiso   1.00
H333   H     0.58924   0.37318   0.26904   0.00000  Uiso   1.00
H334   H     0.41076   0.62681   0.23091   0.00000  Uiso   1.00
H335   H     0.52699   0.46320   0.30853   0.00000  Uiso   1.00
H336   H     0.47302   0.53678   0.19145   0.00000  Uiso   1.00
H337   H     0.44003   0.46369   0.30876   0.00000  Uiso   1.00
H338   H     0.55997   0.53630   0.19123   0.00000  Uiso   1.00
N339   N     0.45069   0.50001   0.24999   0.00000  Uiso   1.00
N340   N     0.54931   0.49999   0.25001   0.00000  Uiso   1.00
O341   O     0.37291   0.43989   0.25000   0.00000  Uiso   1.00
O342   O     0.62709   0.56011   0.25000   0.00000  Uiso   1.00
O343   O     0.62706   0.43988   0.25001   0.00000  Uiso   1.00
O344   O     0.37294   0.56012   0.25000   0.00000  Uiso   1.00
O345   O     0.35186   0.50001   0.31492   0.00000  Uiso   1.00
O346   O     0.64814   0.49999   0.18509   0.00000  Uiso   1.00
O347   O     0.60600   0.50000   0.31492   0.00000  Uiso   1.00
O348   O     0.39400   0.50000   0.18508   0.00000  Uiso   1.00
N349   N     0.57534   0.62764   0.27064   0.00000  Uiso   1.00
H350   H     0.55152   0.63938   0.29912   0.00000  Uiso   1.00
C351   C     0.55342   0.62630   0.23363   0.00000  Uiso   1.00
H352   H     0.54505   0.65784   0.22378   0.00000  Uiso   1.00
H353   H     0.51901   0.60895   0.24379   0.00000  Uiso   1.00
H354   H     0.57828   0.61074   0.20440   0.00000  Uiso   1.00
N355   N     0.42467   0.37235   0.22929   0.00000  Uiso   1.00
H356   H     0.44847   0.36062   0.20078   0.00000  Uiso   1.00
C357   C     0.44664   0.37367   0.26626   0.00000  Uiso   1.00
H358   H     0.45502   0.34212   0.27609   0.00000  Uiso   1.00
H359   H     0.42181   0.38922   0.29553   0.00000  Uiso   1.00
H360   H     0.48105   0.39102   0.25608   0.00000  Uiso   1.00
C361   C     0.66711   0.42070   0.25002   0.00000  Uiso   1.00
C362   C     0.99956   0.57930   0.24997   0.00000  Uiso   1.00
C363   C     0.86211   0.49386   0.04743   0.00000  Uiso   1.00
C364   C     0.80758   0.52528   0.45534   0.00000  Uiso   1.00
C365   C     0.91079   0.48900   0.02483   0.00000  Uiso   1.00
C366   C     0.75903   0.53088   0.47811   0.00000  Uiso   1.00
C367   C     0.95659   0.35595   0.26061   0.00000  Uiso   1.00
C368   C     0.71008   0.64404   0.23935   0.00000  Uiso   1.00
C369   C     0.95483   0.64681   0.25996   0.00000  Uiso   1.00
C370   C     0.71185   0.35319   0.24000   0.00000  Uiso   1.00
C371   C     0.99881   0.62393   0.24961   0.00000  Uiso   1.00
C372   C     0.66787   0.37607   0.25036   0.00000  Uiso   1.00
C373   C     0.84899   0.47969   0.28255   0.00000  Uiso   1.00
C374   C     0.81768   0.52030   0.21744   0.00000  Uiso   1.00
C375   C     0.79937   0.47985   0.28263   0.00000  Uiso   1.00
C376   C     0.86730   0.52015   0.21736   0.00000  Uiso   1.00
C377   C     0.97276   0.49986   0.33608   0.00000  Uiso   1.00
C378   C     0.69390   0.50059   0.16395   0.00000  Uiso   1.00
C379   C     0.95784   0.49911   0.38519   0.00000  Uiso   1.00
C380   C     0.70896   0.50492   0.11511   0.00000  Uiso   1.00
C381   C     0.97537   0.48706   0.45630   0.00000  Uiso   1.00
C382   C     0.69348   0.52768   0.04583   0.00000  Uiso   1.00
C383   C     0.99125   0.49028   0.40990   0.00000  Uiso   1.00
C384   C     0.67662   0.51936   0.09143   0.00000  Uiso   1.00
C385   C     0.90883   0.50595   0.40735   0.00000  Uiso   1.00
C386   C     0.75784   0.49800   0.09271   0.00000  Uiso   1.00
C387   C     0.89201   0.50399   0.45426   0.00000  Uiso   1.00
C388   C     0.77623   0.50774   0.04713   0.00000  Uiso   1.00
C389   C     0.92612   0.49344   0.47858   0.00000  Uiso   1.00
C390   C     0.74285   0.52199   0.02355   0.00000  Uiso   1.00
C391   C     0.84219   0.51089   0.47745   0.00000  Uiso   1.00
C392   C     0.82663   0.50377   0.02448   0.00000  Uiso   1.00
Cu393  Cu    0.71355   0.50001   0.25000   0.00000  Uiso   1.00
Cu394  Cu    0.95311   0.49999   0.25000   0.00000  Uiso   1.00
H395   H     0.93658   0.48117   0.04378   0.00000  Uiso   1.00
H396   H     0.73390   0.54222   0.45987   0.00000  Uiso   1.00
H397   H     0.78070   0.48484   0.11186   0.00000  Uiso   1.00
H398   H     0.88425   0.51156   0.38698   0.00000  Uiso   1.00
H399   H     0.97204   0.52519   0.10830   0.00000  Uiso   1.00
H400   H     0.69598   0.48475   0.39335   0.00000  Uiso   1.00
H401   H     0.66819   0.47894   0.47475   0.00000  Uiso   1.00
H402   H     0.66806   0.53936   0.02811   0.00000  Uiso   1.00
H403   H     0.85386   0.49054   0.08324   0.00000  Uiso   1.00
H404   H     0.81688   0.53379   0.42050   0.00000  Uiso   1.00
H405   H     0.92258   0.37318   0.26904   0.00000  Uiso   1.00
H406   H     0.74410   0.62681   0.23091   0.00000  Uiso   1.00
H407   H     0.86032   0.46320   0.30853   0.00000  Uiso   1.00
H408   H     0.80635   0.53678   0.19145   0.00000  Uiso   1.00
H409   H     0.77337   0.46369   0.30876   0.00000  Uiso   1.00
H410   H     0.89330   0.53630   0.19123   0.00000  Uiso   1.00
N411   N     0.78403   0.50001   0.24999   0.00000  Uiso   1.00
N412   N     0.88264   0.49999   0.25001   0.00000  Uiso   1.00
O413   O     0.70625   0.43989   0.25000   0.00000  Uiso   1.00
O414   O     0.96042   0.56011   0.25000   0.00000  Uiso   1.00
O415   O     0.96039   0.43988   0.25001   0.00000  Uiso   1.00
O416   O     0.70628   0.56012   0.25000   0.00000  Uiso   1.00
O417   O     0.68519   0.50001   0.31492   0.00000  Uiso   1.00
O418   O     0.98148   0.49999   0.18509   0.00000  Uiso   1.00
O419   O     0.93933   0.50000   0.31492   0.00000  Uiso   1.00
O420   O     0.72733   0.50000   0.18508   0.00000  Uiso   1.00
N421   N     0.90867   0.62764   0.27064   0.00000  Uiso   1.00
H422   H     0.88485   0.63938   0.29912   0.00000  Uiso   1.00
C423   C     0.88675   0.62630   0.23363   0.00000  Uiso   1.00
H424   H     0.87838   0.65784   0.22378   0.00000  Uiso   1.00
H425   H     0.85235   0.60895   0.24379   0.00000  Uiso   1.00
H426   H     0.91161   0.61074   0.20440   0.00000  Uiso   1.00
N427   N     0.75801   0.37235   0.22929   0.00000  Uiso   1.00
H428   H     0.78180   0.36062   0.20078   0.00000  Uiso   1.00
C429   C     0.77997   0.37367   0.26626   0.00000  Uiso   1.00
H430   H     0.78836   0.34212   0.27609   0.00000  Uiso   1.00
H431   H     0.75514   0.38922   0.29553   0.00000  Uiso   1.00
H432   H     0.81438   0.39102   0.25608   0.00000  Uiso   1.00
C433   C     0.00044   0.75403   0.25002   0.00000  Uiso   1.00
C434   C     0.33289   0.91264   0.24997   0.00000  Uiso   1.00
C435   C     0.19544   0.82719   0.04743   0.00000  Uiso   1.00
C436   C     0.14091   0.85862   0.45534   0.00000  Uiso   1.00
C437   C     0.24412   0.82233   0.02483   0.00000  Uiso   1.00
C438   C     0.09236   0.86421   0.47811   0.00000  Uiso   1.00
C439   C     0.28992   0.68929   0.26061   0.00000  Uiso   1.00
C440   C     0.04342   0.97738   0.23935   0.00000  Uiso   1.00
C441   C     0.28816   0.98014   0.25996   0.00000  Uiso   1.00
C442   C     0.04518   0.68652   0.24000   0.00000  Uiso   1.00
C443   C     0.33214   0.95726   0.24961   0.00000  Uiso   1.00
C444   C     0.00120   0.70941   0.25036   0.00000  Uiso   1.00
C445   C     0.18233   0.81303   0.28255   0.00000  Uiso   1.00
C446   C     0.15101   0.85363   0.21744   0.00000  Uiso   1.00
C447   C     0.13270   0.81318   0.28263   0.00000  Uiso   1.00
C448   C     0.20063   0.85348   0.21736   0.00000  Uiso   1.00
C449   C     0.30610   0.83319   0.33608   0.00000  Uiso   1.00
C450   C     0.02723   0.83393   0.16395   0.00000  Uiso   1.00
C451   C     0.29117   0.83244   0.38519   0.00000  Uiso   1.00
C452   C     0.04230   0.83825   0.11511   0.00000  Uiso   1.00
C453   C     0.30870   0.82040   0.45630   0.00000  Uiso   1.00
C454   C     0.02681   0.86102   0.04583   0.00000  Uiso   1.00
C455   C     0.32458   0.82362   0.40990   0.00000  Uiso   1.00
C456   C     0.00996   0.85269   0.09143   0.00000  Uiso   1.00
C457   C     0.24216   0.83928   0.40735   0.00000  Uiso   1.00
C458   C     0.09117   0.83133   0.09271   0.00000  Uiso   1.00
C459   C     0.22534   0.83732   0.45426   0.00000  Uiso   1.00
C460   C     0.10956   0.84107   0.04713   0.00000  Uiso   1.00
C461   C     0.25945   0.82678   0.47858   0.00000  Uiso   1.00
C462   C     0.07618   0.85533   0.02355   0.00000  Uiso   1.00
C463   C     0.17552   0.84423   0.47745   0.00000  Uiso   1.00
C464   C     0.15996   0.83710   0.02448   0.00000  Uiso   1.00
Cu465  Cu    0.04689   0.83334   0.25000   0.00000  Uiso   1.00
Cu466  Cu    0.28645   0.83333   0.25000   0.00000  Uiso   1.00
H467   H     0.26992   0.81450   0.04378   0.00000  Uiso   1.00
H468   H     0.06723   0.87556   0.45987   0.00000  Uiso   1.00
H469   H     0.11403   0.81817   0.11186   0.00000  Uiso   1.00
H470   H     0.21758   0.84489   0.38698   0.00000  Uiso   1.00
H471   H     0.30537   0.85852   0.10830   0.00000  Uiso   1.00
H472   H     0.02931   0.81809   0.39335   0.00000  Uiso   1.00
H473   H     0.00152   0.81228   0.47475   0.00000  Uiso   1.00
H474   H     0.00139   0.87269   0.02811   0.00000  Uiso   1.00
H475   H     0.18720   0.82387   0.08324   0.00000  Uiso   1.00
H476   H     0.15021   0.86712   0.42050   0.00000  Uiso   1.00
H477   H     0.25591   0.70651   0.26904   0.00000  Uiso   1.00
H478   H     0.07743   0.96015   0.23091   0.00000  Uiso   1.00
H479   H     0.19365   0.79653   0.30853   0.00000  Uiso   1.00
H480   H     0.13969   0.87012   0.19145   0.00000  Uiso   1.00
H481   H     0.10670   0.79702   0.30876   0.00000  Uiso   1.00
H482   H     0.22664   0.86964   0.19123   0.00000  Uiso   1.00
N483   N     0.11736   0.83334   0.24999   0.00000  Uiso   1.00
N484   N     0.21597   0.83332   0.25001   0.00000  Uiso   1.00
O485   O     0.03958   0.77322   0.25000   0.00000  Uiso   1.00
O486   O     0.29375   0.89345   0.25000   0.00000  Uiso   1.00
O487   O     0.29372   0.77321   0.25001   0.00000  Uiso   1.00
O488   O     0.03961   0.89346   0.25000   0.00000  Uiso   1.00
O489   O     0.01852   0.83334   0.31492   0.00000  Uiso   1.00
O490   O     0.31481   0.83332   0.18509   0.00000  Uiso   1.00
O491   O     0.27267   0.83333   0.31492   0.00000  Uiso   1.00
O492   O     0.06067   0.83333   0.18508   0.00000  Uiso   1.00
N493   N     0.24200   0.96097   0.27064   0.00000  Uiso   1.00
H494   H     0.21818   0.97272   0.29912   0.00000  Uiso   1.00
C495   C     0.22009   0.95963   0.23363   0.00000  Uiso   1.00
H496   H     0.21172   0.99117   0.22378   0.00000  Uiso   1.00
H497   H     0.18568   0.94228   0.24379   0.00000  Uiso   1.00
H498   H     0.24495   0.94407   0.20440   0.00000  Uiso   1.00
N499   N     0.09134   0.70569   0.22929   0.00000  Uiso   1.00
H500   H     0.11514   0.69395   0.20078   0.00000  Uiso   1.00
C501   C     0.11331   0.70700   0.26626   0.00000  Uiso   1.00
H502   H     0.12169   0.67546   0.27609   0.00000  Uiso   1.00
H503   H     0.08847   0.72255   0.29553   0.00000  Uiso   1.00
H504   H     0.14771   0.72435   0.25608   0.00000  Uiso   1.00
C505   C     0.33378   0.75403   0.25002   0.00000  Uiso   1.00
C506   C     0.66623   0.91264   0.24997   0.00000  Uiso   1.00
C507   C     0.52877   0.82719   0.04743   0.00000  Uiso   1.00
C508   C     0.47425   0.85862   0.45534   0.00000  Uiso   1.00
C509   C     0.57746   0.82233   0.02483   0.00000  Uiso   1.00
C510   C     0.42570   0.86421   0.47811   0.00000  Uiso   1.00
C511   C     0.62325   0.68929   0.26061   0.00000  Uiso   1.00
C512   C     0.37675   0.97738   0.23935   0.00000  Uiso   1.00
C513   C     0.62149   0.98014   0.25996   0.00000  Uiso   1.00
C514   C     0.37851   0.68652   0.24000   0.00000  Uiso   1.00
C515   C     0.66547   0.95726   0.24961   0.00000  Uiso   1.00
C516   C     0.33453   0.70941   0.25036   0.00000  Uiso   1.00
C517   C     0.51566   0.81303   0.28255   0.00000  Uiso   1.00
C518   C     0.48434   0.85363   0.21744   0.00000  Uiso   1.00
C519   C     0.46604   0.81318   0.28263   0.00000  Uiso   1.00
C520   C     0.53396   0.85348   0.21736   0.00000  Uiso   1.00
C521   C     0.63943   0.83319   0.33608   0.00000  Uiso   1.00
C522   C     0.36056   0.83393   0.16395   0.00000  Uiso   1.00
C523   C     0.62450   0.83244   0.38519   0.00000  Uiso   1.00
C524   C     0.37563   0.83825   0.11511   0.00000  Uiso   1.00
C525   C     0.64203   0.82040   0.45630   0.00000  Uiso   1.00
C526   C     0.36014   0.86102   0.04583   0.00000  Uiso   1.00
C527   C     0.65792   0.82362   0.40990   0.00000  Uiso   1.00
C528   C     0.34329   0.85269   0.09143   0.00000  Uiso   1.00
C529   C     0.57550   0.83928   0.40735   0.00000  Uiso   1.00
C530   C     0.42450   0.83133   0.09271   0.00000  Uiso   1.00
C531   C     0.55868   0.83732   0.45426   0.00000  Uiso   1.00
C532   C     0.44290   0.84107   0.04713   0.00000  Uiso   1.00
C533   C     0.59278   0.82678   0.47858   0.00000  Uiso   1.00
C534   C     0.40951   0.85533   0.02355   0.00000  Uiso   1.00
C535   C     0.50885   0.84423   0.47745   0.00000  Uiso   1.00
C536   C     0.49329   0.83710   0.02448   0.00000  Uiso   1.00
Cu537  Cu    0.38022   0.83334   0.25000   0.00000  Uiso   1.00
Cu538  Cu    0.61978   0.83333   0.25000   0.00000  Uiso   1.00
H539   H     0.60325   0.81450   0.04378   0.00000  Uiso   1.00
H540   H     0.40056   0.87556   0.45987   0.00000  Uiso   1.00
H541   H     0.44736   0.81817   0.11186   0.00000  Uiso   1.00
H542   H     0.55091   0.84489   0.38698   0.00000  Uiso   1.00
H543   H     0.63870   0.85852   0.10830   0.00000  Uiso   1.00
H544   H     0.36265   0.81809   0.39335   0.00000  Uiso   1.00
H545   H     0.33485   0.81228   0.47475   0.00000  Uiso   1.00
H546   H     0.33472   0.87269   0.02811   0.00000  Uiso   1.00
H547   H     0.52053   0.82387   0.08324   0.00000  Uiso   1.00
H548   H     0.48355   0.86712   0.42050   0.00000  Uiso   1.00
H549   H     0.58924   0.70651   0.26904   0.00000  Uiso   1.00
H550   H     0.41076   0.96015   0.23091   0.00000  Uiso   1.00
H551   H     0.52699   0.79653   0.30853   0.00000  Uiso   1.00
H552   H     0.47302   0.87012   0.19145   0.00000  Uiso   1.00
H553   H     0.44003   0.79702   0.30876   0.00000  Uiso   1.00
H554   H     0.55997   0.86964   0.19123   0.00000  Uiso   1.00
N555   N     0.45069   0.83334   0.24999   0.00000  Uiso   1.00
N556   N     0.54931   0.83332   0.25001   0.00000  Uiso   1.00
O557   O     0.37291   0.77322   0.25000   0.00000  Uiso   1.00
O558   O     0.62709   0.89345   0.25000   0.00000  Uiso   1.00
O559   O     0.62706   0.77321   0.25001   0.00000  Uiso   1.00
O560   O     0.37294   0.89346   0.25000   0.00000  Uiso   1.00
O561   O     0.35186   0.83334   0.31492   0.00000  Uiso   1.00
O562   O     0.64814   0.83332   0.18509   0.00000  Uiso   1.00
O563   O     0.60600   0.83333   0.31492   0.00000  Uiso   1.00
O564   O     0.39400   0.83333   0.18508   0.00000  Uiso   1.00
N565   N     0.57534   0.96097   0.27064   0.00000  Uiso   1.00
H566   H     0.55152   0.97272   0.29912   0.00000  Uiso   1.00
C567   C     0.55342   0.95963   0.23363   0.00000  Uiso   1.00
H568   H     0.54505   0.99117   0.22378   0.00000  Uiso   1.00
H569   H     0.51901   0.94228   0.24379   0.00000  Uiso   1.00
H570   H     0.57828   0.94407   0.20440   0.00000  Uiso   1.00
N571   N     0.42467   0.70569   0.22929   0.00000  Uiso   1.00
H572   H     0.44847   0.69395   0.20078   0.00000  Uiso   1.00
C573   C     0.44664   0.70700   0.26626   0.00000  Uiso   1.00
H574   H     0.45502   0.67546   0.27609   0.00000  Uiso   1.00
H575   H     0.42181   0.72255   0.29553   0.00000  Uiso   1.00
H576   H     0.48105   0.72435   0.25608   0.00000  Uiso   1.00
C577   C     0.66711   0.75403   0.25002   0.00000  Uiso   1.00
C578   C     0.99956   0.91264   0.24997   0.00000  Uiso   1.00
C579   C     0.86211   0.82719   0.04743   0.00000  Uiso   1.00
C580   C     0.80758   0.85862   0.45534   0.00000  Uiso   1.00
C581   C     0.91079   0.82233   0.02483   0.00000  Uiso   1.00
C582   C     0.75903   0.86421   0.47811   0.00000  Uiso   1.00
C583   C     0.95659   0.68929   0.26061   0.00000  Uiso   1.00
C584   C     0.71008   0.97738   0.23935   0.00000  Uiso   1.00
C585   C     0.95483   0.98014   0.25996   0.00000  Uiso   1.00
C586   C     0.71185   0.68652   0.24000   0.00000  Uiso   1.00
C587   C     0.99881   0.95726   0.24961   0.00000  Uiso   1.00
C588   C     0.66787   0.70941   0.25036   0.00000  Uiso   1.00
C589   C     0.84899   0.81303   0.28255   0.00000  Uiso   1.00
C590   C     0.81768   0.85363   0.21744   0.00000  Uiso   1.00
C591   C     0.79937   0.81318   0.28263   0.00000  Uiso   1.00
C592   C     0.86730   0.85348   0.21736   0.00000  Uiso   1.00
C593   C     0.97276   0.83319   0.33608   0.00000  Uiso   1.00
C594   C     0.69390   0.83393   0.16395   0.00000  Uiso   1.00
C595   C     0.95784   0.83244   0.38519   0.00000  Uiso   1.00
C596   C     0.70896   0.83825   0.11511   0.00000  Uiso   1.00
C597   C     0.97537   0.82040   0.45630   0.00000  Uiso   1.00
C598   C     0.69348   0.86102   0.04583   0.00000  Uiso   1.00
C599   C     0.99125   0.82362   0.40990   0.00000  Uiso   1.00
C600   C     0.67662   0.85269   0.09143   0.00000  Uiso   1.00
C601   C     0.90883   0.83928   0.40735   0.00000  Uiso   1.00
C602   C     0.75784   0.83133   0.09271   0.00000  Uiso   1.00
C603   C     0.89201   0.83732   0.45426   0.00000  Uiso   1.00
C604   C     0.77623   0.84107   0.04713   0.00000  Uiso   1.00
C605   C     0.92612   0.82678   0.47858   0.00000  Uiso   1.00
C606   C     0.74285   0.85533   0.02355   0.00000  Uiso   1.00
C607   C     0.84219   0.84423   0.47745   0.00000  Uiso   1.00
C608   C     0.82663   0.83710   0.02448   0.00000  Uiso   1.00
Cu609  Cu    0.71355   0.83334   0.25000   0.00000  Uiso   1.00
Cu610  Cu    0.95311   0.83333   0.25000   0.00000  Uiso   1.00
H611   H     0.93658   0.81450   0.04378   0.00000  Uiso   1.00
H612   H     0.73390   0.87556   0.45987   0.00000  Uiso   1.00
H613   H     0.78070   0.81817   0.11186   0.00000  Uiso   1.00
H614   H     0.88425   0.84489   0.38698   0.00000  Uiso   1.00
H615   H     0.97204   0.85852   0.10830   0.00000  Uiso   1.00
H616   H     0.69598   0.81809   0.39335   0.00000  Uiso   1.00
H617   H     0.66819   0.81228   0.47475   0.00000  Uiso   1.00
H618   H     0.66806   0.87269   0.02811   0.00000  Uiso   1.00
H619   H     0.85386   0.82387   0.08324   0.00000  Uiso   1.00
H620   H     0.81688   0.86712   0.42050   0.00000  Uiso   1.00
H621   H     0.92258   0.70651   0.26904   0.00000  Uiso   1.00
H622   H     0.74410   0.96015   0.23091   0.00000  Uiso   1.00
H623   H     0.86032   0.79653   0.30853   0.00000  Uiso   1.00
H624   H     0.80635   0.87012   0.19145   0.00000  Uiso   1.00
H625   H     0.77337   0.79702   0.30876   0.00000  Uiso   1.00
H626   H     0.89330   0.86964   0.19123   0.00000  Uiso   1.00
N627   N     0.78403   0.83334   0.24999   0.00000  Uiso   1.00
N628   N     0.88264   0.83332   0.25001   0.00000  Uiso   1.00
O629   O     0.70625   0.77322   0.25000   0.00000  Uiso   1.00
O630   O     0.96042   0.89345   0.25000   0.00000  Uiso   1.00
O631   O     0.96039   0.77321   0.25001   0.00000  Uiso   1.00
O632   O     0.70628   0.89346   0.25000   0.00000  Uiso   1.00
O633   O     0.68519   0.83334   0.31492   0.00000  Uiso   1.00
O634   O     0.98148   0.83332   0.18509   0.00000  Uiso   1.00
O635   O     0.93933   0.83333   0.31492   0.00000  Uiso   1.00
O636   O     0.72733   0.83333   0.18508   0.00000  Uiso   1.00
N637   N     0.90867   0.96097   0.27064   0.00000  Uiso   1.00
H638   H     0.88485   0.97272   0.29912   0.00000  Uiso   1.00
C639   C     0.88675   0.95963   0.23363   0.00000  Uiso   1.00
H640   H     0.87838   0.99117   0.22378   0.00000  Uiso   1.00
H641   H     0.85235   0.94228   0.24379   0.00000  Uiso   1.00
H642   H     0.91161   0.94407   0.20440   0.00000  Uiso   1.00
N643   N     0.75801   0.70569   0.22929   0.00000  Uiso   1.00
H644   H     0.78180   0.69395   0.20078   0.00000  Uiso   1.00
C645   C     0.77997   0.70700   0.26626   0.00000  Uiso   1.00
H646   H     0.78836   0.67546   0.27609   0.00000  Uiso   1.00
H647   H     0.75514   0.72255   0.29553   0.00000  Uiso   1.00
H648   H     0.81438   0.72435   0.25608   0.00000  Uiso   1.00
C649   C     0.00044   0.08736   0.75002   0.00000  Uiso   1.00
C650   C     0.33289   0.24597   0.74997   0.00000  Uiso   1.00
C651   C     0.19544   0.16052   0.54743   0.00000  Uiso   1.00
C652   C     0.14091   0.19195   0.95534   0.00000  Uiso   1.00
C653   C     0.24412   0.15566   0.52483   0.00000  Uiso   1.00
C654   C     0.09236   0.19755   0.97811   0.00000  Uiso   1.00
C655   C     0.28992   0.02262   0.76061   0.00000  Uiso   1.00
C656   C     0.04342   0.31071   0.73935   0.00000  Uiso   1.00
C657   C     0.28816   0.31348   0.75996   0.00000  Uiso   1.00
C658   C     0.04518   0.01985   0.74000   0.00000  Uiso   1.00
C659   C     0.33214   0.29059   0.74961   0.00000  Uiso   1.00
C660   C     0.00120   0.04274   0.75036   0.00000  Uiso   1.00
C661   C     0.18233   0.14636   0.78255   0.00000  Uiso   1.00
C662   C     0.15101   0.18697   0.71744   0.00000  Uiso   1.00
C663   C     0.13270   0.14651   0.78263   0.00000  Uiso   1.00
C664   C     0.20063   0.18682   0.71736   0.00000  Uiso   1.00
C665   C     0.30610   0.16652   0.83608   0.00000  Uiso   1.00
C666   C     0.02723   0.16726   0.66395   0.00000  Uiso   1.00
C667   C     0.29117   0.16578   0.88519   0.00000  Uiso   1.00
C668   C     0.04230   0.17158   0.61511   0.00000  Uiso   1.00
C669   C     0.30870   0.15373   0.95630   0.00000  Uiso   1.00
C670   C     0.02681   0.19435   0.54583   0.00000  Uiso   1.00
C671   C     0.32458   0.15695   0.90990   0.00000  Uiso   1.00
C672   C     0.00996   0.18603   0.59143   0.00000  Uiso   1.00
C673   C     0.24216   0.17261   0.90735   0.00000  Uiso   1.00
C674   C     0.09117   0.16467   0.59271   0.00000  Uiso   1.00
C675   C     0.22534   0.17065   0.95426   0.00000  Uiso   1.00
C676   C     0.10956   0.17441   0.54713   0.00000  Uiso   1.00
C677   C     0.25945   0.16011   0.97858   0.00000  Uiso   1.00
C678   C     0.07618   0.18866   0.52355   0.00000  Uiso   1.00
C679   C     0.17552   0.17756   0.97745   0.00000  Uiso   1.00
C680   C     0.15996   0.17043   0.52448   0.00000  Uiso   1.00
Cu681  Cu    0.04689   0.16667   0.75000   0.00000  Uiso   1.00
Cu682  Cu    0.28645   0.16666   0.75000   0.00000  Uiso   1.00
H683   H     0.26992   0.14784   0.54378   0.00000  Uiso   1.00
H684   H     0.06723   0.20889   0.95987   0.00000  Uiso   1.00
H685   H     0.11403   0.15151   0.61186   0.00000  Uiso   1.00
H686   H     0.21758   0.17823   0.88698   0.00000  Uiso   1.00
H687   H     0.30537   0.19185   0.60830   0.00000  Uiso   1.00
H688   H     0.02931   0.15142   0.89335   0.00000  Uiso   1.00
H689   H     0.00152   0.14561   0.97475   0.00000  Uiso   1.00
H690   H     0.00139   0.20603   0.52811   0.00000  Uiso   1.00
H691   H     0.18720   0.15721   0.58324   0.00000  Uiso   1.00
H692   H     0.15021   0.20045   0.92050   0.00000  Uiso   1.00
H693   H     0.25591   0.03985   0.76904   0.00000  Uiso   1.00
H694   H     0.07743   0.29348   0.73091   0.00000  Uiso   1.00
H695   H     0.19365   0.12987   0.80853   0.00000  Uiso   1.00
H696   H     0.13969   0.20345   0.69145   0.00000  Uiso   1.00
H697   H     0.10670   0.13036   0.80876   0.00000  Uiso   1.00
H698   H     0.22664   0.20297   0.69123   0.00000  Uiso   1.00
N699   N     0.11736   0.16668   0.74999   0.00000  Uiso   1.00
N700   N     0.21597   0.16666   0.75001   0.00000  Uiso   1.00
O701   O     0.03958   0.10655   0.75000   0.00000  Uiso   1.00
O702   O     0.29375   0.22678   0.75000   0.00000  Uiso   1.00
O703   O     0.29372   0.10654   0.75001   0.00000  Uiso   1.00
O704   O     0.03961   0.22679   0.75000   0.00000  Uiso   1.00
O705   O     0.01852   0.16668   0.81492   0.00000  Uiso   1.00
O706   O     0.31481   0.16666   0.68509   0.00000  Uiso   1.00
O707   O     0.27267   0.16667   0.81492   0.00000  Uiso   1.00
O708   O     0.06067   0.16667   0.68508   0.00000  Uiso   1.00
N709   N     0.24200   0.29431   0.77064   0.00000  Uiso   1.00
H710   H     0.21818   0.30605   0.79912   0.00000  Uiso   1.00
C711   C     0.22009   0.29297   0.73363   0.00000  Uiso   1.00
H712   H     0.21172   0.32451   0.72378   0.00000  Uiso   1.00
H713   H     0.18568   0.27561   0.74379   0.00000  Uiso   1.00
H714   H     0.24495   0.27740   0.70440   0.00000  Uiso   1.00
N715   N     0.09134   0.03902   0.72929   0.00000  Uiso   1.00
H716   H     0.11514   0.02729   0.70078   0.00000  Uiso   1.00
C717   C     0.11331   0.04034   0.76626   0.00000  Uiso   1.00
H718   H     0.12169   0.00879   0.77609   0.00000  Uiso   1.00
H719   H     0.08847   0.05588   0.79553   0.00000  Uiso   1.00
H720   H     0.14771   0.05769   0.75608   0.00000  Uiso   1.00
C721   C     0.33378   0.08736   0.75002   0.00000  Uiso   1.00
C722   C     0.66623   0.24597   0.74997   0.00000  Uiso   1.00
C723   C     0.52877   0.16052   0.54743   0.00000  Uiso   1.00
C724   C     0.47425   0.19195   0.95534   0.00000  Uiso   1.00
C725   C     0.57746   0.15566   0.52483   0.00000  Uiso   1.00
C726   C     0.42570   0.19755   0.97811   0.00000  Uiso   1.00
C727   C     0.62325   0.02262   0.76061   0.00000  Uiso   1.00
C728   C     0.37675   0.31071   0.73935   0.00000  Uiso   1.00
C729   C     0.62149   0.31348   0.75996   0.00000  Uiso   1.00
C730   C     0.37851   0.01985   0.74000   0.00000  Uiso   1.00
C731   C     0.66547   0.29059   0.74961   0.00000  Uiso   1.00
C732   C     0.33453   0.04274   0.75036   0.00000  Uiso   1.00
C733   C     0.51566   0.14636   0.78255   0.00000  Uiso   1.00
C734   C     0.48434   0.18697   0.71744   0.00000  Uiso   1.00
C735   C     0.46604   0.14651   0.78263   0.00000  Uiso   1.00
C736   C     0.53396   0.18682   0.71736   0.00000  Uiso   1.00
C737   C     0.63943   0.16652   0.83608   0.00000  Uiso   1.00
C738   C     0.36056   0.16726   0.66395   0.00000  Uiso   1.00
C739   C     0.62450   0.16578   0.88519   0.00000  Uiso   1.00
C740   C     0.37563   0.17158   0.61511   0.00000  Uiso   1.00
C741   C     0.64203   0.15373   0.95630   0.00000  Uiso   1.00
C742   C     0.36014   0.19435   0.54583   0.00000  Uiso   1.00
C743   C     0.65792   0.15695   0.90990   0.00000  Uiso   1.00
C744   C     0.34329   0.18603   0.59143   0.00000  Uiso   1.00
C745   C     0.57550   0.17261   0.90735   0.00000  Uiso   1.00
C746   C     0.42450   0.16467   0.59271   0.00000  Uiso   1.00
C747   C     0.55868   0.17065   0.95426   0.00000  Uiso   1.00
C748   C     0.44290   0.17441   0.54713   0.00000  Uiso   1.00
C749   C     0.59278   0.16011   0.97858   0.00000  Uiso   1.00
C750   C     0.40951   0.18866   0.52355   0.00000  Uiso   1.00
C751   C     0.50885   0.17756   0.97745   0.00000  Uiso   1.00
C752   C     0.49329   0.17043   0.52448   0.00000  Uiso   1.00
Cu753  Cu    0.38022   0.16667   0.75000   0.00000  Uiso   1.00
Cu754  Cu    0.61978   0.16666   0.75000   0.00000  Uiso   1.00
H755   H     0.60325   0.14784   0.54378   0.00000  Uiso   1.00
H756   H     0.40056   0.20889   0.95987   0.00000  Uiso   1.00
H757   H     0.44736   0.15151   0.61186   0.00000  Uiso   1.00
H758   H     0.55091   0.17823   0.88698   0.00000  Uiso   1.00
H759   H     0.63870   0.19185   0.60830   0.00000  Uiso   1.00
H760   H     0.36265   0.15142   0.89335   0.00000  Uiso   1.00
H761   H     0.33485   0.14561   0.97475   0.00000  Uiso   1.00
H762   H     0.33472   0.20603   0.52811   0.00000  Uiso   1.00
H763   H     0.52053   0.15721   0.58324   0.00000  Uiso   1.00
H764   H     0.48355   0.20045   0.92050   0.00000  Uiso   1.00
H765   H     0.58924   0.03985   0.76904   0.00000  Uiso   1.00
H766   H     0.41076   0.29348   0.73091   0.00000  Uiso   1.00
H767   H     0.52699   0.12987   0.80853   0.00000  Uiso   1.00
H768   H     0.47302   0.20345   0.69145   0.00000  Uiso   1.00
H769   H     0.44003   0.13036   0.80876   0.00000  Uiso   1.00
H770   H     0.55997   0.20297   0.69123   0.00000  Uiso   1.00
N771   N     0.45069   0.16668   0.74999   0.00000  Uiso   1.00
N772   N     0.54931   0.16666   0.75001   0.00000  Uiso   1.00
O773   O     0.37291   0.10655   0.75000   0.00000  Uiso   1.00
O774   O     0.62709   0.22678   0.75000   0.00000  Uiso   1.00
O775   O     0.62706   0.10654   0.75001   0.00000  Uiso   1.00
O776   O     0.37294   0.22679   0.75000   0.00000  Uiso   1.00
O777   O     0.35186   0.16668   0.81492   0.00000  Uiso   1.00
O778   O     0.64814   0.16666   0.68509   0.00000  Uiso   1.00
O779   O     0.60600   0.16667   0.81492   0.00000  Uiso   1.00
O780   O     0.39400   0.16667   0.68508   0.00000  Uiso   1.00
N781   N     0.57534   0.29431   0.77064   0.00000  Uiso   1.00
H782   H     0.55152   0.30605   0.79912   0.00000  Uiso   1.00
C783   C     0.55342   0.29297   0.73363   0.00000  Uiso   1.00
H784   H     0.54505   0.32451   0.72378   0.00000  Uiso   1.00
H785   H     0.51901   0.27561   0.74379   0.00000  Uiso   1.00
H786   H     0.57828   0.27740   0.70440   0.00000  Uiso   1.00
N787   N     0.42467   0.03902   0.72929   0.00000  Uiso   1.00
H788   H     0.44847   0.02729   0.70078   0.00000  Uiso   1.00
C789   C     0.44664   0.04034   0.76626   0.00000  Uiso   1.00
H790   H     0.45502   0.00879   0.77609   0.00000  Uiso   1.00
H791   H     0.42181   0.05588   0.79553   0.00000  Uiso   1.00
H792   H     0.48105   0.05769   0.75608   0.00000  Uiso   1.00
C793   C     0.66711   0.08736   0.75002   0.00000  Uiso   1.00
C794   C     0.99956   0.24597   0.74997   0.00000  Uiso   1.00
C795   C     0.86211   0.16052   0.54743   0.00000  Uiso   1.00
C796   C     0.80758   0.19195   0.95534   0.00000  Uiso   1.00
C797   C     0.91079   0.15566   0.52483   0.00000  Uiso   1.00
C798   C     0.75903   0.19755   0.97811   0.00000  Uiso   1.00
C799   C     0.95659   0.02262   0.76061   0.00000  Uiso   1.00
C800   C     0.71008   0.31071   0.73935   0.00000  Uiso   1.00
C801   C     0.95483   0.31348   0.75996   0.00000  Uiso   1.00
C802   C     0.71185   0.01985   0.74000   0.00000  Uiso   1.00
C803   C     0.99881   0.29059   0.74961   0.00000  Uiso   1.00
C804   C     0.66787   0.04274   0.75036   0.00000  Uiso   1.00
C805   C     0.84899   0.14636   0.78255   0.00000  Uiso   1.00
C806   C     0.81768   0.18697   0.71744   0.00000  Uiso   1.00
C807   C     0.79937   0.14651   0.78263   0.00000  Uiso   1.00
C808   C     0.86730   0.18682   0.71736   0.00000  Uiso   1.00
C809   C     0.97276   0.16652   0.83608   0.00000  Uiso   1.00
C810   C     0.69390   0.16726   0.66395   0.00000  Uiso   1.00
C811   C     0.95784   0.16578   0.88519   0.00000  Uiso   1.00
C812   C     0.70896   0.17158   0.61511   0.00000  Uiso   1.00
C813   C     0.97537   0.15373   0.95630   0.00000  Uiso   1.00
C814   C     0.69348   0.19435   0.54583   0.00000  Uiso   1.00
C815   C     0.99125   0.15695   0.90990   0.00000  Uiso   1.00
C816   C     0.67662   0.18603   0.59143   0.00000  Uiso   1.00
C817   C     0.90883   0.17261   0.90735   0.00000  Uiso   1.00
C818   C     0.75784   0.16467   0.59271   0.00000  Uiso   1.00
C819   C     0.89201   0.17065   0.95426   0.00000  Uiso   1.00
C820   C     0.77623   0.17441   0.54713   0.00000  Uiso   1.00
C821   C     0.92612   0.16011   0.97858   0.00000  Uiso   1.00
C822   C     0.74285   0.18866   0.52355   0.00000  Uiso   1.00
C823   C     0.84219   0.17756   0.97745   0.00000  Uiso   1.00
C824   C     0.82663   0.17043   0.52448   0.00000  Uiso   1.00
Cu825  Cu    0.71355   0.16667   0.75000   0.00000  Uiso   1.00
Cu826  Cu    0.95311   0.16666   0.75000   0.00000  Uiso   1.00
H827   H     0.93658   0.14784   0.54378   0.00000  Uiso   1.00
H828   H     0.73390   0.20889   0.95987   0.00000  Uiso   1.00
H829   H     0.78070   0.15151   0.61186   0.00000  Uiso   1.00
H830   H     0.88425   0.17823   0.88698   0.00000  Uiso   1.00
H831   H     0.97204   0.19185   0.60830   0.00000  Uiso   1.00
H832   H     0.69598   0.15142   0.89335   0.00000  Uiso   1.00
H833   H     0.66819   0.14561   0.97475   0.00000  Uiso   1.00
H834   H     0.66806   0.20603   0.52811   0.00000  Uiso   1.00
H835   H     0.85386   0.15721   0.58324   0.00000  Uiso   1.00
H836   H     0.81688   0.20045   0.92050   0.00000  Uiso   1.00
H837   H     0.92258   0.03985   0.76904   0.00000  Uiso   1.00
H838   H     0.74410   0.29348   0.73091   0.00000  Uiso   1.00
H839   H     0.86032   0.12987   0.80853   0.00000  Uiso   1.00
H840   H     0.80635   0.20345   0.69145   0.00000  Uiso   1.00
H841   H     0.77337   0.13036   0.80876   0.00000  Uiso   1.00
H842   H     0.89330   0.20297   0.69123   0.00000  Uiso   1.00
N843   N     0.78403   0.16668   0.74999   0.00000  Uiso   1.00
N844   N     0.88264   0.16666   0.75001   0.00000  Uiso   1.00
O845   O     0.70625   0.10655   0.75000   0.00000  Uiso   1.00
O846   O     0.96042   0.22678   0.75000   0.00000  Uiso   1.00
O847   O     0.96039   0.10654   0.75001   0.00000  Uiso   1.00
O848   O     0.70628   0.22679   0.75000   0.00000  Uiso   1.00
O849   O     0.68519   0.16668   0.81492   0.00000  Uiso   1.00
O850   O     0.98148   0.16666   0.68509   0.00000  Uiso   1.00
O851   O     0.93933   0.16667   0.81492   0.00000  Uiso   1.00
O852   O     0.72733   0.16667   0.68508   0.00000  Uiso   1.00
N853   N     0.90867   0.29431   0.77064   0.00000  Uiso   1.00
H854   H     0.88485   0.30605   0.79912   0.00000  Uiso   1.00
C855   C     0.88675   0.29297   0.73363   0.00000  Uiso   1.00
H856   H     0.87838   0.32451   0.72378   0.00000  Uiso   1.00
H857   H     0.85235   0.27561   0.74379   0.00000  Uiso   1.00
H858   H     0.91161   0.27740   0.70440   0.00000  Uiso   1.00
N859   N     0.75801   0.03902   0.72929   0.00000  Uiso   1.00
H860   H     0.78180   0.02729   0.70078   0.00000  Uiso   1.00
C861   C     0.77997   0.04034   0.76626   0.00000  Uiso   1.00
H862   H     0.78836   0.00879   0.77609   0.00000  Uiso   1.00
H863   H     0.75514   0.05588   0.79553   0.00000  Uiso   1.00
H864   H     0.81438   0.05769   0.75608   0.00000  Uiso   1.00
C865   C     0.00044   0.42070   0.75002   0.00000  Uiso   1.00
C866   C     0.33289   0.57930   0.74997   0.00000  Uiso   1.00
C867   C     0.19544   0.49386   0.54743   0.00000  Uiso   1.00
C868   C     0.14091   0.52528   0.95534   0.00000  Uiso   1.00
C869   C     0.24412   0.48900   0.52483   0.00000  Uiso   1.00
C870   C     0.09236   0.53088   0.97811   0.00000  Uiso   1.00
C871   C     0.28992   0.35595   0.76061   0.00000  Uiso   1.00
C872   C     0.04342   0.64404   0.73935   0.00000  Uiso   1.00
C873   C     0.28816   0.64681   0.75996   0.00000  Uiso   1.00
C874   C     0.04518   0.35319   0.74000   0.00000  Uiso   1.00
C875   C     0.33214   0.62393   0.74961   0.00000  Uiso   1.00
C876   C     0.00120   0.37607   0.75036   0.00000  Uiso   1.00
C877   C     0.18233   0.47969   0.78255   0.00000  Uiso   1.00
C878   C     0.15101   0.52030   0.71744   0.00000  Uiso   1.00
C879   C     0.13270   0.47985   0.78263   0.00000  Uiso   1.00
C880   C     0.20063   0.52015   0.71736   0.00000  Uiso   1.00
C881   C     0.30610   0.49986   0.83608   0.00000  Uiso   1.00
C882   C     0.02723   0.50059   0.66395   0.00000  Uiso   1.00
C883   C     0.29117   0.49911   0.88519   0.00000  Uiso   1.00
C884   C     0.04230   0.50492   0.61511   0.00000  Uiso   1.00
C885   C     0.30870   0.48706   0.95630   0.00000  Uiso   1.00
C886   C     0.02681   0.52768   0.54583   0.00000  Uiso   1.00
C887   C     0.32458   0.49028   0.90990   0.00000  Uiso   1.00
C888   C     0.00996   0.51936   0.59143   0.00000  Uiso   1.00
C889   C     0.24216   0.50595   0.90735   0.00000  Uiso   1.00
C890   C     0.09117   0.49800   0.59271   0.00000  Uiso   1.00
C891   C     0.22534   0.50399   0.95426   0.00000  Uiso   1.00
C892   C     0.10956   0.50774   0.54713   0.00000  Uiso   1.00
C893   C     0.25945   0.49344   0.97858   0.00000  Uiso   1.00
C894   C     0.07618   0.52199   0.52355   0.00000  Uiso   1.00
C895   C     0.17552   0.51089   0.97745   0.00000  Uiso   1.00
C896   C     0.15996   0.50377   0.52448   0.00000  Uiso   1.00
Cu897  Cu    0.04689   0.50001   0.75000   0.00000  Uiso   1.00
Cu898  Cu    0.28645   0.49999   0.75000   0.00000  Uiso   1.00
H899   H     0.26992   0.48117   0.54378   0.00000  Uiso   1.00
H900   H     0.06723   0.54222   0.95987   0.00000  Uiso   1.00
H901   H     0.11403   0.48484   0.61186   0.00000  Uiso   1.00
H902   H     0.21758   0.51156   0.88698   0.00000  Uiso   1.00
H903   H     0.30537   0.52519   0.60830   0.00000  Uiso   1.00
H904   H     0.02931   0.48475   0.89335   0.00000  Uiso   1.00
H905   H     0.00152   0.47894   0.97475   0.00000  Uiso   1.00
H906   H     0.00139   0.53936   0.52811   0.00000  Uiso   1.00
H907   H     0.18720   0.49054   0.58324   0.00000  Uiso   1.00
H908   H     0.15021   0.53379   0.92050   0.00000  Uiso   1.00
H909   H     0.25591   0.37318   0.76904   0.00000  Uiso   1.00
H910   H     0.07743   0.62681   0.73091   0.00000  Uiso   1.00
H911   H     0.19365   0.46320   0.80853   0.00000  Uiso   1.00
H912   H     0.13969   0.53678   0.69145   0.00000  Uiso   1.00
H913   H     0.10670   0.46369   0.80876   0.00000  Uiso   1.00
H914   H     0.22664   0.53630   0.69123   0.00000  Uiso   1.00
N915   N     0.11736   0.50001   0.74999   0.00000  Uiso   1.00
N916   N     0.21597   0.49999   0.75001   0.00000  Uiso   1.00
O917   O     0.03958   0.43989   0.75000   0.00000  Uiso   1.00
O918   O     0.29375   0.56011   0.75000   0.00000  Uiso   1.00
O919   O     0.29372   0.43988   0.75001   0.00000  Uiso   1.00
O920   O     0.03961   0.56012   0.75000   0.00000  Uiso   1.00
O921   O     0.01852   0.50001   0.81492   0.00000  Uiso   1.00
O922   O     0.31481   0.49999   0.68509   0.00000  Uiso   1.00
O923   O     0.27267   0.50000   0.81492   0.00000  Uiso   1.00
O924   O     0.06067   0.50000   0.68508   0.00000  Uiso   1.00
N925   N     0.24200   0.62764   0.77064   0.00000  Uiso   1.00
H926   H     0.21818   0.63938   0.79912   0.00000  Uiso   1.00
C927   C     0.22009   0.62630   0.73363   0.00000  Uiso   1.00
H928   H     0.21172   0.65784   0.72378   0.00000  Uiso   1.00
H929   H     0.18568   0.60895   0.74379   0.00000  Uiso   1.00
H930   H     0.24495   0.61074   0.70440   0.00000  Uiso   1.00
N931   N     0.09134   0.37235   0.72929   0.00000  Uiso   1.00
H932   H     0.11514   0.36062   0.70078   0.00000  Uiso   1.00
C933   C     0.11331   0.37367   0.76626   0.00000  Uiso   1.00
H934   H     0.12169   0.34212   0.77609   0.00000  Uiso   1.00
H935   H     0.08847   0.38922   0.79553   0.00000  Uiso   1.00
H936   H     0.14771   0.39102   0.75608   0.00000  Uiso   1.00
C937   C     0.33378   0.42070   0.75002   0.00000  Uiso   1.00
C938   C     0.66623   0.57930   0.74997   0.00000  Uiso   1.00
C939   C     0.52877   0.49386   0.54743   0.00000  Uiso   1.00
C940   C     0.47425   0.52528   0.95534   0.00000  Uiso   1.00
C941   C     0.57746   0.48900   0.52483   0.00000  Uiso   1.00
C942   C     0.42570   0.53088   0.97811   0.00000  Uiso   1.00
C943   C     0.62325   0.35595   0.76061   0.00000  Uiso   1.00
C944   C     0.37675   0.64404   0.73935   0.00000  Uiso   1.00
C945   C     0.62149   0.64681   0.75996   0.00000  Uiso   1.00
C946   C     0.37851   0.35319   0.74000   0.00000  Uiso   1.00
C947   C     0.66547   0.62393   0.74961   0.00000  Uiso   1.00
C948   C     0.33453   0.37607   0.75036   0.00000  Uiso   1.00
C949   C     0.51566   0.47969   0.78255   0.00000  Uiso   1.00
C950   C     0.48434   0.52030   0.71744   0.00000  Uiso   1.00
C951   C     0.46604   0.47985   0.78263   0.00000  Uiso   1.00
C952   C     0.53396   0.52015   0.71736   0.00000  Uiso   1.00
C953   C     0.63943   0.49986   0.83608   0.00000  Uiso   1.00
C954   C     0.36056   0.50059   0.66395   0.00000  Uiso   1.00
C955   C     0.62450   0.49911   0.88519   0.00000  Uiso   1.00
C956   C     0.37563   0.50492   0.61511   0.00000  Uiso   1.00
C957   C     0.64203   0.48706   0.95630   0.00000  Uiso   1.00
C958   C     0.36014   0.52768   0.54583   0.00000  Uiso   1.00
C959   C     0.65792   0.49028   0.90990   0.00000  Uiso   1.00
C960   C     0.34329   0.51936   0.59143   0.00000  Uiso   1.00
C961   C     0.57550   0.50595   0.90735   0.00000  Uiso   1.00
C962   C     0.42450   0.49800   0.59271   0.00000  Uiso   1.00
C963   C     0.55868   0.50399   0.95426   0.00000  Uiso   1.00
C964   C     0.44290   0.50774   0.54713   0.00000  Uiso   1.00
C965   C     0.59278   0.49344   0.97858   0.00000  Uiso   1.00
C966   C     0.40951   0.52199   0.52355   0.00000  Uiso   1.00
C967   C     0.50885   0.51089   0.97745   0.00000  Uiso   1.00
C968   C     0.49329   0.50377   0.52448   0.00000  Uiso   1.00
Cu969  Cu    0.38022   0.50001   0.75000   0.00000  Uiso   1.00
Cu970  Cu    0.61978   0.49999   0.75000   0.00000  Uiso   1.00
H971   H     0.60325   0.48117   0.54378   0.00000  Uiso   1.00
H972   H     0.40056   0.54222   0.95987   0.00000  Uiso   1.00
H973   H     0.44736   0.48484   0.61186   0.00000  Uiso   1.00
H974   H     0.55091   0.51156   0.88698   0.00000  Uiso   1.00
H975   H     0.63870   0.52519   0.60830   0.00000  Uiso   1.00
H976   H     0.36265   0.48475   0.89335   0.00000  Uiso   1.00
H977   H     0.33485   0.47894   0.97475   0.00000  Uiso   1.00
H978   H     0.33472   0.53936   0.52811   0.00000  Uiso   1.00
H979   H     0.52053   0.49054   0.58324   0.00000  Uiso   1.00
H980   H     0.48355   0.53379   0.92050   0.00000  Uiso   1.00
H981   H     0.58924   0.37318   0.76904   0.00000  Uiso   1.00
H982   H     0.41076   0.62681   0.73091   0.00000  Uiso   1.00
H983   H     0.52699   0.46320   0.80853   0.00000  Uiso   1.00
H984   H     0.47302   0.53678   0.69145   0.00000  Uiso   1.00
H985   H     0.44003   0.46369   0.80876   0.00000  Uiso   1.00
H986   H     0.55997   0.53630   0.69123   0.00000  Uiso   1.00
N987   N     0.45069   0.50001   0.74999   0.00000  Uiso   1.00
N988   N     0.54931   0.49999   0.75001   0.00000  Uiso   1.00
O989   O     0.37291   0.43989   0.75000   0.00000  Uiso   1.00
O990   O     0.62709   0.56011   0.75000   0.00000  Uiso   1.00
O991   O     0.62706   0.43988   0.75001   0.00000  Uiso   1.00
O992   O     0.37294   0.56012   0.75000   0.00000  Uiso   1.00
O993   O     0.35186   0.50001   0.81492   0.00000  Uiso   1.00
O994   O     0.64814   0.49999   0.68509   0.00000  Uiso   1.00
O995   O     0.60600   0.50000   0.81492   0.00000  Uiso   1.00
O996   O     0.39400   0.50000   0.68508   0.00000  Uiso   1.00
N997   N     0.57534   0.62764   0.77064   0.00000  Uiso   1.00
H998   H     0.55152   0.63938   0.79912   0.00000  Uiso   1.00
C999   C     0.55342   0.62630   0.73363   0.00000  Uiso   1.00
H1000  H     0.54505   0.65784   0.72378   0.00000  Uiso   1.00
H1001  H     0.51901   0.60895   0.74379   0.00000  Uiso   1.00
H1002  H     0.57828   0.61074   0.70440   0.00000  Uiso   1.00
N1003  N     0.42467   0.37235   0.72929   0.00000  Uiso   1.00
H1004  H     0.44847   0.36062   0.70078   0.00000  Uiso   1.00
C1005  C     0.44664   0.37367   0.76626   0.00000  Uiso   1.00
H1006  H     0.45502   0.34212   0.77609   0.00000  Uiso   1.00
H1007  H     0.42181   0.38922   0.79553   0.00000  Uiso   1.00
H1008  H     0.48105   0.39102   0.75608   0.00000  Uiso   1.00
C1009  C     0.66711   0.42070   0.75002   0.00000  Uiso   1.00
C1010  C     0.99956   0.57930   0.74997   0.00000  Uiso   1.00
C1011  C     0.86211   0.49386   0.54743   0.00000  Uiso   1.00
C1012  C     0.80758   0.52528   0.95534   0.00000  Uiso   1.00
C1013  C     0.91079   0.48900   0.52483   0.00000  Uiso   1.00
C1014  C     0.75903   0.53088   0.97811   0.00000  Uiso   1.00
C1015  C     0.95659   0.35595   0.76061   0.00000  Uiso   1.00
C1016  C     0.71008   0.64404   0.73935   0.00000  Uiso   1.00
C1017  C     0.95483   0.64681   0.75996   0.00000  Uiso   1.00
C1018  C     0.71185   0.35319   0.74000   0.00000  Uiso   1.00
C1019  C     0.99881   0.62393   0.74961   0.00000  Uiso   1.00
C1020  C     0.66787   0.37607   0.75036   0.00000  Uiso   1.00
C1021  C     0.84899   0.47969   0.78255   0.00000  Uiso   1.00
C1022  C     0.81768   0.52030   0.71744   0.00000  Uiso   1.00
C1023  C     0.79937   0.47985   0.78263   0.00000  Uiso   1.00
C1024  C     0.86730   0.52015   0.71736   0.00000  Uiso   1.00
C1025  C     0.97276   0.49986   0.83608   0.00000  Uiso   1.00
C1026  C     0.69390   0.50059   0.66395   0.00000  Uiso   1.00
C1027  C     0.95784   0.49911   0.88519   0.00000  Uiso   1.00
C1028  C     0.70896   0.50492   0.61511   0.00000  Uiso   1.00
C1029  C     0.97537   0.48706   0.95630   0.00000  Uiso   1.00
C1030  C     0.69348   0.52768   0.54583   0.00000  Uiso   1.00
C1031  C     0.99125   0.49028   0.90990   0.00000  Uiso   1.00
C1032  C     0.67662   0.51936   0.59143   0.00000  Uiso   1.00
C1033  C     0.90883   0.50595   0.90735   0.00000  Uiso   1.00
C1034  C     0.75784   0.49800   0.59271   0.00000  Uiso   1.00
C1035  C     0.89201   0.50399   0.95426   0.00000  Uiso   1.00
C1036  C     0.77623   0.50774   0.54713   0.00000  Uiso   1.00
C1037  C     0.92612   0.49344   0.97858   0.00000  Uiso   1.00
C1038  C     0.74285   0.52199   0.52355   0.00000  Uiso   1.00
C1039  C     0.84219   0.51089   0.97745   0.00000  Uiso   1.00
C1040  C     0.82663   0.50377   0.52448   0.00000  Uiso   1.00
Cu1041 Cu    0.71355   0.50001   0.75000   0.00000  Uiso   1.00
Cu1042 Cu    0.95311   0.49999   0.75000   0.00000  Uiso   1.00
H1043  H     0.93658   0.48117   0.54378   0.00000  Uiso   1.00
H1044  H     0.73390   0.54222   0.95987   0.00000  Uiso   1.00
H1045  H     0.78070   0.48484   0.61186   0.00000  Uiso   1.00
H1046  H     0.88425   0.51156   0.88698   0.00000  Uiso   1.00
H1047  H     0.97204   0.52519   0.60830   0.00000  Uiso   1.00
H1048  H     0.69598   0.48475   0.89335   0.00000  Uiso   1.00
H1049  H     0.66819   0.47894   0.97475   0.00000  Uiso   1.00
H1050  H     0.66806   0.53936   0.52811   0.00000  Uiso   1.00
H1051  H     0.85386   0.49054   0.58324   0.00000  Uiso   1.00
H1052  H     0.81688   0.53379   0.92050   0.00000  Uiso   1.00
H1053  H     0.92258   0.37318   0.76904   0.00000  Uiso   1.00
H1054  H     0.74410   0.62681   0.73091   0.00000  Uiso   1.00
H1055  H     0.86032   0.46320   0.80853   0.00000  Uiso   1.00
H1056  H     0.80635   0.53678   0.69145   0.00000  Uiso   1.00
H1057  H     0.77337   0.46369   0.80876   0.00000  Uiso   1.00
H1058  H     0.89330   0.53630   0.69123   0.00000  Uiso   1.00
N1059  N     0.78403   0.50001   0.74999   0.00000  Uiso   1.00
N1060  N     0.88264   0.49999   0.75001   0.00000  Uiso   1.00
O1061  O     0.70625   0.43989   0.75000   0.00000  Uiso   1.00
O1062  O     0.96042   0.56011   0.75000   0.00000  Uiso   1.00
O1063  O     0.96039   0.43988   0.75001   0.00000  Uiso   1.00
O1064  O     0.70628   0.56012   0.75000   0.00000  Uiso   1.00
O1065  O     0.68519   0.50001   0.81492   0.00000  Uiso   1.00
O1066  O     0.98148   0.49999   0.68509   0.00000  Uiso   1.00
O1067  O     0.93933   0.50000   0.81492   0.00000  Uiso   1.00
O1068  O     0.72733   0.50000   0.68508   0.00000  Uiso   1.00
N1069  N     0.90867   0.62764   0.77064   0.00000  Uiso   1.00
H1070  H     0.88485   0.63938   0.79912   0.00000  Uiso   1.00
C1071  C     0.88675   0.62630   0.73363   0.00000  Uiso   1.00
H1072  H     0.87838   0.65784   0.72378   0.00000  Uiso   1.00
H1073  H     0.85235   0.60895   0.74379   0.00000  Uiso   1.00
H1074  H     0.91161   0.61074   0.70440   0.00000  Uiso   1.00
N1075  N     0.75801   0.37235   0.72929   0.00000  Uiso   1.00
H1076  H     0.78180   0.36062   0.70078   0.00000  Uiso   1.00
C1077  C     0.77997   0.37367   0.76626   0.00000  Uiso   1.00
H1078  H     0.78836   0.34212   0.77609   0.00000  Uiso   1.00
H1079  H     0.75514   0.38922   0.79553   0.00000  Uiso   1.00
H1080  H     0.81438   0.39102   0.75608   0.00000  Uiso   1.00
C1081  C     0.00044   0.75403   0.75002   0.00000  Uiso   1.00
C1082  C     0.33289   0.91264   0.74997   0.00000  Uiso   1.00
C1083  C     0.19544   0.82719   0.54743   0.00000  Uiso   1.00
C1084  C     0.14091   0.85862   0.95534   0.00000  Uiso   1.00
C1085  C     0.24412   0.82233   0.52483   0.00000  Uiso   1.00
C1086  C     0.09236   0.86421   0.97811   0.00000  Uiso   1.00
C1087  C     0.28992   0.68929   0.76061   0.00000  Uiso   1.00
C1088  C     0.04342   0.97738   0.73935   0.00000  Uiso   1.00
C1089  C     0.28816   0.98014   0.75996   0.00000  Uiso   1.00
C1090  C     0.04518   0.68652   0.74000   0.00000  Uiso   1.00
C1091  C     0.33214   0.95726   0.74961   0.00000  Uiso   1.00
C1092  C     0.00120   0.70941   0.75036   0.00000  Uiso   1.00
C1093  C     0.18233   0.81303   0.78255   0.00000  Uiso   1.00
C1094  C     0.15101   0.85363   0.71744   0.00000  Uiso   1.00
C1095  C     0.13270   0.81318   0.78263   0.00000  Uiso   1.00
C1096  C     0.20063   0.85348   0.71736   0.00000  Uiso   1.00
C1097  C     0.30610   0.83319   0.83608   0.00000  Uiso   1.00
C1098  C     0.02723   0.83393   0.66395   0.00000  Uiso   1.00
C1099  C     0.29117   0.83244   0.88519   0.00000  Uiso   1.00
C1100  C     0.04230   0.83825   0.61511   0.00000  Uiso   1.00
C1101  C     0.30870   0.82040   0.95630   0.00000  Uiso   1.00
C1102  C     0.02681   0.86102   0.54583   0.00000  Uiso   1.00
C1103  C     0.32458   0.82362   0.90990   0.00000  Uiso   1.00
C1104  C     0.00996   0.85269   0.59143   0.00000  Uiso   1.00
C1105  C     0.24216   0.83928   0.90735   0.00000  Uiso   1.00
C1106  C     0.09117   0.83133   0.59271   0.00000  Uiso   1.00
C1107  C     0.22534   0.83732   0.95426   0.00000  Uiso   1.00
C1108  C     0.10956   0.84107   0.54713   0.00000  Uiso   1.00
C1109  C     0.25945   0.82678   0.97858   0.00000  Uiso   1.00
C1110  C     0.07618   0.85533   0.52355   0.00000  Uiso   1.00
C1111  C     0.17552   0.84423   0.97745   0.00000  Uiso   1.00
C1112  C     0.15996   0.83710   0.52448   0.00000  Uiso   1.00
Cu1113 Cu    0.04689   0.83334   0.75000   0.00000  Uiso   1.00
Cu1114 Cu    0.28645   0.83333   0.75000   0.00000  Uiso   1.00
H1115  H     0.26992   0.81450   0.54378   0.00000  Uiso   1.00
H1116  H     0.06723   0.87556   0.95987   0.00000  Uiso   1.00
H1117  H     0.11403   0.81817   0.61186   0.00000  Uiso   1.00
H1118  H     0.21758   0.84489   0.88698   0.00000  Uiso   1.00
H1119  H     0.30537   0.85852   0.60830   0.00000  Uiso   1.00
H1120  H     0.02931   0.81809   0.89335   0.00000  Uiso   1.00
H1121  H     0.00152   0.81228   0.97475   0.00000  Uiso   1.00
H1122  H     0.00139   0.87269   0.52811   0.00000  Uiso   1.00
H1123  H     0.18720   0.82387   0.58324   0.00000  Uiso   1.00
H1124  H     0.15021   0.86712   0.92050   0.00000  Uiso   1.00
H1125  H     0.25591   0.70651   0.76904   0.00000  Uiso   1.00
H1126  H     0.07743   0.96015   0.73091   0.00000  Uiso   1.00
H1127  H     0.19365   0.79653   0.80853   0.00000  Uiso   1.00
H1128  H     0.13969   0.87012   0.69145   0.00000  Uiso   1.00
H1129  H     0.10670   0.79702   0.80876   0.00000  Uiso   1.00
H1130  H     0.22664   0.86964   0.69123   0.00000  Uiso   1.00
N1131  N     0.11736   0.83334   0.74999   0.00000  Uiso   1.00
N1132  N     0.21597   0.83332   0.75001   0.00000  Uiso   1.00
O1133  O     0.03958   0.77322   0.75000   0.00000  Uiso   1.00
O1134  O     0.29375   0.89345   0.75000   0.00000  Uiso   1.00
O1135  O     0.29372   0.77321   0.75001   0.00000  Uiso   1.00
O1136  O     0.03961   0.89346   0.75000   0.00000  Uiso   1.00
O1137  O     0.01852   0.83334   0.81492   0.00000  Uiso   1.00
O1138  O     0.31481   0.83332   0.68509   0.00000  Uiso   1.00
O1139  O     0.27267   0.83333   0.81492   0.00000  Uiso   1.00
O1140  O     0.06067   0.83333   0.68508   0.00000  Uiso   1.00
N1141  N     0.24200   0.96097   0.77064   0.00000  Uiso   1.00
H1142  H     0.21818   0.97272   0.79912   0.00000  Uiso   1.00
C1143  C     0.22009   0.95963   0.73363   0.00000  Uiso   1.00
H1144  H     0.21172   0.99117   0.72378   0.00000  Uiso   1.00
H1145  H     0.18568   0.94228   0.74379   0.00000  Uiso   1.00
H1146  H     0.24495   0.94407   0.70440   0.00000  Uiso   1.00
N1147  N     0.09134   0.70569   0.72929   0.00000  Uiso   1.00
H1148  H     0.11514   0.69395   0.70078   0.00000  Uiso   1.00
C1149  C     0.11331   0.70700   0.76626   0.00000  Uiso   1.00
H1150  H     0.12169   0.67546   0.77609   0.00000  Uiso   1.00
H1151  H     0.08847   0.72255   0.79553   0.00000  Uiso   1.00
H1152  H     0.14771   0.72435   0.75608   0.00000  Uiso   1.00
C1153  C     0.33378   0.75403   0.75002   0.00000  Uiso   1.00
C1154  C     0.66623   0.91264   0.74997   0.00000  Uiso   1.00
C1155  C     0.52877   0.82719   0.54743   0.00000  Uiso   1.00
C1156  C     0.47425   0.85862   0.95534   0.00000  Uiso   1.00
C1157  C     0.57746   0.82233   0.52483   0.00000  Uiso   1.00
C1158  C     0.42570   0.86421   0.97811   0.00000  Uiso   1.00
C1159  C     0.62325   0.68929   0.76061   0.00000  Uiso   1.00
C1160  C     0.37675   0.97738   0.73935   0.00000  Uiso   1.00
C1161  C     0.62149   0.98014   0.75996   0.00000  Uiso   1.00
C1162  C     0.37851   0.68652   0.74000   0.00000  Uiso   1.00
C1163  C     0.66547   0.95726   0.74961   0.00000  Uiso   1.00
C1164  C     0.33453   0.70941   0.75036   0.00000  Uiso   1.00
C1165  C     0.51566   0.81303   0.78255   0.00000  Uiso   1.00
C1166  C     0.48434   0.85363   0.71744   0.00000  Uiso   1.00
C1167  C     0.46604   0.81318   0.78263   0.00000  Uiso   1.00
C1168  C     0.53396   0.85348   0.71736   0.00000  Uiso   1.00
C1169  C     0.63943   0.83319   0.83608   0.00000  Uiso   1.00
C1170  C     0.36056   0.83393   0.66395   0.00000  Uiso   1.00
C1171  C     0.62450   0.83244   0.88519   0.00000  Uiso   1.00
C1172  C     0.37563   0.83825   0.61511   0.00000  Uiso   1.00
C1173  C     0.64203   0.82040   0.95630   0.00000  Uiso   1.00
C1174  C     0.36014   0.86102   0.54583   0.00000  Uiso   1.00
C1175  C     0.65792   0.82362   0.90990   0.00000  Uiso   1.00
C1176  C     0.34329   0.85269   0.59143   0.00000  Uiso   1.00
C1177  C     0.57550   0.83928   0.90735   0.00000  Uiso   1.00
C1178  C     0.42450   0.83133   0.59271   0.00000  Uiso   1.00
C1179  C     0.55868   0.83732   0.95426   0.00000  Uiso   1.00
C1180  C     0.44290   0.84107   0.54713   0.00000  Uiso   1.00
C1181  C     0.59278   0.82678   0.97858   0.00000  Uiso   1.00
C1182  C     0.40951   0.85533   0.52355   0.00000  Uiso   1.00
C1183  C     0.50885   0.84423   0.97745   0.00000  Uiso   1.00
C1184  C     0.49329   0.83710   0.52448   0.00000  Uiso   1.00
Cu1185 Cu    0.38022   0.83334   0.75000   0.00000  Uiso   1.00
Cu1186 Cu    0.61978   0.83333   0.75000   0.00000  Uiso   1.00
H1187  H     0.60325   0.81450   0.54378   0.00000  Uiso   1.00
H1188  H     0.40056   0.87556   0.95987   0.00000  Uiso   1.00
H1189  H     0.44736   0.81817   0.61186   0.00000  Uiso   1.00
H1190  H     0.55091   0.84489   0.88698   0.00000  Uiso   1.00
H1191  H     0.63870   0.85852   0.60830   0.00000  Uiso   1.00
H1192  H     0.36265   0.81809   0.89335   0.00000  Uiso   1.00
H1193  H     0.33485   0.81228   0.97475   0.00000  Uiso   1.00
H1194  H     0.33472   0.87269   0.52811   0.00000  Uiso   1.00
H1195  H     0.52053   0.82387   0.58324   0.00000  Uiso   1.00
H1196  H     0.48355   0.86712   0.92050   0.00000  Uiso   1.00
H1197  H     0.58924   0.70651   0.76904   0.00000  Uiso   1.00
H1198  H     0.41076   0.96015   0.73091   0.00000  Uiso   1.00
H1199  H     0.52699   0.79653   0.80853   0.00000  Uiso   1.00
H1200  H     0.47302   0.87012   0.69145   0.00000  Uiso   1.00
H1201  H     0.44003   0.79702   0.80876   0.00000  Uiso   1.00
H1202  H     0.55997   0.86964   0.69123   0.00000  Uiso   1.00
N1203  N     0.45069   0.83334   0.74999   0.00000  Uiso   1.00
N1204  N     0.54931   0.83332   0.75001   0.00000  Uiso   1.00
O1205  O     0.37291   0.77322   0.75000   0.00000  Uiso   1.00
O1206  O     0.62709   0.89345   0.75000   0.00000  Uiso   1.00
O1207  O     0.62706   0.77321   0.75001   0.00000  Uiso   1.00
O1208  O     0.37294   0.89346   0.75000   0.00000  Uiso   1.00
O1209  O     0.35186   0.83334   0.81492   0.00000  Uiso   1.00
O1210  O     0.64814   0.83332   0.68509   0.00000  Uiso   1.00
O1211  O     0.60600   0.83333   0.81492   0.00000  Uiso   1.00
O1212  O     0.39400   0.83333   0.68508   0.00000  Uiso   1.00
N1213  N     0.57534   0.96097   0.77064   0.00000  Uiso   1.00
H1214  H     0.55152   0.97272   0.79912   0.00000  Uiso   1.00
C1215  C     0.55342   0.95963   0.73363   0.00000  Uiso   1.00
H1216  H     0.54505   0.99117   0.72378   0.00000  Uiso   1.00
H1217  H     0.51901   0.94228   0.74379   0.00000  Uiso   1.00
H1218  H     0.57828   0.94407   0.70440   0.00000  Uiso   1.00
N1219  N     0.42467   0.70569   0.72929   0.00000  Uiso   1.00
H1220  H     0.44847   0.69395   0.70078   0.00000  Uiso   1.00
C1221  C     0.44664   0.70700   0.76626   0.00000  Uiso   1.00
H1222  H     0.45502   0.67546   0.77609   0.00000  Uiso   1.00
H1223  H     0.42181   0.72255   0.79553   0.00000  Uiso   1.00
H1224  H     0.48105   0.72435   0.75608   0.00000  Uiso   1.00
C1225  C     0.66711   0.75403   0.75002   0.00000  Uiso   1.00
C1226  C     0.99956   0.91264   0.74997   0.00000  Uiso   1.00
C1227  C     0.86211   0.82719   0.54743   0.00000  Uiso   1.00
C1228  C     0.80758   0.85862   0.95534   0.00000  Uiso   1.00
C1229  C     0.91079   0.82233   0.52483   0.00000  Uiso   1.00
C1230  C     0.75903   0.86421   0.97811   0.00000  Uiso   1.00
C1231  C     0.95659   0.68929   0.76061   0.00000  Uiso   1.00
C1232  C     0.71008   0.97738   0.73935   0.00000  Uiso   1.00
C1233  C     0.95483   0.98014   0.75996   0.00000  Uiso   1.00
C1234  C     0.71185   0.68652   0.74000   0.00000  Uiso   1.00
C1235  C     0.99881   0.95726   0.74961   0.00000  Uiso   1.00
C1236  C     0.66787   0.70941   0.75036   0.00000  Uiso   1.00
C1237  C     0.84899   0.81303   0.78255   0.00000  Uiso   1.00
C1238  C     0.81768   0.85363   0.71744   0.00000  Uiso   1.00
C1239  C     0.79937   0.81318   0.78263   0.00000  Uiso   1.00
C1240  C     0.86730   0.85348   0.71736   0.00000  Uiso   1.00
C1241  C     0.97276   0.83319   0.83608   0.00000  Uiso   1.00
C1242  C     0.69390   0.83393   0.66395   0.00000  Uiso   1.00
C1243  C     0.95784   0.83244   0.88519   0.00000  Uiso   1.00
C1244  C     0.70896   0.83825   0.61511   0.00000  Uiso   1.00
C1245  C     0.97537   0.82040   0.95630   0.00000  Uiso   1.00
C1246  C     0.69348   0.86102   0.54583   0.00000  Uiso   1.00
C1247  C     0.99125   0.82362   0.90990   0.00000  Uiso   1.00
C1248  C     0.67662   0.85269   0.59143   0.00000  Uiso   1.00
C1249  C     0.90883   0.83928   0.90735   0.00000  Uiso   1.00
C1250  C     0.75784   0.83133   0.59271   0.00000  Uiso   1.00
C1251  C     0.89201   0.83732   0.95426   0.00000  Uiso   1.00
C1252  C     0.77623   0.84107   0.54713   0.00000  Uiso   1.00
C1253  C     0.92612   0.82678   0.97858   0.00000  Uiso   1.00
C1254  C     0.74285   0.85533   0.52355   0.00000  Uiso   1.00
C1255  C     0.84219   0.84423   0.97745   0.00000  Uiso   1.00
C1256  C     0.82663   0.83710   0.52448   0.00000  Uiso   1.00
Cu1257 Cu    0.71355   0.83334   0.75000   0.00000  Uiso   1.00
Cu1258 Cu    0.95311   0.83333   0.75000   0.00000  Uiso   1.00
H1259  H     0.93658   0.81450   0.54378   0.00000  Uiso   1.00
H1260  H     0.73390   0.87556   0.95987   0.00000  Uiso   1.00
H1261  H     0.78070   0.81817   0.61186   0.00000  Uiso   1.00
H1262  H     0.88425   0.84489   0.88698   0.00000  Uiso   1.00
H1263  H     0.97204   0.85852   0.60830   0.00000  Uiso   1.00
H1264  H     0.69598   0.81809   0.89335   0.00000  Uiso   1.00
H1265  H     0.66819   0.81228   0.97475   0.00000  Uiso   1.00
H1266  H     0.66806   0.87269   0.52811   0.00000  Uiso   1.00
H1267  H     0.85386   0.82387   0.58324   0.00000  Uiso   1.00
H1268  H     0.81688   0.86712   0.92050   0.00000  Uiso   1.00
H1269  H     0.92258   0.70651   0.76904   0.00000  Uiso   1.00
H1270  H     0.74410   0.96015   0.73091   0.00000  Uiso   1.00
H1271  H     0.86032   0.79653   0.80853   0.00000  Uiso   1.00
H1272  H     0.80635   0.87012   0.69145   0.00000  Uiso   1.00
H1273  H     0.77337   0.79702   0.80876   0.00000  Uiso   1.00
H1274  H     0.89330   0.86964   0.69123   0.00000  Uiso   1.00
N1275  N     0.78403   0.83334   0.74999   0.00000  Uiso   1.00
N1276  N     0.88264   0.83332   0.75001   0.00000  Uiso   1.00
O1277  O     0.70625   0.77322   0.75000   0.00000  Uiso   1.00
O1278  O     0.96042   0.89345   0.75000   0.00000  Uiso   1.00
O1279  O     0.96039   0.77321   0.75001   0.00000  Uiso   1.00
O1280  O     0.70628   0.89346   0.75000   0.00000  Uiso   1.00
O1281  O     0.68519   0.83334   0.81492   0.00000  Uiso   1.00
O1282  O     0.98148   0.83332   0.68509   0.00000  Uiso   1.00
O1283  O     0.93933   0.83333   0.81492   0.00000  Uiso   1.00
O1284  O     0.72733   0.83333   0.68508   0.00000  Uiso   1.00
N1285  N     0.90867   0.96097   0.77064   0.00000  Uiso   1.00
H1286  H     0.88485   0.97272   0.79912   0.00000  Uiso   1.00
C1287  C     0.88675   0.95963   0.73363   0.00000  Uiso   1.00
H1288  H     0.87838   0.99117   0.72378   0.00000  Uiso   1.00
H1289  H     0.85235   0.94228   0.74379   0.00000  Uiso   1.00
H1290  H     0.91161   0.94407   0.70440   0.00000  Uiso   1.00
N1291  N     0.75801   0.70569   0.72929   0.00000  Uiso   1.00
H1292  H     0.78180   0.69395   0.70078   0.00000  Uiso   1.00
C1293  C     0.77997   0.70700   0.76626   0.00000  Uiso   1.00
H1294  H     0.78836   0.67546   0.77609   0.00000  Uiso   1.00
H1295  H     0.75514   0.72255   0.79553   0.00000  Uiso   1.00
H1296  H     0.81438   0.72435   0.75608   0.00000  Uiso   1.00
loop_
_geom_bond_atom_site_label_1
_geom_bond_atom_site_label_2
_geom_bond_distance
_geom_bond_site_symmetry_2
_ccdc_geom_bond_type
C1     C12     1.455   .     S
C1     O53     1.289   .     A
C1     O199    1.295   1_455 S
C2     C11     1.455   .     S
C2     O54     1.289   .     A
C2     O128    1.295   .     S
C3     C5      1.386   .     A
C3     H43     1.076   .     S
C3     C32     1.417   .     A
C4     H44     1.076   .     S
C4     C31     1.417   .     A
C4     C6      1.387   .     A
C5     H35     1.084   .     S
C5     C677    1.390   1_554 S
C6     H36     1.084   .     S
C6     C678    1.390   .     S
C7     H45     1.084   .     S
C7     C441    1.388   1_545 S
C7     C84     1.400   .     S
C8     H46     1.084   .     S
C8     C226    1.388   .     S
C8     C155    1.400   1_455 S
C9     C11     1.412   .     A
C9     N61     1.423   .     S
C9     C223    1.388   .     S
C10    N67     1.423   .     S
C10    C12     1.412   .     A
C10    C440    1.388   1_545 S
C11    C80     1.400   .     S
C12    C151    1.400   1_455 S
C13    N52     1.368   .     A
C13    C15     1.415   .     A
C13    H47     1.081   .     S
C14    C16     1.415   .     A
C14    N51     1.368   .     A
C14    H48     1.081   .     S
C15    N51     1.366   .     A
C15    H49     1.081   .     S
C16    N52     1.366   .     A
C16    H50     1.081   .     S
C17    O59     1.294   .     A
C17    C19     1.467   .     S
C17    O129    1.295   .     S
C18    C20     1.466   .     S
C18    O60     1.293   .     A
C18    O202    1.295   1_455 S
C19    C23     1.399   .     A
C19    C25     1.399   .     A
C20    C24     1.399   .     A
C20    C26     1.398   .     A
C21    C23     1.391   .     A
C21    C29     1.404   .     A
C21    H113    1.083   .     S
C22    H42     1.084   .     S
C22    C24     1.392   .     A
C22    C30     1.404   .     A
C23    H112    1.083   .     S
C24    H183    1.083   1_455 S
C25    H38     1.075   .     S
C25    C27     1.405   .     A
C26    H37     1.076   .     S
C26    C28     1.405   .     A
C27    C29     1.418   .     A
C27    C31     1.427   .     A
C28    C30     1.418   .     A
C28    C32     1.426   .     A
C29    C653    1.390   .     S
C30    C654    1.390   1_554 S
C31    C680    1.424   .     S
C32    C679    1.424   1_554 S
Cu33   N51     2.011   .     S
Cu33   O57     1.958   .     S
Cu33   O56     1.969   .     S
Cu33   O60     1.944   .     S
Cu33   O53     1.975   .     S
Cu33   Cu178   2.676   1_455 S
Cu34   N52     2.011   .     S
Cu34   O55     1.969   .     S
Cu34   O58     1.958   .     S
Cu34   O54     1.975   .     S
Cu34   O59     1.944   .     S
Cu34   Cu105   2.676   .     S
H39    C96     1.083   .     S
H40    C167    1.083   1_455 S
H41    C165    1.083   1_455 S
O55    C73     1.295   .     S
O56    C146    1.295   1_455 S
O57    C161    1.295   1_455 S
O58    C90     1.295   .     S
N61    H62     1.032   .     S
N61    C63     1.447   .     S
C63    H65     1.110   .     S
C63    H66     1.111   .     S
C63    H64     1.111   .     S
N67    H68     1.032   .     S
N67    C69     1.447   .     S
C69    H72     1.110   .     S
C69    H70     1.111   .     S
C69    H71     1.111   .     S
C73    C84     1.455   .     S
C73    O125    1.289   .     A
C74    C83     1.455   .     S
C74    O126    1.289   .     A
C74    O200    1.295   .     S
C75    C77     1.386   .     A
C75    H115    1.076   .     S
C75    C104    1.417   .     A
C76    H116    1.076   .     S
C76    C103    1.417   .     A
C76    C78     1.387   .     A
C77    H107    1.084   .     S
C77    C749    1.390   1_554 S
C78    H108    1.084   .     S
C78    C750    1.390   .     S
C79    H117    1.084   .     S
C79    C513    1.388   1_545 S
C79    C156    1.400   .     S
C80    H118    1.084   .     S
C80    C298    1.388   .     S
C81    C83     1.412   .     A
C81    N133    1.423   .     S
C81    C295    1.388   .     S
C82    N139    1.423   .     S
C82    C84     1.412   .     A
C82    C512    1.388   1_545 S
C83    C152    1.400   .     S
C85    N124    1.368   .     A
C85    C87     1.415   .     A
C85    H119    1.081   .     S
C86    C88     1.415   .     A
C86    N123    1.368   .     A
C86    H120    1.081   .     S
C87    N123    1.366   .     A
C87    H121    1.081   .     S
C88    N124    1.366   .     A
C88    H122    1.081   .     S
C89    O131    1.294   .     A
C89    C91     1.467   .     S
C89    O201    1.295   .     S
C90    C92     1.466   .     S
C90    O132    1.293   .     A
C91    C95     1.399   .     A
C91    C97     1.399   .     A
C92    C96     1.399   .     A
C92    C98     1.398   .     A
C93    C95     1.391   .     A
C93    C101    1.404   .     A
C93    H185    1.083   .     S
C94    H114    1.084   .     S
C94    C96     1.392   .     A
C94    C102    1.404   .     A
C95    H184    1.083   .     S
C97    H110    1.075   .     S
C97    C99     1.405   .     A
C98    H109    1.076   .     S
C98    C100    1.405   .     A
C99    C101    1.418   .     A
C99    C103    1.427   .     A
C100   C102    1.418   .     A
C100   C104    1.426   .     A
C101   C725    1.390   .     S
C102   C726    1.390   1_554 S
C103   C752    1.424   .     S
C104   C751    1.424   1_554 S
Cu105  N123    2.011   .     S
Cu105  O129    1.958   .     S
Cu105  O128    1.969   .     S
Cu105  O132    1.944   .     S
Cu105  O125    1.975   .     S
Cu106  N124    2.011   .     S
Cu106  O127    1.969   .     S
Cu106  O130    1.958   .     S
Cu106  O126    1.975   .     S
Cu106  O131    1.944   .     S
Cu106  Cu177   2.676   .     S
H111   C168    1.083   .     S
O127   C145    1.295   .     S
O130   C162    1.295   .     S
N133   H134    1.032   .     S
N133   C135    1.447   .     S
C135   H137    1.110   .     S
C135   H138    1.111   .     S
C135   H136    1.111   .     S
N139   H140    1.032   .     S
N139   C141    1.447   .     S
C141   H144    1.110   .     S
C141   H142    1.111   .     S
C141   H143    1.111   .     S
C145   C156    1.455   .     S
C145   O197    1.289   .     A
C146   C155    1.455   .     S
C146   O198    1.289   .     A
C146   O56     1.295   1_655 S
C147   C149    1.386   .     A
C147   H187    1.076   .     S
C147   C176    1.417   .     A
C148   H188    1.076   .     S
C148   C175    1.417   .     A
C148   C150    1.387   .     A
C149   H179    1.084   .     S
C149   C821    1.390   1_554 S
C150   H180    1.084   .     S
C150   C822    1.390   .     S
C151   H189    1.084   .     S
C151   C585    1.388   1_545 S
C151   C12     1.400   1_655 S
C152   H190    1.084   .     S
C152   C370    1.388   .     S
C153   C155    1.412   .     A
C153   N205    1.423   .     S
C153   C367    1.388   .     S
C154   N211    1.423   .     S
C154   C156    1.412   .     A
C154   C584    1.388   1_545 S
C155   C8      1.400   1_655 S
C157   N196    1.368   .     A
C157   C159    1.415   .     A
C157   H191    1.081   .     S
C158   C160    1.415   .     A
C158   N195    1.368   .     A
C158   H192    1.081   .     S
C159   N195    1.366   .     A
C159   H193    1.081   .     S
C160   N196    1.366   .     A
C160   H194    1.081   .     S
C161   O203    1.294   .     A
C161   C163    1.467   .     S
C161   O57     1.295   1_655 S
C162   C164    1.466   .     S
C162   O204    1.293   .     A
C163   C167    1.399   .     A
C163   C169    1.399   .     A
C164   C168    1.399   .     A
C164   C170    1.398   .     A
C165   C167    1.391   .     A
C165   C173    1.404   .     A
C165   H41     1.083   1_655 S
C166   H186    1.084   .     S
C166   C168    1.392   .     A
C166   C174    1.404   .     A
C167   H40     1.083   1_655 S
C169   H182    1.075   .     S
C169   C171    1.405   .     A
C170   H181    1.076   .     S
C170   C172    1.405   .     A
C171   C173    1.418   .     A
C171   C175    1.427   .     A
C172   C174    1.418   .     A
C172   C176    1.426   .     A
C173   C797    1.390   .     S
C174   C798    1.390   1_554 S
C175   C824    1.424   .     S
C176   C823    1.424   1_554 S
Cu177  N195    2.011   .     S
Cu177  O201    1.958   .     S
Cu177  O200    1.969   .     S
Cu177  O204    1.944   .     S
Cu177  O197    1.975   .     S
Cu178  N196    2.011   .     S
Cu178  O199    1.969   .     S
Cu178  O202    1.958   .     S
Cu178  O198    1.975   .     S
Cu178  O203    1.944   .     S
Cu178  Cu33    2.676   1_655 S
H183   C24     1.083   1_655 S
O199   C1      1.295   1_655 S
O202   C18     1.295   1_655 S
N205   H206    1.032   .     S
N205   C207    1.447   .     S
C207   H209    1.110   .     S
C207   H210    1.111   .     S
C207   H208    1.111   .     S
N211   H212    1.032   .     S
N211   C213    1.447   .     S
C213   H216    1.110   .     S
C213   H214    1.111   .     S
C213   H215    1.111   .     S
C217   C228    1.455   .     S
C217   O269    1.289   .     A
C217   O415    1.295   1_455 S
C218   C227    1.455   .     S
C218   O270    1.289   .     A
C218   O344    1.295   .     S
C219   C221    1.386   .     A
C219   H259    1.076   .     S
C219   C248    1.417   .     A
C220   H260    1.076   .     S
C220   C247    1.417   .     A
C220   C222    1.387   .     A
C221   H251    1.084   .     S
C221   C893    1.390   1_554 S
C222   H252    1.084   .     S
C222   C894    1.390   .     S
C223   H261    1.084   .     S
C223   C300    1.400   .     S
C224   H262    1.084   .     S
C224   C442    1.388   .     S
C224   C371    1.400   1_455 S
C225   C227    1.412   .     A
C225   N277    1.423   .     S
C225   C439    1.388   .     S
C226   N283    1.423   .     S
C226   C228    1.412   .     A
C227   C296    1.400   .     S
C228   C367    1.400   1_455 S
C229   N268    1.368   .     A
C229   C231    1.415   .     A
C229   H263    1.081   .     S
C230   C232    1.415   .     A
C230   N267    1.368   .     A
C230   H264    1.081   .     S
C231   N267    1.366   .     A
C231   H265    1.081   .     S
C232   N268    1.366   .     A
C232   H266    1.081   .     S
C233   O275    1.294   .     A
C233   C235    1.467   .     S
C233   O345    1.295   .     S
C234   C236    1.466   .     S
C234   O276    1.293   .     A
C234   O418    1.295   1_455 S
C235   C239    1.399   .     A
C235   C241    1.399   .     A
C236   C240    1.399   .     A
C236   C242    1.398   .     A
C237   C239    1.391   .     A
C237   C245    1.404   .     A
C237   H329    1.083   .     S
C238   H258    1.084   .     S
C238   C240    1.392   .     A
C238   C246    1.404   .     A
C239   H328    1.083   .     S
C240   H399    1.083   1_455 S
C241   H254    1.075   .     S
C241   C243    1.405   .     A
C242   H253    1.076   .     S
C242   C244    1.405   .     A
C243   C245    1.418   .     A
C243   C247    1.427   .     A
C244   C246    1.418   .     A
C244   C248    1.426   .     A
C245   C869    1.390   .     S
C246   C870    1.390   1_554 S
C247   C896    1.424   .     S
C248   C895    1.424   1_554 S
Cu249  N267    2.011   .     S
Cu249  O273    1.958   .     S
Cu249  O272    1.969   .     S
Cu249  O276    1.944   .     S
Cu249  O269    1.975   .     S
Cu249  Cu394   2.676   1_455 S
Cu250  N268    2.011   .     S
Cu250  O271    1.969   .     S
Cu250  O274    1.958   .     S
Cu250  O270    1.975   .     S
Cu250  O275    1.944   .     S
Cu250  Cu321   2.676   .     S
H255   C312    1.083   .     S
H256   C383    1.083   1_455 S
H257   C381    1.083   1_455 S
O271   C289    1.295   .     S
O272   C362    1.295   1_455 S
O273   C377    1.295   1_455 S
O274   C306    1.295   .     S
N277   H278    1.032   .     S
N277   C279    1.447   .     S
C279   H281    1.110   .     S
C279   H282    1.111   .     S
C279   H280    1.111   .     S
N283   H284    1.032   .     S
N283   C285    1.447   .     S
C285   H288    1.110   .     S
C285   H286    1.111   .     S
C285   H287    1.111   .     S
C289   C300    1.455   .     S
C289   O341    1.289   .     A
C290   C299    1.455   .     S
C290   O342    1.289   .     A
C290   O416    1.295   .     S
C291   C293    1.386   .     A
C291   H331    1.076   .     S
C291   C320    1.417   .     A
C292   H332    1.076   .     S
C292   C319    1.417   .     A
C292   C294    1.387   .     A
C293   H323    1.084   .     S
C293   C965    1.390   1_554 S
C294   H324    1.084   .     S
C294   C966    1.390   .     S
C295   H333    1.084   .     S
C295   C372    1.400   .     S
C296   H334    1.084   .     S
C296   C514    1.388   .     S
C297   C299    1.412   .     A
C297   N349    1.423   .     S
C297   C511    1.388   .     S
C298   N355    1.423   .     S
C298   C300    1.412   .     A
C299   C368    1.400   .     S
C301   N340    1.368   .     A
C301   C303    1.415   .     A
C301   H335    1.081   .     S
C302   C304    1.415   .     A
C302   N339    1.368   .     A
C302   H336    1.081   .     S
C303   N339    1.366   .     A
C303   H337    1.081   .     S
C304   N340    1.366   .     A
C304   H338    1.081   .     S
C305   O347    1.294   .     A
C305   C307    1.467   .     S
C305   O417    1.295   .     S
C306   C308    1.466   .     S
C306   O348    1.293   .     A
C307   C311    1.399   .     A
C307   C313    1.399   .     A
C308   C312    1.399   .     A
C308   C314    1.398   .     A
C309   C311    1.391   .     A
C309   C317    1.404   .     A
C309   H401    1.083   .     S
C310   H330    1.084   .     S
C310   C312    1.392   .     A
C310   C318    1.404   .     A
C311   H400    1.083   .     S
C313   H326    1.075   .     S
C313   C315    1.405   .     A
C314   H325    1.076   .     S
C314   C316    1.405   .     A
C315   C317    1.418   .     A
C315   C319    1.427   .     A
C316   C318    1.418   .     A
C316   C320    1.426   .     A
C317   C941    1.390   .     S
C318   C942    1.390   1_554 S
C319   C968    1.424   .     S
C320   C967    1.424   1_554 S
Cu321  N339    2.011   .     S
Cu321  O345    1.958   .     S
Cu321  O344    1.969   .     S
Cu321  O348    1.944   .     S
Cu321  O341    1.975   .     S
Cu322  N340    2.011   .     S
Cu322  O343    1.969   .     S
Cu322  O346    1.958   .     S
Cu322  O342    1.975   .     S
Cu322  O347    1.944   .     S
Cu322  Cu393   2.676   .     S
H327   C384    1.083   .     S
O343   C361    1.295   .     S
O346   C378    1.295   .     S
N349   H350    1.032   .     S
N349   C351    1.447   .     S
C351   H353    1.110   .     S
C351   H354    1.111   .     S
C351   H352    1.111   .     S
N355   H356    1.032   .     S
N355   C357    1.447   .     S
C357   H360    1.110   .     S
C357   H358    1.111   .     S
C357   H359    1.111   .     S
C361   C372    1.455   .     S
C361   O413    1.289   .     A
C362   C371    1.455   .     S
C362   O414    1.289   .     A
C362   O272    1.295   1_655 S
C363   C365    1.386   .     A
C363   H403    1.076   .     S
C363   C392    1.417   .     A
C364   H404    1.076   .     S
C364   C391    1.417   .     A
C364   C366    1.387   .     A
C365   H395    1.084   .     S
C365   C1037   1.390   1_554 S
C366   H396    1.084   .     S
C366   C1038   1.390   .     S
C367   H405    1.084   .     S
C367   C228    1.400   1_655 S
C368   H406    1.084   .     S
C368   C586    1.388   .     S
C369   C371    1.412   .     A
C369   N421    1.423   .     S
C369   C583    1.388   .     S
C370   N427    1.423   .     S
C370   C372    1.412   .     A
C371   C224    1.400   1_655 S
C373   N412    1.368   .     A
C373   C375    1.415   .     A
C373   H407    1.081   .     S
C374   C376    1.415   .     A
C374   N411    1.368   .     A
C374   H408    1.081   .     S
C375   N411    1.366   .     A
C375   H409    1.081   .     S
C376   N412    1.366   .     A
C376   H410    1.081   .     S
C377   O419    1.294   .     A
C377   C379    1.467   .     S
C377   O273    1.295   1_655 S
C378   C380    1.466   .     S
C378   O420    1.293   .     A
C379   C383    1.399   .     A
C379   C385    1.399   .     A
C380   C384    1.399   .     A
C380   C386    1.398   .     A
C381   C383    1.391   .     A
C381   C389    1.404   .     A
C381   H257    1.083   1_655 S
C382   H402    1.084   .     S
C382   C384    1.392   .     A
C382   C390    1.404   .     A
C383   H256    1.083   1_655 S
C385   H398    1.075   .     S
C385   C387    1.405   .     A
C386   H397    1.076   .     S
C386   C388    1.405   .     A
C387   C389    1.418   .     A
C387   C391    1.427   .     A
C388   C390    1.418   .     A
C388   C392    1.426   .     A
C389   C1013   1.390   .     S
C390   C1014   1.390   1_554 S
C391   C1040   1.424   .     S
C392   C1039   1.424   1_554 S
Cu393  N411    2.011   .     S
Cu393  O417    1.958   .     S
Cu393  O416    1.969   .     S
Cu393  O420    1.944   .     S
Cu393  O413    1.975   .     S
Cu394  N412    2.011   .     S
Cu394  O415    1.969   .     S
Cu394  O418    1.958   .     S
Cu394  O414    1.975   .     S
Cu394  O419    1.944   .     S
Cu394  Cu249   2.676   1_655 S
H399   C240    1.083   1_655 S
O415   C217    1.295   1_655 S
O418   C234    1.295   1_655 S
N421   H422    1.032   .     S
N421   C423    1.447   .     S
C423   H425    1.110   .     S
C423   H426    1.111   .     S
C423   H424    1.111   .     S
N427   H428    1.032   .     S
N427   C429    1.447   .     S
C429   H432    1.110   .     S
C429   H430    1.111   .     S
C429   H431    1.111   .     S
C433   C444    1.455   .     S
C433   O485    1.289   .     A
C433   O631    1.295   1_455 S
C434   C443    1.455   .     S
C434   O486    1.289   .     A
C434   O560    1.295   .     S
C435   C437    1.386   .     A
C435   H475    1.076   .     S
C435   C464    1.417   .     A
C436   H476    1.076   .     S
C436   C463    1.417   .     A
C436   C438    1.387   .     A
C437   H467    1.084   .     S
C437   C1109   1.390   1_554 S
C438   H468    1.084   .     S
C438   C1110   1.390   .     S
C439   H477    1.084   .     S
C439   C516    1.400   .     S
C440   H478    1.084   .     S
C440   C10     1.388   1_565 S
C440   C587    1.400   1_455 S
C441   C443    1.412   .     A
C441   N493    1.423   .     S
C441   C7      1.388   1_565 S
C442   N499    1.423   .     S
C442   C444    1.412   .     A
C443   C512    1.400   .     S
C444   C583    1.400   1_455 S
C445   N484    1.368   .     A
C445   C447    1.415   .     A
C445   H479    1.081   .     S
C446   C448    1.415   .     A
C446   N483    1.368   .     A
C446   H480    1.081   .     S
C447   N483    1.366   .     A
C447   H481    1.081   .     S
C448   N484    1.366   .     A
C448   H482    1.081   .     S
C449   O491    1.294   .     A
C449   C451    1.467   .     S
C449   O561    1.295   .     S
C450   C452    1.466   .     S
C450   O492    1.293   .     A
C450   O634    1.295   1_455 S
C451   C455    1.399   .     A
C451   C457    1.399   .     A
C452   C456    1.399   .     A
C452   C458    1.398   .     A
C453   C455    1.391   .     A
C453   C461    1.404   .     A
C453   H545    1.083   .     S
C454   H474    1.084   .     S
C454   C456    1.392   .     A
C454   C462    1.404   .     A
C455   H544    1.083   .     S
C456   H615    1.083   1_455 S
C457   H470    1.075   .     S
C457   C459    1.405   .     A
C458   H469    1.076   .     S
C458   C460    1.405   .     A
C459   C461    1.418   .     A
C459   C463    1.427   .     A
C460   C462    1.418   .     A
C460   C464    1.426   .     A
C461   C1085   1.390   .     S
C462   C1086   1.390   1_554 S
C463   C1112   1.424   .     S
C464   C1111   1.424   1_554 S
Cu465  N483    2.011   .     S
Cu465  O489    1.958   .     S
Cu465  O488    1.969   .     S
Cu465  O492    1.944   .     S
Cu465  O485    1.975   .     S
Cu465  Cu610   2.676   1_455 S
Cu466  N484    2.011   .     S
Cu466  O487    1.969   .     S
Cu466  O490    1.958   .     S
Cu466  O486    1.975   .     S
Cu466  O491    1.944   .     S
Cu466  Cu537   2.676   .     S
H471   C528    1.083   .     S
H472   C599    1.083   1_455 S
H473   C597    1.083   1_455 S
O487   C505    1.295   .     S
O488   C578    1.295   1_455 S
O489   C593    1.295   1_455 S
O490   C522    1.295   .     S
N493   H494    1.032   .     S
N493   C495    1.447   .     S
C495   H497    1.110   .     S
C495   H498    1.111   .     S
C495   H496    1.111   .     S
N499   H500    1.032   .     S
N499   C501    1.447   .     S
C501   H504    1.110   .     S
C501   H502    1.111   .     S
C501   H503    1.111   .     S
C505   C516    1.455   .     S
C505   O557    1.289   .     A
C506   C515    1.455   .     S
C506   O558    1.289   .     A
C506   O632    1.295   .     S
C507   C509    1.386   .     A
C507   H547    1.076   .     S
C507   C536    1.417   .     A
C508   H548    1.076   .     S
C508   C535    1.417   .     A
C508   C510    1.387   .     A
C509   H539    1.084   .     S
C509   C1181   1.390   1_554 S
C510   H540    1.084   .     S
C510   C1182   1.390   .     S
C511   H549    1.084   .     S
C511   C588    1.400   .     S
C512   H550    1.084   .     S
C512   C82     1.388   1_565 S
C513   C515    1.412   .     A
C513   N565    1.423   .     S
C513   C79     1.388   1_565 S
C514   N571    1.423   .     S
C514   C516    1.412   .     A
C515   C584    1.400   .     S
C517   N556    1.368   .     A
C517   C519    1.415   .     A
C517   H551    1.081   .     S
C518   C520    1.415   .     A
C518   N555    1.368   .     A
C518   H552    1.081   .     S
C519   N555    1.366   .     A
C519   H553    1.081   .     S
C520   N556    1.366   .     A
C520   H554    1.081   .     S
C521   O563    1.294   .     A
C521   C523    1.467   .     S
C521   O633    1.295   .     S
C522   C524    1.466   .     S
C522   O564    1.293   .     A
C523   C527    1.399   .     A
C523   C529    1.399   .     A
C524   C528    1.399   .     A
C524   C530    1.398   .     A
C525   C527    1.391   .     A
C525   C533    1.404   .     A
C525   H617    1.083   .     S
C526   H546    1.084   .     S
C526   C528    1.392   .     A
C526   C534    1.404   .     A
C527   H616    1.083   .     S
C529   H542    1.075   .     S
C529   C531    1.405   .     A
C530   H541    1.076   .     S
C530   C532    1.405   .     A
C531   C533    1.418   .     A
C531   C535    1.427   .     A
C532   C534    1.418   .     A
C532   C536    1.426   .     A
C533   C1157   1.390   .     S
C534   C1158   1.390   1_554 S
C535   C1184   1.424   .     S
C536   C1183   1.424   1_554 S
Cu537  N555    2.011   .     S
Cu537  O561    1.958   .     S
Cu537  O560    1.969   .     S
Cu537  O564    1.944   .     S
Cu537  O557    1.975   .     S
Cu538  N556    2.011   .     S
Cu538  O559    1.969   .     S
Cu538  O562    1.958   .     S
Cu538  O558    1.975   .     S
Cu538  O563    1.944   .     S
Cu538  Cu609   2.676   .     S
H543   C600    1.083   .     S
O559   C577    1.295   .     S
O562   C594    1.295   .     S
N565   H566    1.032   .     S
N565   C567    1.447   .     S
C567   H569    1.110   .     S
C567   H570    1.111   .     S
C567   H568    1.111   .     S
N571   H572    1.032   .     S
N571   C573    1.447   .     S
C573   H576    1.110   .     S
C573   H574    1.111   .     S
C573   H575    1.111   .     S
C577   C588    1.455   .     S
C577   O629    1.289   .     A
C578   C587    1.455   .     S
C578   O630    1.289   .     A
C578   O488    1.295   1_655 S
C579   C581    1.386   .     A
C579   H619    1.076   .     S
C579   C608    1.417   .     A
C580   H620    1.076   .     S
C580   C607    1.417   .     A
C580   C582    1.387   .     A
C581   H611    1.084   .     S
C581   C1253   1.390   1_554 S
C582   H612    1.084   .     S
C582   C1254   1.390   .     S
C583   H621    1.084   .     S
C583   C444    1.400   1_655 S
C584   H622    1.084   .     S
C584   C154    1.388   1_565 S
C585   C587    1.412   .     A
C585   N637    1.423   .     S
C585   C151    1.388   1_565 S
C586   N643    1.423   .     S
C586   C588    1.412   .     A
C587   C440    1.400   1_655 S
C589   N628    1.368   .     A
C589   C591    1.415   .     A
C589   H623    1.081   .     S
C590   C592    1.415   .     A
C590   N627    1.368   .     A
C590   H624    1.081   .     S
C591   N627    1.366   .     A
C591   H625    1.081   .     S
C592   N628    1.366   .     A
C592   H626    1.081   .     S
C593   O635    1.294   .     A
C593   C595    1.467   .     S
C593   O489    1.295   1_655 S
C594   C596    1.466   .     S
C594   O636    1.293   .     A
C595   C599    1.399   .     A
C595   C601    1.399   .     A
C596   C600    1.399   .     A
C596   C602    1.398   .     A
C597   C599    1.391   .     A
C597   C605    1.404   .     A
C597   H473    1.083   1_655 S
C598   H618    1.084   .     S
C598   C600    1.392   .     A
C598   C606    1.404   .     A
C599   H472    1.083   1_655 S
C601   H614    1.075   .     S
C601   C603    1.405   .     A
C602   H613    1.076   .     S
C602   C604    1.405   .     A
C603   C605    1.418   .     A
C603   C607    1.427   .     A
C604   C606    1.418   .     A
C604   C608    1.426   .     A
C605   C1229   1.390   .     S
C606   C1230   1.390   1_554 S
C607   C1256   1.424   .     S
C608   C1255   1.424   1_554 S
Cu609  N627    2.011   .     S
Cu609  O633    1.958   .     S
Cu609  O632    1.969   .     S
Cu609  O636    1.944   .     S
Cu609  O629    1.975   .     S
Cu610  N628    2.011   .     S
Cu610  O631    1.969   .     S
Cu610  O634    1.958   .     S
Cu610  O630    1.975   .     S
Cu610  O635    1.944   .     S
Cu610  Cu465   2.676   1_655 S
H615   C456    1.083   1_655 S
O631   C433    1.295   1_655 S
O634   C450    1.295   1_655 S
N637   H638    1.032   .     S
N637   C639    1.447   .     S
C639   H641    1.110   .     S
C639   H642    1.111   .     S
C639   H640    1.111   .     S
N643   H644    1.032   .     S
N643   C645    1.447   .     S
C645   H648    1.110   .     S
C645   H646    1.111   .     S
C645   H647    1.111   .     S
C649   C660    1.455   .     S
C649   O701    1.289   .     A
C649   O847    1.295   1_455 S
C650   C659    1.455   .     S
C650   O702    1.289   .     A
C650   O776    1.295   .     S
C651   C653    1.386   .     A
C651   H691    1.076   .     S
C651   C680    1.417   .     A
C652   H692    1.076   .     S
C652   C679    1.417   .     A
C652   C654    1.387   .     A
C653   H683    1.084   .     S
C654   H684    1.084   .     S
C654   C30     1.390   1_556 S
C655   H693    1.084   .     S
C655   C1089   1.388   1_545 S
C655   C732    1.400   .     S
C656   H694    1.084   .     S
C656   C874    1.388   .     S
C656   C803    1.400   1_455 S
C657   C659    1.412   .     A
C657   N709    1.423   .     S
C657   C871    1.388   .     S
C658   N715    1.423   .     S
C658   C660    1.412   .     A
C658   C1088   1.388   1_545 S
C659   C728    1.400   .     S
C660   C799    1.400   1_455 S
C661   N700    1.368   .     A
C661   C663    1.415   .     A
C661   H695    1.081   .     S
C662   C664    1.415   .     A
C662   N699    1.368   .     A
C662   H696    1.081   .     S
C663   N699    1.366   .     A
C663   H697    1.081   .     S
C664   N700    1.366   .     A
C664   H698    1.081   .     S
C665   O707    1.294   .     A
C665   C667    1.467   .     S
C665   O777    1.295   .     S
C666   C668    1.466   .     S
C666   O708    1.293   .     A
C666   O850    1.295   1_455 S
C667   C671    1.399   .     A
C667   C673    1.399   .     A
C668   C672    1.399   .     A
C668   C674    1.398   .     A
C669   C671    1.391   .     A
C669   C677    1.404   .     A
C669   H761    1.083   .     S
C670   H690    1.084   .     S
C670   C672    1.392   .     A
C670   C678    1.404   .     A
C671   H760    1.083   .     S
C672   H831    1.083   1_455 S
C673   H686    1.075   .     S
C673   C675    1.405   .     A
C674   H685    1.076   .     S
C674   C676    1.405   .     A
C675   C677    1.418   .     A
C675   C679    1.427   .     A
C676   C678    1.418   .     A
C676   C680    1.426   .     A
C677   C5      1.390   1_556 S
C679   C32     1.424   1_556 S
Cu681  N699    2.011   .     S
Cu681  O705    1.958   .     S
Cu681  O704    1.969   .     S
Cu681  O708    1.944   .     S
Cu681  O701    1.975   .     S
Cu681  Cu826   2.676   1_455 S
Cu682  N700    2.011   .     S
Cu682  O703    1.969   .     S
Cu682  O706    1.958   .     S
Cu682  O702    1.975   .     S
Cu682  O707    1.944   .     S
Cu682  Cu753   2.676   .     S
H687   C744    1.083   .     S
H688   C815    1.083   1_455 S
H689   C813    1.083   1_455 S
O703   C721    1.295   .     S
O704   C794    1.295   1_455 S
O705   C809    1.295   1_455 S
O706   C738    1.295   .     S
N709   H710    1.032   .     S
N709   C711    1.447   .     S
C711   H713    1.110   .     S
C711   H714    1.111   .     S
C711   H712    1.111   .     S
N715   H716    1.032   .     S
N715   C717    1.447   .     S
C717   H720    1.110   .     S
C717   H718    1.111   .     S
C717   H719    1.111   .     S
C721   C732    1.455   .     S
C721   O773    1.289   .     A
C722   C731    1.455   .     S
C722   O774    1.289   .     A
C722   O848    1.295   .     S
C723   C725    1.386   .     A
C723   H763    1.076   .     S
C723   C752    1.417   .     A
C724   H764    1.076   .     S
C724   C751    1.417   .     A
C724   C726    1.387   .     A
C725   H755    1.084   .     S
C726   H756    1.084   .     S
C726   C102    1.390   1_556 S
C727   H765    1.084   .     S
C727   C1161   1.388   1_545 S
C727   C804    1.400   .     S
C728   H766    1.084   .     S
C728   C946    1.388   .     S
C729   C731    1.412   .     A
C729   N781    1.423   .     S
C729   C943    1.388   .     S
C730   N787    1.423   .     S
C730   C732    1.412   .     A
C730   C1160   1.388   1_545 S
C731   C800    1.400   .     S
C733   N772    1.368   .     A
C733   C735    1.415   .     A
C733   H767    1.081   .     S
C734   C736    1.415   .     A
C734   N771    1.368   .     A
C734   H768    1.081   .     S
C735   N771    1.366   .     A
C735   H769    1.081   .     S
C736   N772    1.366   .     A
C736   H770    1.081   .     S
C737   O779    1.294   .     A
C737   C739    1.467   .     S
C737   O849    1.295   .     S
C738   C740    1.466   .     S
C738   O780    1.293   .     A
C739   C743    1.399   .     A
C739   C745    1.399   .     A
C740   C744    1.399   .     A
C740   C746    1.398   .     A
C741   C743    1.391   .     A
C741   C749    1.404   .     A
C741   H833    1.083   .     S
C742   H762    1.084   .     S
C742   C744    1.392   .     A
C742   C750    1.404   .     A
C743   H832    1.083   .     S
C745   H758    1.075   .     S
C745   C747    1.405   .     A
C746   H757    1.076   .     S
C746   C748    1.405   .     A
C747   C749    1.418   .     A
C747   C751    1.427   .     A
C748   C750    1.418   .     A
C748   C752    1.426   .     A
C749   C77     1.390   1_556 S
C751   C104    1.424   1_556 S
Cu753  N771    2.011   .     S
Cu753  O777    1.958   .     S
Cu753  O776    1.969   .     S
Cu753  O780    1.944   .     S
Cu753  O773    1.975   .     S
Cu754  N772    2.011   .     S
Cu754  O775    1.969   .     S
Cu754  O778    1.958   .     S
Cu754  O774    1.975   .     S
Cu754  O779    1.944   .     S
Cu754  Cu825   2.676   .     S
H759   C816    1.083   .     S
O775   C793    1.295   .     S
O778   C810    1.295   .     S
N781   H782    1.032   .     S
N781   C783    1.447   .     S
C783   H785    1.110   .     S
C783   H786    1.111   .     S
C783   H784    1.111   .     S
N787   H788    1.032   .     S
N787   C789    1.447   .     S
C789   H792    1.110   .     S
C789   H790    1.111   .     S
C789   H791    1.111   .     S
C793   C804    1.455   .     S
C793   O845    1.289   .     A
C794   C803    1.455   .     S
C794   O846    1.289   .     A
C794   O704    1.295   1_655 S
C795   C797    1.386   .     A
C795   H835    1.076   .     S
C795   C824    1.417   .     A
C796   H836    1.076   .     S
C796   C823    1.417   .     A
C796   C798    1.387   .     A
C797   H827    1.084   .     S
C798   H828    1.084   .     S
C798   C174    1.390   1_556 S
C799   H837    1.084   .     S
C799   C1233   1.388   1_545 S
C799   C660    1.400   1_655 S
C800   H838    1.084   .     S
C800   C1018   1.388   .     S
C801   C803    1.412   .     A
C801   N853    1.423   .     S
C801   C1015   1.388   .     S
C802   N859    1.423   .     S
C802   C804    1.412   .     A
C802   C1232   1.388   1_545 S
C803   C656    1.400   1_655 S
C805   N844    1.368   .     A
C805   C807    1.415   .     A
C805   H839    1.081   .     S
C806   C808    1.415   .     A
C806   N843    1.368   .     A
C806   H840    1.081   .     S
C807   N843    1.366   .     A
C807   H841    1.081   .     S
C808   N844    1.366   .     A
C808   H842    1.081   .     S
C809   O851    1.294   .     A
C809   C811    1.467   .     S
C809   O705    1.295   1_655 S
C810   C812    1.466   .     S
C810   O852    1.293   .     A
C811   C815    1.399   .     A
C811   C817    1.399   .     A
C812   C816    1.399   .     A
C812   C818    1.398   .     A
C813   C815    1.391   .     A
C813   C821    1.404   .     A
C813   H689    1.083   1_655 S
C814   H834    1.084   .     S
C814   C816    1.392   .     A
C814   C822    1.404   .     A
C815   H688    1.083   1_655 S
C817   H830    1.075   .     S
C817   C819    1.405   .     A
C818   H829    1.076   .     S
C818   C820    1.405   .     A
C819   C821    1.418   .     A
C819   C823    1.427   .     A
C820   C822    1.418   .     A
C820   C824    1.426   .     A
C821   C149    1.390   1_556 S
C823   C176    1.424   1_556 S
Cu825  N843    2.011   .     S
Cu825  O849    1.958   .     S
Cu825  O848    1.969   .     S
Cu825  O852    1.944   .     S
Cu825  O845    1.975   .     S
Cu826  N844    2.011   .     S
Cu826  O847    1.969   .     S
Cu826  O850    1.958   .     S
Cu826  O846    1.975   .     S
Cu826  O851    1.944   .     S
Cu826  Cu681   2.676   1_655 S
H831   C672    1.083   1_655 S
O847   C649    1.295   1_655 S
O850   C666    1.295   1_655 S
N853   H854    1.032   .     S
N853   C855    1.447   .     S
C855   H857    1.110   .     S
C855   H858    1.111   .     S
C855   H856    1.111   .     S
N859   H860    1.032   .     S
N859   C861    1.447   .     S
C861   H864    1.110   .     S
C861   H862    1.111   .     S
C861   H863    1.111   .     S
C865   C876    1.455   .     S
C865   O917    1.289   .     A
C865   O1063   1.295   1_455 S
C866   C875    1.455   .     S
C866   O918    1.289   .     A
C866   O992    1.295   .     S
C867   C869    1.386   .     A
C867   H907    1.076   .     S
C867   C896    1.417   .     A
C868   H908    1.076   .     S
C868   C895    1.417   .     A
C868   C870    1.387   .     A
C869   H899    1.084   .     S
C870   H900    1.084   .     S
C870   C246    1.390   1_556 S
C871   H909    1.084   .     S
C871   C948    1.400   .     S
C872   H910    1.084   .     S
C872   C1090   1.388   .     S
C872   C1019   1.400   1_455 S
C873   C875    1.412   .     A
C873   N925    1.423   .     S
C873   C1087   1.388   .     S
C874   N931    1.423   .     S
C874   C876    1.412   .     A
C875   C944    1.400   .     S
C876   C1015   1.400   1_455 S
C877   N916    1.368   .     A
C877   C879    1.415   .     A
C877   H911    1.081   .     S
C878   C880    1.415   .     A
C878   N915    1.368   .     A
C878   H912    1.081   .     S
C879   N915    1.366   .     A
C879   H913    1.081   .     S
C880   N916    1.366   .     A
C880   H914    1.081   .     S
C881   O923    1.294   .     A
C881   C883    1.467   .     S
C881   O993    1.295   .     S
C882   C884    1.466   .     S
C882   O924    1.293   .     A
C882   O1066   1.295   1_455 S
C883   C887    1.399   .     A
C883   C889    1.399   .     A
C884   C888    1.399   .     A
C884   C890    1.398   .     A
C885   C887    1.391   .     A
C885   C893    1.404   .     A
C885   H977    1.083   .     S
C886   H906    1.084   .     S
C886   C888    1.392   .     A
C886   C894    1.404   .     A
C887   H976    1.083   .     S
C888   H1047   1.083   1_455 S
C889   H902    1.075   .     S
C889   C891    1.405   .     A
C890   H901    1.076   .     S
C890   C892    1.405   .     A
C891   C893    1.418   .     A
C891   C895    1.427   .     A
C892   C894    1.418   .     A
C892   C896    1.426   .     A
C893   C221    1.390   1_556 S
C895   C248    1.424   1_556 S
Cu897  N915    2.011   .     S
Cu897  O921    1.958   .     S
Cu897  O920    1.969   .     S
Cu897  O924    1.944   .     S
Cu897  O917    1.975   .     S
Cu897  Cu1042  2.676   1_455 S
Cu898  N916    2.011   .     S
Cu898  O919    1.969   .     S
Cu898  O922    1.958   .     S
Cu898  O918    1.975   .     S
Cu898  O923    1.944   .     S
Cu898  Cu969   2.676   .     S
H903   C960    1.083   .     S
H904   C1031   1.083   1_455 S
H905   C1029   1.083   1_455 S
O919   C937    1.295   .     S
O920   C1010   1.295   1_455 S
O921   C1025   1.295   1_455 S
O922   C954    1.295   .     S
N925   H926    1.032   .     S
N925   C927    1.447   .     S
C927   H929    1.110   .     S
C927   H930    1.111   .     S
C927   H928    1.111   .     S
N931   H932    1.032   .     S
N931   C933    1.447   .     S
C933   H936    1.110   .     S
C933   H934    1.111   .     S
C933   H935    1.111   .     S
C937   C948    1.455   .     S
C937   O989    1.289   .     A
C938   C947    1.455   .     S
C938   O990    1.289   .     A
C938   O1064   1.295   .     S
C939   C941    1.386   .     A
C939   H979    1.076   .     S
C939   C968    1.417   .     A
C940   H980    1.076   .     S
C940   C967    1.417   .     A
C940   C942    1.387   .     A
C941   H971    1.084   .     S
C942   H972    1.084   .     S
C942   C318    1.390   1_556 S
C943   H981    1.084   .     S
C943   C1020   1.400   .     S
C944   H982    1.084   .     S
C944   C1162   1.388   .     S
C945   C947    1.412   .     A
C945   N997    1.423   .     S
C945   C1159   1.388   .     S
C946   N1003   1.423   .     S
C946   C948    1.412   .     A
C947   C1016   1.400   .     S
C949   N988    1.368   .     A
C949   C951    1.415   .     A
C949   H983    1.081   .     S
C950   C952    1.415   .     A
C950   N987    1.368   .     A
C950   H984    1.081   .     S
C951   N987    1.366   .     A
C951   H985    1.081   .     S
C952   N988    1.366   .     A
C952   H986    1.081   .     S
C953   O995    1.294   .     A
C953   C955    1.467   .     S
C953   O1065   1.295   .     S
C954   C956    1.466   .     S
C954   O996    1.293   .     A
C955   C959    1.399   .     A
C955   C961    1.399   .     A
C956   C960    1.399   .     A
C956   C962    1.398   .     A
C957   C959    1.391   .     A
C957   C965    1.404   .     A
C957   H1049   1.083   .     S
C958   H978    1.084   .     S
C958   C960    1.392   .     A
C958   C966    1.404   .     A
C959   H1048   1.083   .     S
C961   H974    1.075   .     S
C961   C963    1.405   .     A
C962   H973    1.076   .     S
C962   C964    1.405   .     A
C963   C965    1.418   .     A
C963   C967    1.427   .     A
C964   C966    1.418   .     A
C964   C968    1.426   .     A
C965   C293    1.390   1_556 S
C967   C320    1.424   1_556 S
Cu969  N987    2.011   .     S
Cu969  O993    1.958   .     S
Cu969  O992    1.969   .     S
Cu969  O996    1.944   .     S
Cu969  O989    1.975   .     S
Cu970  N988    2.011   .     S
Cu970  O991    1.969   .     S
Cu970  O994    1.958   .     S
Cu970  O990    1.975   .     S
Cu970  O995    1.944   .     S
Cu970  Cu1041  2.676   .     S
H975   C1032   1.083   .     S
O991   C1009   1.295   .     S
O994   C1026   1.295   .     S
N997   H998    1.032   .     S
N997   C999    1.447   .     S
C999   H1001   1.110   .     S
C999   H1002   1.111   .     S
C999   H1000   1.111   .     S
N1003  H1004   1.032   .     S
N1003  C1005   1.447   .     S
C1005  H1008   1.110   .     S
C1005  H1006   1.111   .     S
C1005  H1007   1.111   .     S
C1009  C1020   1.455   .     S
C1009  O1061   1.289   .     A
C1010  C1019   1.455   .     S
C1010  O1062   1.289   .     A
C1010  O920    1.295   1_655 S
C1011  C1013   1.386   .     A
C1011  H1051   1.076   .     S
C1011  C1040   1.417   .     A
C1012  H1052   1.076   .     S
C1012  C1039   1.417   .     A
C1012  C1014   1.387   .     A
C1013  H1043   1.084   .     S
C1014  H1044   1.084   .     S
C1014  C390    1.390   1_556 S
C1015  H1053   1.084   .     S
C1015  C876    1.400   1_655 S
C1016  H1054   1.084   .     S
C1016  C1234   1.388   .     S
C1017  C1019   1.412   .     A
C1017  N1069   1.423   .     S
C1017  C1231   1.388   .     S
C1018  N1075   1.423   .     S
C1018  C1020   1.412   .     A
C1019  C872    1.400   1_655 S
C1021  N1060   1.368   .     A
C1021  C1023   1.415   .     A
C1021  H1055   1.081   .     S
C1022  C1024   1.415   .     A
C1022  N1059   1.368   .     A
C1022  H1056   1.081   .     S
C1023  N1059   1.366   .     A
C1023  H1057   1.081   .     S
C1024  N1060   1.366   .     A
C1024  H1058   1.081   .     S
C1025  O1067   1.294   .     A
C1025  C1027   1.467   .     S
C1025  O921    1.295   1_655 S
C1026  C1028   1.466   .     S
C1026  O1068   1.293   .     A
C1027  C1031   1.399   .     A
C1027  C1033   1.399   .     A
C1028  C1032   1.399   .     A
C1028  C1034   1.398   .     A
C1029  C1031   1.391   .     A
C1029  C1037   1.404   .     A
C1029  H905    1.083   1_655 S
C1030  H1050   1.084   .     S
C1030  C1032   1.392   .     A
C1030  C1038   1.404   .     A
C1031  H904    1.083   1_655 S
C1033  H1046   1.075   .     S
C1033  C1035   1.405   .     A
C1034  H1045   1.076   .     S
C1034  C1036   1.405   .     A
C1035  C1037   1.418   .     A
C1035  C1039   1.427   .     A
C1036  C1038   1.418   .     A
C1036  C1040   1.426   .     A
C1037  C365    1.390   1_556 S
C1039  C392    1.424   1_556 S
Cu1041 N1059   2.011   .     S
Cu1041 O1065   1.958   .     S
Cu1041 O1064   1.969   .     S
Cu1041 O1068   1.944   .     S
Cu1041 O1061   1.975   .     S
Cu1042 N1060   2.011   .     S
Cu1042 O1063   1.969   .     S
Cu1042 O1066   1.958   .     S
Cu1042 O1062   1.975   .     S
Cu1042 O1067   1.944   .     S
Cu1042 Cu897   2.676   1_655 S
H1047  C888    1.083   1_655 S
O1063  C865    1.295   1_655 S
O1066  C882    1.295   1_655 S
N1069  H1070   1.032   .     S
N1069  C1071   1.447   .     S
C1071  H1073   1.110   .     S
C1071  H1074   1.111   .     S
C1071  H1072   1.111   .     S
N1075  H1076   1.032   .     S
N1075  C1077   1.447   .     S
C1077  H1080   1.110   .     S
C1077  H1078   1.111   .     S
C1077  H1079   1.111   .     S
C1081  C1092   1.455   .     S
C1081  O1133   1.289   .     A
C1081  O1279   1.295   1_455 S
C1082  C1091   1.455   .     S
C1082  O1134   1.289   .     A
C1082  O1208   1.295   .     S
C1083  C1085   1.386   .     A
C1083  H1123   1.076   .     S
C1083  C1112   1.417   .     A
C1084  H1124   1.076   .     S
C1084  C1111   1.417   .     A
C1084  C1086   1.387   .     A
C1085  H1115   1.084   .     S
C1086  H1116   1.084   .     S
C1086  C462    1.390   1_556 S
C1087  H1125   1.084   .     S
C1087  C1164   1.400   .     S
C1088  H1126   1.084   .     S
C1088  C658    1.388   1_565 S
C1088  C1235   1.400   1_455 S
C1089  C1091   1.412   .     A
C1089  N1141   1.423   .     S
C1089  C655    1.388   1_565 S
C1090  N1147   1.423   .     S
C1090  C1092   1.412   .     A
C1091  C1160   1.400   .     S
C1092  C1231   1.400   1_455 S
C1093  N1132   1.368   .     A
C1093  C1095   1.415   .     A
C1093  H1127   1.081   .     S
C1094  C1096   1.415   .     A
C1094  N1131   1.368   .     A
C1094  H1128   1.081   .     S
C1095  N1131   1.366   .     A
C1095  H1129   1.081   .     S
C1096  N1132   1.366   .     A
C1096  H1130   1.081   .     S
C1097  O1139   1.294   .     A
C1097  C1099   1.467   .     S
C1097  O1209   1.295   .     S
C1098  C1100   1.466   .     S
C1098  O1140   1.293   .     A
C1098  O1282   1.295   1_455 S
C1099  C1103   1.399   .     A
C1099  C1105   1.399   .     A
C1100  C1104   1.399   .     A
C1100  C1106   1.398   .     A
C1101  C1103   1.391   .     A
C1101  C1109   1.404   .     A
C1101  H1193   1.083   .     S
C1102  H1122   1.084   .     S
C1102  C1104   1.392   .     A
C1102  C1110   1.404   .     A
C1103  H1192   1.083   .     S
C1104  H1263   1.083   1_455 S
C1105  H1118   1.075   .     S
C1105  C1107   1.405   .     A
C1106  H1117   1.076   .     S
C1106  C1108   1.405   .     A
C1107  C1109   1.418   .     A
C1107  C1111   1.427   .     A
C1108  C1110   1.418   .     A
C1108  C1112   1.426   .     A
C1109  C437    1.390   1_556 S
C1111  C464    1.424   1_556 S
Cu1113 N1131   2.011   .     S
Cu1113 O1137   1.958   .     S
Cu1113 O1136   1.969   .     S
Cu1113 O1140   1.944   .     S
Cu1113 O1133   1.975   .     S
Cu1113 Cu1258  2.676   1_455 S
Cu1114 N1132   2.011   .     S
Cu1114 O1135   1.969   .     S
Cu1114 O1138   1.958   .     S
Cu1114 O1134   1.975   .     S
Cu1114 O1139   1.944   .     S
Cu1114 Cu1185  2.676   .     S
H1119  C1176   1.083   .     S
H1120  C1247   1.083   1_455 S
H1121  C1245   1.083   1_455 S
O1135  C1153   1.295   .     S
O1136  C1226   1.295   1_455 S
O1137  C1241   1.295   1_455 S
O1138  C1170   1.295   .     S
N1141  H1142   1.032   .     S
N1141  C1143   1.447   .     S
C1143  H1145   1.110   .     S
C1143  H1146   1.111   .     S
C1143  H1144   1.111   .     S
N1147  H1148   1.032   .     S
N1147  C1149   1.447   .     S
C1149  H1152   1.110   .     S
C1149  H1150   1.111   .     S
C1149  H1151   1.111   .     S
C1153  C1164   1.455   .     S
C1153  O1205   1.289   .     A
C1154  C1163   1.455   .     S
C1154  O1206   1.289   .     A
C1154  O1280   1.295   .     S
C1155  C1157   1.386   .     A
C1155  H1195   1.076   .     S
C1155  C1184   1.417   .     A
C1156  H1196   1.076   .     S
C1156  C1183   1.417   .     A
C1156  C1158   1.387   .     A
C1157  H1187   1.084   .     S
C1158  H1188   1.084   .     S
C1158  C534    1.390   1_556 S
C1159  H1197   1.084   .     S
C1159  C1236   1.400   .     S
C1160  H1198   1.084   .     S
C1160  C730    1.388   1_565 S
C1161  C1163   1.412   .     A
C1161  N1213   1.423   .     S
C1161  C727    1.388   1_565 S
C1162  N1219   1.423   .     S
C1162  C1164   1.412   .     A
C1163  C1232   1.400   .     S
C1165  N1204   1.368   .     A
C1165  C1167   1.415   .     A
C1165  H1199   1.081   .     S
C1166  C1168   1.415   .     A
C1166  N1203   1.368   .     A
C1166  H1200   1.081   .     S
C1167  N1203   1.366   .     A
C1167  H1201   1.081   .     S
C1168  N1204   1.366   .     A
C1168  H1202   1.081   .     S
C1169  O1211   1.294   .     A
C1169  C1171   1.467   .     S
C1169  O1281   1.295   .     S
C1170  C1172   1.466   .     S
C1170  O1212   1.293   .     A
C1171  C1175   1.399   .     A
C1171  C1177   1.399   .     A
C1172  C1176   1.399   .     A
C1172  C1178   1.398   .     A
C1173  C1175   1.391   .     A
C1173  C1181   1.404   .     A
C1173  H1265   1.083   .     S
C1174  H1194   1.084   .     S
C1174  C1176   1.392   .     A
C1174  C1182   1.404   .     A
C1175  H1264   1.083   .     S
C1177  H1190   1.075   .     S
C1177  C1179   1.405   .     A
C1178  H1189   1.076   .     S
C1178  C1180   1.405   .     A
C1179  C1181   1.418   .     A
C1179  C1183   1.427   .     A
C1180  C1182   1.418   .     A
C1180  C1184   1.426   .     A
C1181  C509    1.390   1_556 S
C1183  C536    1.424   1_556 S
Cu1185 N1203   2.011   .     S
Cu1185 O1209   1.958   .     S
Cu1185 O1208   1.969   .     S
Cu1185 O1212   1.944   .     S
Cu1185 O1205   1.975   .     S
Cu1186 N1204   2.011   .     S
Cu1186 O1207   1.969   .     S
Cu1186 O1210   1.958   .     S
Cu1186 O1206   1.975   .     S
Cu1186 O1211   1.944   .     S
Cu1186 Cu1257  2.676   .     S
H1191  C1248   1.083   .     S
O1207  C1225   1.295   .     S
O1210  C1242   1.295   .     S
N1213  H1214   1.032   .     S
N1213  C1215   1.447   .     S
C1215  H1217   1.110   .     S
C1215  H1218   1.111   .     S
C1215  H1216   1.111   .     S
N1219  H1220   1.032   .     S
N1219  C1221   1.447   .     S
C1221  H1224   1.110   .     S
C1221  H1222   1.111   .     S
C1221  H1223   1.111   .     S
C1225  C1236   1.455   .     S
C1225  O1277   1.289   .     A
C1226  C1235   1.455   .     S
C1226  O1278   1.289   .     A
C1226  O1136   1.295   1_655 S
C1227  C1229   1.386   .     A
C1227  H1267   1.076   .     S
C1227  C1256   1.417   .     A
C1228  H1268   1.076   .     S
C1228  C1255   1.417   .     A
C1228  C1230   1.387   .     A
C1229  H1259   1.084   .     S
C1230  H1260   1.084   .     S
C1230  C606    1.390   1_556 S
C1231  H1269   1.084   .     S
C1231  C1092   1.400   1_655 S
C1232  H1270   1.084   .     S
C1232  C802    1.388   1_565 S
C1233  C1235   1.412   .     A
C1233  N1285   1.423   .     S
C1233  C799    1.388   1_565 S
C1234  N1291   1.423   .     S
C1234  C1236   1.412   .     A
C1235  C1088   1.400   1_655 S
C1237  N1276   1.368   .     A
C1237  C1239   1.415   .     A
C1237  H1271   1.081   .     S
C1238  C1240   1.415   .     A
C1238  N1275   1.368   .     A
C1238  H1272   1.081   .     S
C1239  N1275   1.366   .     A
C1239  H1273   1.081   .     S
C1240  N1276   1.366   .     A
C1240  H1274   1.081   .     S
C1241  O1283   1.294   .     A
C1241  C1243   1.467   .     S
C1241  O1137   1.295   1_655 S
C1242  C1244   1.466   .     S
C1242  O1284   1.293   .     A
C1243  C1247   1.399   .     A
C1243  C1249   1.399   .     A
C1244  C1248   1.399   .     A
C1244  C1250   1.398   .     A
C1245  C1247   1.391   .     A
C1245  C1253   1.404   .     A
C1245  H1121   1.083   1_655 S
C1246  H1266   1.084   .     S
C1246  C1248   1.392   .     A
C1246  C1254   1.404   .     A
C1247  H1120   1.083   1_655 S
C1249  H1262   1.075   .     S
C1249  C1251   1.405   .     A
C1250  H1261   1.076   .     S
C1250  C1252   1.405   .     A
C1251  C1253   1.418   .     A
C1251  C1255   1.427   .     A
C1252  C1254   1.418   .     A
C1252  C1256   1.426   .     A
C1253  C581    1.390   1_556 S
C1255  C608    1.424   1_556 S
Cu1257 N1275   2.011   .     S
Cu1257 O1281   1.958   .     S
Cu1257 O1280   1.969   .     S
Cu1257 O1284   1.944   .     S
Cu1257 O1277   1.975   .     S
Cu1258 N1276   2.011   .     S
Cu1258 O1279   1.969   .     S
Cu1258 O1282   1.958   .     S
Cu1258 O1278   1.975   .     S
Cu1258 O1283   1.944   .     S
Cu1258 Cu1113  2.676   1_655 S
H1263  C1104   1.083   1_655 S
O1279  C1081   1.295   1_655 S
O1282  C1098   1.295   1_655 S
N1285  H1286   1.032   .     S
N1285  C1287   1.447   .     S
C1287  H1289   1.110   .     S
C1287  H1290   1.111   .     S
C1287  H1288   1.111   .     S
N1291  H1292   1.032   .     S
N1291  C1293   1.447   .     S
C1293  H1296   1.110   .     S
C1293  H1294   1.111   .     S
C1293  H1295   1.111   .     S
